MODEL 1
REMARK VINA RESULT:      -7.2      0.000      0.000
REMARK  Name = 
REMARK  13 active torsions:
REMARK  status: ('A' for Active; 'I' for Inactive)
REMARK    1  A    between atoms: C_1  and  O_2
REMARK    2  A    between atoms: O_2  and  C_3
REMARK    3  A    between atoms: C_3  and  C_5
REMARK    4  A    between atoms: C_6  and  C_7
REMARK    5  A    between atoms: C_9  and  C_10
REMARK    6  A    between atoms: C_10  and  O_12
REMARK    7  A    between atoms: O_12  and  C_13
REMARK    8  A    between atoms: C_13  and  C_14
REMARK    9  A    between atoms: N_16  and  C_17
REMARK   10  A    between atoms: C_17  and  C_18
REMARK   11  A    between atoms: C_18  and  C_19
REMARK   12  A    between atoms: C_18  and  C_20
REMARK   13  A    between atoms: C_21  and  C_22
REMARK                            x       y       z     vdW  Elec       q    Type
REMARK                         _______ _______ _______ _____ _____    ______ ____
ROOT
ATOM      1  C   UNL     1       3.261   5.266  18.433  0.00  0.00    +0.000 A 
ATOM      2  C   UNL     1       3.587   6.559  18.047  0.00  0.00    +0.000 A 
ATOM      3  C   UNL     1       2.747   7.702  17.592  0.00  0.00    +0.000 C 
ATOM      4  N   UNL     1       4.950   6.708  18.194  0.00  0.00    +0.000 N 
ATOM      5  C   UNL     1       5.524   5.555  18.686  0.00  0.00    +0.000 A 
ATOM      6  C   UNL     1       4.491   4.634  18.846  0.00  0.00    +0.000 A 
ATOM      7  C   UNL     1       4.589   3.234  19.350  0.00  0.00    +0.000 C 
ATOM      8  H   UNL     1       5.469   7.559  18.009  0.00  0.00    +0.000 HD
ENDROOT
BRANCH   1   9
ATOM      9  C   UNL     1       1.932   4.642  18.464  0.00  0.00    +0.000 C 
ATOM     10  O   UNL     1       1.334   4.298  17.451  0.00  0.00    +0.000 OA
BRANCH   9  12
ATOM     11  C   UNL     1       0.865   3.249  20.011  0.00  0.00    +0.000 C 
ATOM     12  O   UNL     1       1.415   4.534  19.722  0.00  0.00    +0.000 OA
ENDBRANCH   9  12
ENDBRANCH   1   9
BRANCH   5  13
ATOM     13  C   UNL     1       6.927   5.413  19.018  0.00  0.00    +0.000 C 
ATOM     14  O   UNL     1       7.399   5.357  20.149  0.00  0.00    +0.000 OA
BRANCH  13  15
ATOM     15  O   UNL     1       7.685   5.458  17.888  0.00  0.00    +0.000 OA
BRANCH  15  16
ATOM     16  C   UNL     1       7.529   4.305  17.054  0.00  0.00    +0.000 C 
BRANCH  16  17
ATOM     17  C   UNL     1       7.002   4.774  15.701  0.00  0.00    +0.000 C 
ATOM     18  O   UNL     1       7.451   5.774  15.145  0.00  0.00    +0.000 OA
ATOM     19  N   UNL     1       6.016   3.987  15.149  0.00  0.00    +0.000 N 
ATOM     20  H   UNL     1       5.740   3.131  15.619  0.00  0.00    +0.000 HD
BRANCH  19  21
ATOM     21  C   UNL     1       5.403   4.308  13.869  0.00  0.00    +0.000 C 
BRANCH  21  22
ATOM     22  C   UNL     1       5.840   3.387  12.715  0.00  0.00    +0.000 C 
ATOM     23  C   UNL     1       4.731   3.191  11.681  0.00  0.00    +0.000 C 
ATOM     24  C   UNL     1       7.080   3.971  12.029  0.00  0.00    +0.000 C 
ENDBRANCH  21  22
ENDBRANCH  19  21
ENDBRANCH  16  17
ENDBRANCH  15  16
ENDBRANCH  13  15
ENDBRANCH   5  13
TORSDOF 8
ENDMDL
MODEL 2
REMARK VINA RESULT:      -7.1      1.246      2.296
REMARK  Name = 
REMARK  13 active torsions:
REMARK  status: ('A' for Active; 'I' for Inactive)
REMARK    1  A    between atoms: C_1  and  O_2
REMARK    2  A    between atoms: O_2  and  C_3
REMARK    3  A    between atoms: C_3  and  C_5
REMARK    4  A    between atoms: C_6  and  C_7
REMARK    5  A    between atoms: C_9  and  C_10
REMARK    6  A    between atoms: C_10  and  O_12
REMARK    7  A    between atoms: O_12  and  C_13
REMARK    8  A    between atoms: C_13  and  C_14
REMARK    9  A    between atoms: N_16  and  C_17
REMARK   10  A    between atoms: C_17  and  C_18
REMARK   11  A    between atoms: C_18  and  C_19
REMARK   12  A    between atoms: C_18  and  C_20
REMARK   13  A    between atoms: C_21  and  C_22
REMARK                            x       y       z     vdW  Elec       q    Type
REMARK                         _______ _______ _______ _____ _____    ______ ____
ROOT
ATOM      1  C   UNL     1       3.700   4.575  18.767  0.00  0.00    +0.000 A 
ATOM      2  C   UNL     1       4.593   3.619  19.233  0.00  0.00    +0.000 A 
ATOM      3  C   UNL     1       4.382   2.303  19.899  0.00  0.00    +0.000 C 
ATOM      4  N   UNL     1       5.866   4.055  18.933  0.00  0.00    +0.000 N 
ATOM      5  C   UNL     1       5.832   5.260  18.263  0.00  0.00    +0.000 A 
ATOM      6  C   UNL     1       4.488   5.611  18.144  0.00  0.00    +0.000 A 
ATOM      7  C   UNL     1       3.918   6.828  17.499  0.00  0.00    +0.000 C 
ATOM      8  H   UNL     1       6.721   3.548  19.133  0.00  0.00    +0.000 HD
ENDROOT
BRANCH   1   9
ATOM      9  C   UNL     1       2.234   4.551  18.842  0.00  0.00    +0.000 C 
ATOM     10  O   UNL     1       1.516   4.486  17.851  0.00  0.00    +0.000 OA
BRANCH   9  12
ATOM     11  C   UNL     1       0.932   3.566  20.518  0.00  0.00    +0.000 C 
ATOM     12  O   UNL     1       1.756   4.660  20.116  0.00  0.00    +0.000 OA
ENDBRANCH   9  12
ENDBRANCH   1   9
BRANCH   5  13
ATOM     13  C   UNL     1       6.999   5.946  17.746  0.00  0.00    +0.000 C 
ATOM     14  O   UNL     1       7.851   6.522  18.413  0.00  0.00    +0.000 OA
BRANCH  13  15
ATOM     15  O   UNL     1       6.970   5.962  16.385  0.00  0.00    +0.000 OA
BRANCH  15  16
ATOM     16  C   UNL     1       6.708   4.677  15.808  0.00  0.00    +0.000 C 
BRANCH  16  17
ATOM     17  C   UNL     1       7.116   4.733  14.338  0.00  0.00    +0.000 C 
ATOM     18  O   UNL     1       7.900   5.581  13.918  0.00  0.00    +0.000 OA
ATOM     19  N   UNL     1       6.567   3.756  13.537  0.00  0.00    +0.000 N 
ATOM     20  H   UNL     1       5.987   3.037  13.957  0.00  0.00    +0.000 HD
BRANCH  19  21
ATOM     21  C   UNL     1       6.850   3.682  12.112  0.00  0.00    +0.000 C 
BRANCH  21  22
ATOM     22  C   UNL     1       5.800   2.900  11.303  0.00  0.00    +0.000 C 
ATOM     23  C   UNL     1       5.975   1.387  11.439  0.00  0.00    +0.000 C 
ATOM     24  C   UNL     1       4.392   3.294  11.766  0.00  0.00    +0.000 C 
ENDBRANCH  21  22
ENDBRANCH  19  21
ENDBRANCH  16  17
ENDBRANCH  15  16
ENDBRANCH  13  15
ENDBRANCH   5  13
TORSDOF 8
ENDMDL
MODEL 3
REMARK VINA RESULT:      -7.1      1.377      2.532
REMARK  Name = 
REMARK  13 active torsions:
REMARK  status: ('A' for Active; 'I' for Inactive)
REMARK    1  A    between atoms: C_1  and  O_2
REMARK    2  A    between atoms: O_2  and  C_3
REMARK    3  A    between atoms: C_3  and  C_5
REMARK    4  A    between atoms: C_6  and  C_7
REMARK    5  A    between atoms: C_9  and  C_10
REMARK    6  A    between atoms: C_10  and  O_12
REMARK    7  A    between atoms: O_12  and  C_13
REMARK    8  A    between atoms: C_13  and  C_14
REMARK    9  A    between atoms: N_16  and  C_17
REMARK   10  A    between atoms: C_17  and  C_18
REMARK   11  A    between atoms: C_18  and  C_19
REMARK   12  A    between atoms: C_18  and  C_20
REMARK   13  A    between atoms: C_21  and  C_22
REMARK                            x       y       z     vdW  Elec       q    Type
REMARK                         _______ _______ _______ _____ _____    ______ ____
ROOT
ATOM      1  C   UNL     1       3.498   4.316  19.452  0.00  0.00    +0.000 A 
ATOM      2  C   UNL     1       4.449   3.329  19.673  0.00  0.00    +0.000 A 
ATOM      3  C   UNL     1       4.356   1.983  20.305  0.00  0.00    +0.000 C 
ATOM      4  N   UNL     1       5.639   3.766  19.131  0.00  0.00    +0.000 N 
ATOM      5  C   UNL     1       5.489   5.003  18.541  0.00  0.00    +0.000 A 
ATOM      6  C   UNL     1       4.159   5.374  18.726  0.00  0.00    +0.000 A 
ATOM      7  C   UNL     1       3.491   6.628  18.274  0.00  0.00    +0.000 C 
ATOM      8  H   UNL     1       6.505   3.240  19.120  0.00  0.00    +0.000 HD
ENDROOT
BRANCH   1   9
ATOM      9  C   UNL     1       2.081   4.304  19.835  0.00  0.00    +0.000 C 
ATOM     10  O   UNL     1       1.698   4.501  20.983  0.00  0.00    +0.000 OA
BRANCH   9  12
ATOM     11  C   UNL     1       1.074   2.603  18.584  0.00  0.00    +0.000 C 
ATOM     12  O   UNL     1       1.244   4.004  18.800  0.00  0.00    +0.000 OA
ENDBRANCH   9  12
ENDBRANCH   1   9
BRANCH   5  13
ATOM     13  C   UNL     1       6.535   5.702  17.821  0.00  0.00    +0.000 C 
ATOM     14  O   UNL     1       7.482   6.298  18.323  0.00  0.00    +0.000 OA
BRANCH  13  15
ATOM     15  O   UNL     1       6.267   5.704  16.486  0.00  0.00    +0.000 OA
BRANCH  15  16
ATOM     16  C   UNL     1       6.298   4.397  15.899  0.00  0.00    +0.000 C 
BRANCH  16  17
ATOM     17  C   UNL     1       6.827   4.537  14.474  0.00  0.00    +0.000 C 
ATOM     18  O   UNL     1       7.589   5.447  14.156  0.00  0.00    +0.000 OA
ATOM     19  N   UNL     1       6.410   3.564  13.594  0.00  0.00    +0.000 N 
ATOM     20  H   UNL     1       5.843   2.794  13.935  0.00  0.00    +0.000 HD
BRANCH  19  21
ATOM     21  C   UNL     1       6.818   3.565  12.197  0.00  0.00    +0.000 C 
BRANCH  21  22
ATOM     22  C   UNL     1       5.841   2.836  11.257  0.00  0.00    +0.000 C 
ATOM     23  C   UNL     1       6.026   1.319  11.296  0.00  0.00    +0.000 C 
ATOM     24  C   UNL     1       4.398   3.184  11.640  0.00  0.00    +0.000 C 
ENDBRANCH  21  22
ENDBRANCH  19  21
ENDBRANCH  16  17
ENDBRANCH  15  16
ENDBRANCH  13  15
ENDBRANCH   5  13
TORSDOF 8
ENDMDL
MODEL 4
REMARK VINA RESULT:      -7.0      1.396      2.356
REMARK  Name = 
REMARK  13 active torsions:
REMARK  status: ('A' for Active; 'I' for Inactive)
REMARK    1  A    between atoms: C_1  and  O_2
REMARK    2  A    between atoms: O_2  and  C_3
REMARK    3  A    between atoms: C_3  and  C_5
REMARK    4  A    between atoms: C_6  and  C_7
REMARK    5  A    between atoms: C_9  and  C_10
REMARK    6  A    between atoms: C_10  and  O_12
REMARK    7  A    between atoms: O_12  and  C_13
REMARK    8  A    between atoms: C_13  and  C_14
REMARK    9  A    between atoms: N_16  and  C_17
REMARK   10  A    between atoms: C_17  and  C_18
REMARK   11  A    between atoms: C_18  and  C_19
REMARK   12  A    between atoms: C_18  and  C_20
REMARK   13  A    between atoms: C_21  and  C_22
REMARK                            x       y       z     vdW  Elec       q    Type
REMARK                         _______ _______ _______ _____ _____    ______ ____
ROOT
ATOM      1  C   UNL     1       3.795   4.615  18.749  0.00  0.00    +0.000 A 
ATOM      2  C   UNL     1       4.535   3.563  19.271  0.00  0.00    +0.000 A 
ATOM      3  C   UNL     1       4.126   2.303  19.955  0.00  0.00    +0.000 C 
ATOM      4  N   UNL     1       5.865   3.820  19.016  0.00  0.00    +0.000 N 
ATOM      5  C   UNL     1       6.016   5.001  18.321  0.00  0.00    +0.000 A 
ATOM      6  C   UNL     1       4.737   5.522  18.138  0.00  0.00    +0.000 A 
ATOM      7  C   UNL     1       4.358   6.786  17.445  0.00  0.00    +0.000 C 
ATOM      8  H   UNL     1       6.636   3.210  19.262  0.00  0.00    +0.000 HD
ENDROOT
BRANCH   1   9
ATOM      9  C   UNL     1       2.337   4.786  18.763  0.00  0.00    +0.000 C 
ATOM     10  O   UNL     1       1.647   4.715  17.752  0.00  0.00    +0.000 OA
BRANCH   9  12
ATOM     11  C   UNL     1       0.918   4.111  20.496  0.00  0.00    +0.000 C 
ATOM     12  O   UNL     1       1.839   5.081  19.999  0.00  0.00    +0.000 OA
ENDBRANCH   9  12
ENDBRANCH   1   9
BRANCH   5  13
ATOM     13  C   UNL     1       7.283   5.515  17.839  0.00  0.00    +0.000 C 
ATOM     14  O   UNL     1       7.799   6.580  18.161  0.00  0.00    +0.000 OA
BRANCH  13  15
ATOM     15  O   UNL     1       7.788   4.693  16.878  0.00  0.00    +0.000 OA
BRANCH  15  16
ATOM     16  C   UNL     1       7.418   5.080  15.549  0.00  0.00    +0.000 C 
BRANCH  16  17
ATOM     17  C   UNL     1       6.347   4.108  15.061  0.00  0.00    +0.000 C 
ATOM     18  O   UNL     1       5.858   3.260  15.805  0.00  0.00    +0.000 OA
ATOM     19  N   UNL     1       5.958   4.271  13.750  0.00  0.00    +0.000 N 
ATOM     20  H   UNL     1       6.341   5.039  13.209  0.00  0.00    +0.000 HD
BRANCH  19  21
ATOM     21  C   UNL     1       4.955   3.416  13.134  0.00  0.00    +0.000 C 
BRANCH  21  22
ATOM     22  C   UNL     1       5.190   3.151  11.636  0.00  0.00    +0.000 C 
ATOM     23  C   UNL     1       5.845   1.792  11.385  0.00  0.00    +0.000 C 
ATOM     24  C   UNL     1       3.856   3.221  10.884  0.00  0.00    +0.000 C 
ENDBRANCH  21  22
ENDBRANCH  19  21
ENDBRANCH  16  17
ENDBRANCH  15  16
ENDBRANCH  13  15
ENDBRANCH   5  13
TORSDOF 8
ENDMDL
MODEL 5
REMARK VINA RESULT:      -7.0      1.363      1.686
REMARK  Name = 
REMARK  13 active torsions:
REMARK  status: ('A' for Active; 'I' for Inactive)
REMARK    1  A    between atoms: C_1  and  O_2
REMARK    2  A    between atoms: O_2  and  C_3
REMARK    3  A    between atoms: C_3  and  C_5
REMARK    4  A    between atoms: C_6  and  C_7
REMARK    5  A    between atoms: C_9  and  C_10
REMARK    6  A    between atoms: C_10  and  O_12
REMARK    7  A    between atoms: O_12  and  C_13
REMARK    8  A    between atoms: C_13  and  C_14
REMARK    9  A    between atoms: N_16  and  C_17
REMARK   10  A    between atoms: C_17  and  C_18
REMARK   11  A    between atoms: C_18  and  C_19
REMARK   12  A    between atoms: C_18  and  C_20
REMARK   13  A    between atoms: C_21  and  C_22
REMARK                            x       y       z     vdW  Elec       q    Type
REMARK                         _______ _______ _______ _____ _____    ______ ____
ROOT
ATOM      1  C   UNL     1       2.621   4.437  18.906  0.00  0.00    +0.000 A 
ATOM      2  C   UNL     1       2.987   5.760  19.113  0.00  0.00    +0.000 A 
ATOM      3  C   UNL     1       2.231   6.929  19.644  0.00  0.00    +0.000 C 
ATOM      4  N   UNL     1       4.317   5.884  18.773  0.00  0.00    +0.000 N 
ATOM      5  C   UNL     1       4.840   4.673  18.369  0.00  0.00    +0.000 A 
ATOM      6  C   UNL     1       3.801   3.747  18.442  0.00  0.00    +0.000 A 
ATOM      7  C   UNL     1       3.850   2.295  18.110  0.00  0.00    +0.000 C 
ATOM      8  H   UNL     1       4.863   6.735  18.846  0.00  0.00    +0.000 HD
ENDROOT
BRANCH   1   9
ATOM      9  C   UNL     1       1.311   3.817  19.139  0.00  0.00    +0.000 C 
ATOM     10  O   UNL     1       0.637   3.325  18.241  0.00  0.00    +0.000 OA
BRANCH   9  12
ATOM     11  C   UNL     1       1.393   2.831  21.259  0.00  0.00    +0.000 C 
ATOM     12  O   UNL     1       0.901   3.890  20.439  0.00  0.00    +0.000 OA
ENDBRANCH   9  12
ENDBRANCH   1   9
BRANCH   5  13
ATOM     13  C   UNL     1       6.228   4.455  18.015  0.00  0.00    +0.000 C 
ATOM     14  O   UNL     1       7.200   4.703  18.720  0.00  0.00    +0.000 OA
BRANCH  13  15
ATOM     15  O   UNL     1       6.323   4.028  16.725  0.00  0.00    +0.000 OA
BRANCH  15  16
ATOM     16  C   UNL     1       5.841   4.985  15.774  0.00  0.00    +0.000 C 
BRANCH  16  17
ATOM     17  C   UNL     1       6.616   4.785  14.475  0.00  0.00    +0.000 C 
ATOM     18  O   UNL     1       7.631   5.431  14.224  0.00  0.00    +0.000 OA
ATOM     19  N   UNL     1       6.111   3.821  13.631  0.00  0.00    +0.000 N 
ATOM     20  H   UNL     1       5.315   3.267  13.928  0.00  0.00    +0.000 HD
BRANCH  19  21
ATOM     21  C   UNL     1       6.731   3.521  12.349  0.00  0.00    +0.000 C 
BRANCH  21  22
ATOM     22  C   UNL     1       5.788   2.845  11.338  0.00  0.00    +0.000 C 
ATOM     23  C   UNL     1       5.891   1.320  11.382  0.00  0.00    +0.000 C 
ATOM     24  C   UNL     1       4.341   3.267  11.620  0.00  0.00    +0.000 C 
ENDBRANCH  21  22
ENDBRANCH  19  21
ENDBRANCH  16  17
ENDBRANCH  15  16
ENDBRANCH  13  15
ENDBRANCH   5  13
TORSDOF 8
ENDMDL
MODEL 6
REMARK VINA RESULT:      -6.9      1.387      2.366
REMARK  Name = 
REMARK  13 active torsions:
REMARK  status: ('A' for Active; 'I' for Inactive)
REMARK    1  A    between atoms: C_1  and  O_2
REMARK    2  A    between atoms: O_2  and  C_3
REMARK    3  A    between atoms: C_3  and  C_5
REMARK    4  A    between atoms: C_6  and  C_7
REMARK    5  A    between atoms: C_9  and  C_10
REMARK    6  A    between atoms: C_10  and  O_12
REMARK    7  A    between atoms: O_12  and  C_13
REMARK    8  A    between atoms: C_13  and  C_14
REMARK    9  A    between atoms: N_16  and  C_17
REMARK   10  A    between atoms: C_17  and  C_18
REMARK   11  A    between atoms: C_18  and  C_19
REMARK   12  A    between atoms: C_18  and  C_20
REMARK   13  A    between atoms: C_21  and  C_22
REMARK                            x       y       z     vdW  Elec       q    Type
REMARK                         _______ _______ _______ _____ _____    ______ ____
ROOT
ATOM      1  C   UNL     1       3.760   4.607  18.730  0.00  0.00    +0.000 A 
ATOM      2  C   UNL     1       4.583   3.587  19.187  0.00  0.00    +0.000 A 
ATOM      3  C   UNL     1       4.279   2.276  19.827  0.00  0.00    +0.000 C 
ATOM      4  N   UNL     1       5.885   3.944  18.909  0.00  0.00    +0.000 N 
ATOM      5  C   UNL     1       5.937   5.160  18.260  0.00  0.00    +0.000 A 
ATOM      6  C   UNL     1       4.621   5.600  18.134  0.00  0.00    +0.000 A 
ATOM      7  C   UNL     1       4.139   6.863  17.505  0.00  0.00    +0.000 C 
ATOM      8  H   UNL     1       6.702   3.379  19.108  0.00  0.00    +0.000 HD
ENDROOT
BRANCH   1   9
ATOM      9  C   UNL     1       2.294   4.678  18.789  0.00  0.00    +0.000 C 
ATOM     10  O   UNL     1       1.586   4.680  17.789  0.00  0.00    +0.000 OA
BRANCH   9  12
ATOM     11  C   UNL     1       1.712   6.138  20.522  0.00  0.00    +0.000 C 
ATOM     12  O   UNL     1       1.810   4.791  20.060  0.00  0.00    +0.000 OA
ENDBRANCH   9  12
ENDBRANCH   1   9
BRANCH   5  13
ATOM     13  C   UNL     1       7.152   5.777  17.768  0.00  0.00    +0.000 C 
ATOM     14  O   UNL     1       7.769   6.689  18.310  0.00  0.00    +0.000 OA
BRANCH  13  15
ATOM     15  O   UNL     1       7.471   5.277  16.542  0.00  0.00    +0.000 OA
BRANCH  15  16
ATOM     16  C   UNL     1       6.421   5.424  15.579  0.00  0.00    +0.000 C 
BRANCH  16  17
ATOM     17  C   UNL     1       6.940   4.910  14.239  0.00  0.00    +0.000 C 
ATOM     18  O   UNL     1       7.927   5.404  13.698  0.00  0.00    +0.000 OA
ATOM     19  N   UNL     1       6.241   3.851  13.704  0.00  0.00    +0.000 N 
ATOM     20  H   UNL     1       5.482   3.437  14.235  0.00  0.00    +0.000 HD
BRANCH  19  21
ATOM     21  C   UNL     1       6.605   3.257  12.427  0.00  0.00    +0.000 C 
BRANCH  21  22
ATOM     22  C   UNL     1       5.534   2.320  11.842  0.00  0.00    +0.000 C 
ATOM     23  C   UNL     1       4.418   3.089  11.134  0.00  0.00    +0.000 C 
ATOM     24  C   UNL     1       6.184   1.342  10.857  0.00  0.00    +0.000 C 
ENDBRANCH  21  22
ENDBRANCH  19  21
ENDBRANCH  16  17
ENDBRANCH  15  16
ENDBRANCH  13  15
ENDBRANCH   5  13
TORSDOF 8
ENDMDL
MODEL 7
REMARK VINA RESULT:      -6.8      1.536      2.642
REMARK  Name = 
REMARK  13 active torsions:
REMARK  status: ('A' for Active; 'I' for Inactive)
REMARK    1  A    between atoms: C_1  and  O_2
REMARK    2  A    between atoms: O_2  and  C_3
REMARK    3  A    between atoms: C_3  and  C_5
REMARK    4  A    between atoms: C_6  and  C_7
REMARK    5  A    between atoms: C_9  and  C_10
REMARK    6  A    between atoms: C_10  and  O_12
REMARK    7  A    between atoms: O_12  and  C_13
REMARK    8  A    between atoms: C_13  and  C_14
REMARK    9  A    between atoms: N_16  and  C_17
REMARK   10  A    between atoms: C_17  and  C_18
REMARK   11  A    between atoms: C_18  and  C_19
REMARK   12  A    between atoms: C_18  and  C_20
REMARK   13  A    between atoms: C_21  and  C_22
REMARK                            x       y       z     vdW  Elec       q    Type
REMARK                         _______ _______ _______ _____ _____    ______ ____
ROOT
ATOM      1  C   UNL     1       3.048   3.528  19.371  0.00  0.00    +0.000 A 
ATOM      2  C   UNL     1       3.982   2.543  19.080  0.00  0.00    +0.000 A 
ATOM      3  C   UNL     1       3.834   1.091  18.777  0.00  0.00    +0.000 C 
ATOM      4  N   UNL     1       5.224   3.140  19.053  0.00  0.00    +0.000 N 
ATOM      5  C   UNL     1       5.128   4.494  19.296  0.00  0.00    +0.000 A 
ATOM      6  C   UNL     1       3.777   4.767  19.498  0.00  0.00    +0.000 A 
ATOM      7  C   UNL     1       3.149   6.085  19.797  0.00  0.00    +0.000 C 
ATOM      8  H   UNL     1       6.096   2.668  18.841  0.00  0.00    +0.000 HD
ENDROOT
BRANCH   1   9
ATOM      9  C   UNL     1       1.592   3.381  19.494  0.00  0.00    +0.000 C 
ATOM     10  O   UNL     1       1.006   3.425  20.569  0.00  0.00    +0.000 OA
BRANCH   9  12
ATOM     11  C   UNL     1       1.206   4.147  17.317  0.00  0.00    +0.000 C 
ATOM     12  O   UNL     1       0.970   3.143  18.303  0.00  0.00    +0.000 OA
ENDBRANCH   9  12
ENDBRANCH   1   9
BRANCH   5  13
ATOM     13  C   UNL     1       6.246   5.415  19.264  0.00  0.00    +0.000 C 
ATOM     14  O   UNL     1       7.151   5.480  20.090  0.00  0.00    +0.000 OA
BRANCH  13  15
ATOM     15  O   UNL     1       6.103   6.294  18.233  0.00  0.00    +0.000 OA
BRANCH  15  16
ATOM     16  C   UNL     1       7.263   6.383  17.399  0.00  0.00    +0.000 C 
BRANCH  16  17
ATOM     17  C   UNL     1       7.316   5.127  16.534  0.00  0.00    +0.000 C 
ATOM     18  O   UNL     1       8.079   4.198  16.791  0.00  0.00    +0.000 OA
ATOM     19  N   UNL     1       6.437   5.105  15.474  0.00  0.00    +0.000 N 
ATOM     20  H   UNL     1       5.778   5.868  15.358  0.00  0.00    +0.000 HD
BRANCH  19  21
ATOM     21  C   UNL     1       6.374   3.983  14.551  0.00  0.00    +0.000 C 
BRANCH  21  22
ATOM     22  C   UNL     1       6.312   4.392  13.068  0.00  0.00    +0.000 C 
ATOM     23  C   UNL     1       7.661   4.890  12.549  0.00  0.00    +0.000 C 
ATOM     24  C   UNL     1       5.849   3.200  12.222  0.00  0.00    +0.000 C 
ENDBRANCH  21  22
ENDBRANCH  19  21
ENDBRANCH  16  17
ENDBRANCH  15  16
ENDBRANCH  13  15
ENDBRANCH   5  13
TORSDOF 8
ENDMDL
MODEL 8
REMARK VINA RESULT:      -6.8      1.171      1.426
REMARK  Name = 
REMARK  13 active torsions:
REMARK  status: ('A' for Active; 'I' for Inactive)
REMARK    1  A    between atoms: C_1  and  O_2
REMARK    2  A    between atoms: O_2  and  C_3
REMARK    3  A    between atoms: C_3  and  C_5
REMARK    4  A    between atoms: C_6  and  C_7
REMARK    5  A    between atoms: C_9  and  C_10
REMARK    6  A    between atoms: C_10  and  O_12
REMARK    7  A    between atoms: O_12  and  C_13
REMARK    8  A    between atoms: C_13  and  C_14
REMARK    9  A    between atoms: N_16  and  C_17
REMARK   10  A    between atoms: C_17  and  C_18
REMARK   11  A    between atoms: C_18  and  C_19
REMARK   12  A    between atoms: C_18  and  C_20
REMARK   13  A    between atoms: C_21  and  C_22
REMARK                            x       y       z     vdW  Elec       q    Type
REMARK                         _______ _______ _______ _____ _____    ______ ____
ROOT
ATOM      1  C   UNL     1       3.549   5.509  18.389  0.00  0.00    +0.000 A 
ATOM      2  C   UNL     1       3.458   6.809  17.909  0.00  0.00    +0.000 A 
ATOM      3  C   UNL     1       2.310   7.755  17.816  0.00  0.00    +0.000 C 
ATOM      4  N   UNL     1       4.720   7.200  17.518  0.00  0.00    +0.000 N 
ATOM      5  C   UNL     1       5.642   6.200  17.749  0.00  0.00    +0.000 A 
ATOM      6  C   UNL     1       4.938   5.128  18.294  0.00  0.00    +0.000 A 
ATOM      7  C   UNL     1       5.478   3.805  18.718  0.00  0.00    +0.000 C 
ATOM      8  H   UNL     1       4.962   8.112  17.149  0.00  0.00    +0.000 HD
ENDROOT
BRANCH   1   9
ATOM      9  C   UNL     1       2.473   4.670  18.930  0.00  0.00    +0.000 C 
ATOM     10  O   UNL     1       1.786   3.933  18.231  0.00  0.00    +0.000 OA
BRANCH   9  12
ATOM     11  C   UNL     1       1.309   3.949  20.827  0.00  0.00    +0.000 C 
ATOM     12  O   UNL     1       2.283   4.832  20.272  0.00  0.00    +0.000 OA
ENDBRANCH   9  12
ENDBRANCH   1   9
BRANCH   5  13
ATOM     13  C   UNL     1       7.066   6.325  17.512  0.00  0.00    +0.000 C 
ATOM     14  O   UNL     1       7.913   6.620  18.350  0.00  0.00    +0.000 OA
BRANCH  13  15
ATOM     15  O   UNL     1       7.338   6.176  16.187  0.00  0.00    +0.000 OA
BRANCH  15  16
ATOM     16  C   UNL     1       7.434   4.807  15.778  0.00  0.00    +0.000 C 
BRANCH  16  17
ATOM     17  C   UNL     1       7.374   4.768  14.253  0.00  0.00    +0.000 C 
ATOM     18  O   UNL     1       7.944   5.612  13.564  0.00  0.00    +0.000 OA
ATOM     19  N   UNL     1       6.666   3.716  13.718  0.00  0.00    +0.000 N 
ATOM     20  H   UNL     1       6.283   3.008  14.336  0.00  0.00    +0.000 HD
BRANCH  19  21
ATOM     21  C   UNL     1       6.508   3.547  12.282  0.00  0.00    +0.000 C 
BRANCH  21  22
ATOM     22  C   UNL     1       5.500   2.454  11.885  0.00  0.00    +0.000 C 
ATOM     23  C   UNL     1       4.230   3.036  11.263  0.00  0.00    +0.000 C 
ATOM     24  C   UNL     1       6.154   1.483  10.895  0.00  0.00    +0.000 C 
ENDBRANCH  21  22
ENDBRANCH  19  21
ENDBRANCH  16  17
ENDBRANCH  15  16
ENDBRANCH  13  15
ENDBRANCH   5  13
TORSDOF 8
ENDMDL
MODEL 9
REMARK VINA RESULT:      -6.8      2.156      6.354
REMARK  Name = 
REMARK  13 active torsions:
REMARK  status: ('A' for Active; 'I' for Inactive)
REMARK    1  A    between atoms: C_1  and  O_2
REMARK    2  A    between atoms: O_2  and  C_3
REMARK    3  A    between atoms: C_3  and  C_5
REMARK    4  A    between atoms: C_6  and  C_7
REMARK    5  A    between atoms: C_9  and  C_10
REMARK    6  A    between atoms: C_10  and  O_12
REMARK    7  A    between atoms: O_12  and  C_13
REMARK    8  A    between atoms: C_13  and  C_14
REMARK    9  A    between atoms: N_16  and  C_17
REMARK   10  A    between atoms: C_17  and  C_18
REMARK   11  A    between atoms: C_18  and  C_19
REMARK   12  A    between atoms: C_18  and  C_20
REMARK   13  A    between atoms: C_21  and  C_22
REMARK                            x       y       z     vdW  Elec       q    Type
REMARK                         _______ _______ _______ _____ _____    ______ ____
ROOT
ATOM      1  C   UNL     1       6.425   4.095  13.712  0.00  0.00    +0.000 A 
ATOM      2  C   UNL     1       7.436   5.045  13.655  0.00  0.00    +0.000 A 
ATOM      3  C   UNL     1       8.103   5.718  12.504  0.00  0.00    +0.000 C 
ATOM      4  N   UNL     1       7.770   5.379  14.950  0.00  0.00    +0.000 N 
ATOM      5  C   UNL     1       6.990   4.690  15.855  0.00  0.00    +0.000 A 
ATOM      6  C   UNL     1       6.139   3.878  15.110  0.00  0.00    +0.000 A 
ATOM      7  C   UNL     1       5.101   2.936  15.619  0.00  0.00    +0.000 C 
ATOM      8  H   UNL     1       8.463   6.070  15.216  0.00  0.00    +0.000 HD
ENDROOT
BRANCH   1   9
ATOM      9  C   UNL     1       5.735   3.444  12.591  0.00  0.00    +0.000 C 
ATOM     10  O   UNL     1       4.546   3.617  12.350  0.00  0.00    +0.000 OA
BRANCH   9  12
ATOM     11  C   UNL     1       5.840   1.483  11.320  0.00  0.00    +0.000 C 
ATOM     12  O   UNL     1       6.535   2.595  11.883  0.00  0.00    +0.000 OA
ENDBRANCH   9  12
ENDBRANCH   1   9
BRANCH   5  13
ATOM     13  C   UNL     1       7.046   4.872  17.292  0.00  0.00    +0.000 C 
ATOM     14  O   UNL     1       7.907   4.426  18.042  0.00  0.00    +0.000 OA
BRANCH  13  15
ATOM     15  O   UNL     1       5.933   5.526  17.727  0.00  0.00    +0.000 OA
BRANCH  15  16
ATOM     16  C   UNL     1       5.663   5.321  19.118  0.00  0.00    +0.000 C 
BRANCH  16  17
ATOM     17  C   UNL     1       4.665   4.172  19.236  0.00  0.00    +0.000 C 
ATOM     18  O   UNL     1       5.009   3.056  19.621  0.00  0.00    +0.000 OA
ATOM     19  N   UNL     1       3.365   4.485  18.908  0.00  0.00    +0.000 N 
ATOM     20  H   UNL     1       3.128   5.442  18.672  0.00  0.00    +0.000 HD
BRANCH  19  21
ATOM     21  C   UNL     1       2.300   3.495  18.958  0.00  0.00    +0.000 C 
BRANCH  21  22
ATOM     22  C   UNL     1       1.284   3.723  20.092  0.00  0.00    +0.000 C 
ATOM     23  C   UNL     1       1.449   2.713  21.228  0.00  0.00    +0.000 C 
ATOM     24  C   UNL     1       1.439   5.144  20.646  0.00  0.00    +0.000 C 
ENDBRANCH  21  22
ENDBRANCH  19  21
ENDBRANCH  16  17
ENDBRANCH  15  16
ENDBRANCH  13  15
ENDBRANCH   5  13
TORSDOF 8
ENDMDL
