MODEL 1
REMARK VINA RESULT:      -6.5      0.000      0.000
REMARK  Name = 
REMARK  6 active torsions:
REMARK  status: ('A' for Active; 'I' for Inactive)
REMARK    1  A    between atoms: C_1  and  C_2
REMARK    2  A    between atoms: C_4  and  O_5
REMARK    3  A    between atoms: C_7  and  S_8
REMARK    4  A    between atoms: S_8  and  C_9
REMARK    5  A    between atoms: C_9  and  C_10
REMARK    6  A    between atoms: C_10  and  C_12
REMARK                            x       y       z     vdW  Elec       q    Type
REMARK                         _______ _______ _______ _____ _____    ______ ____
ROOT
ATOM      1  C   UNL     1       7.767   8.169  17.083  0.00  0.00    +0.000 C 
ATOM      2  C   UNL     1       7.409   6.953  17.886  0.00  0.00    +0.000 A 
ATOM      3  C   UNL     1       8.062   6.667  19.065  0.00  0.00    +0.000 A 
ATOM      4  C   UNL     1       7.647   5.528  19.710  0.00  0.00    +0.000 A 
ATOM      5  N   UNL     1       6.681   4.717  19.269  0.00  0.00    +0.000 NA
ATOM      6  C   UNL     1       6.101   5.071  18.116  0.00  0.00    +0.000 A 
ATOM      7  N   UNL     1       6.427   6.164  17.401  0.00  0.00    +0.000 NA
ENDROOT
BRANCH   4   8
ATOM      8  O   UNL     1       8.217   5.139  20.886  0.00  0.00    +0.000 OA
ATOM      9  H   UNL     1       9.163   4.993  20.740  0.00  0.00    +0.000 HD
ENDBRANCH   4   8
BRANCH   6  10
ATOM     10  S   UNL     1       4.809   4.043  17.460  0.00  0.00    +0.000 S 
BRANCH  10  11
ATOM     11  C   UNL     1       3.391   5.181  17.618  0.00  0.00    +0.000 C 
BRANCH  11  12
ATOM     12  C   UNL     1       2.093   4.464  17.993  0.00  0.00    +0.000 C 
ATOM     13  O   UNL     1       1.161   4.337  17.197  0.00  0.00    +0.000 OA
BRANCH  12  14
ATOM     14  C   UNL     1       1.984   3.918  19.351  0.00  0.00    +0.000 A 
ATOM     15  C   UNL     1       1.509   2.663  19.697  0.00  0.00    +0.000 A 
ATOM     16  C   UNL     1       1.532   2.429  21.103  0.00  0.00    +0.000 A 
ATOM     17  C   UNL     1       2.021   3.514  21.793  0.00  0.00    +0.000 A 
ATOM     18  S   UNL     1       2.443   4.798  20.749  0.00  0.00    +0.000 S 
ENDBRANCH  12  14
ENDBRANCH  11  12
ENDBRANCH  10  11
ENDBRANCH   6  10
TORSDOF 5
ENDMDL
MODEL 2
REMARK VINA RESULT:      -6.5      3.925      4.635
REMARK  Name = 
REMARK  6 active torsions:
REMARK  status: ('A' for Active; 'I' for Inactive)
REMARK    1  A    between atoms: C_1  and  C_2
REMARK    2  A    between atoms: C_4  and  O_5
REMARK    3  A    between atoms: C_7  and  S_8
REMARK    4  A    between atoms: S_8  and  C_9
REMARK    5  A    between atoms: C_9  and  C_10
REMARK    6  A    between atoms: C_10  and  C_12
REMARK                            x       y       z     vdW  Elec       q    Type
REMARK                         _______ _______ _______ _____ _____    ______ ____
ROOT
ATOM      1  C   UNL     1       5.307   2.873  12.275  0.00  0.00    +0.000 C 
ATOM      2  C   UNL     1       6.220   3.798  13.024  0.00  0.00    +0.000 A 
ATOM      3  C   UNL     1       7.128   4.590  12.356  0.00  0.00    +0.000 A 
ATOM      4  C   UNL     1       7.908   5.394  13.150  0.00  0.00    +0.000 A 
ATOM      5  N   UNL     1       7.834   5.444  14.482  0.00  0.00    +0.000 NA
ATOM      6  C   UNL     1       6.924   4.641  15.049  0.00  0.00    +0.000 A 
ATOM      7  N   UNL     1       6.108   3.815  14.369  0.00  0.00    +0.000 NA
ENDROOT
BRANCH   4   8
ATOM      8  O   UNL     1       8.844   6.223  12.605  0.00  0.00    +0.000 OA
ATOM      9  H   UNL     1       8.935   6.013  11.664  0.00  0.00    +0.000 HD
ENDBRANCH   4   8
BRANCH   6  10
ATOM     10  S   UNL     1       6.764   4.648  16.818  0.00  0.00    +0.000 S 
BRANCH  10  11
ATOM     11  C   UNL     1       5.057   4.027  16.982  0.00  0.00    +0.000 C 
BRANCH  11  12
ATOM     12  C   UNL     1       4.673   3.721  18.431  0.00  0.00    +0.000 C 
ATOM     13  O   UNL     1       5.507   3.700  19.339  0.00  0.00    +0.000 OA
BRANCH  12  14
ATOM     14  C   UNL     1       3.260   3.449  18.719  0.00  0.00    +0.000 A 
ATOM     15  C   UNL     1       2.428   2.592  18.017  0.00  0.00    +0.000 A 
ATOM     16  C   UNL     1       1.106   2.543  18.548  0.00  0.00    +0.000 A 
ATOM     17  C   UNL     1       0.964   3.368  19.640  0.00  0.00    +0.000 A 
ATOM     18  S   UNL     1       2.413   4.190  20.013  0.00  0.00    +0.000 S 
ENDBRANCH  12  14
ENDBRANCH  11  12
ENDBRANCH  10  11
ENDBRANCH   6  10
TORSDOF 5
ENDMDL
MODEL 3
REMARK VINA RESULT:      -6.4      1.468      1.730
REMARK  Name = 
REMARK  6 active torsions:
REMARK  status: ('A' for Active; 'I' for Inactive)
REMARK    1  A    between atoms: C_1  and  C_2
REMARK    2  A    between atoms: C_4  and  O_5
REMARK    3  A    between atoms: C_7  and  S_8
REMARK    4  A    between atoms: S_8  and  C_9
REMARK    5  A    between atoms: C_9  and  C_10
REMARK    6  A    between atoms: C_10  and  C_12
REMARK                            x       y       z     vdW  Elec       q    Type
REMARK                         _______ _______ _______ _____ _____    ______ ____
ROOT
ATOM      1  C   UNL     1       8.070   8.969  17.462  0.00  0.00    +0.000 C 
ATOM      2  C   UNL     1       7.797   7.548  17.860  0.00  0.00    +0.000 A 
ATOM      3  C   UNL     1       8.217   7.063  19.080  0.00  0.00    +0.000 A 
ATOM      4  C   UNL     1       7.909   5.749  19.331  0.00  0.00    +0.000 A 
ATOM      5  N   UNL     1       7.251   4.950  18.487  0.00  0.00    +0.000 NA
ATOM      6  C   UNL     1       6.881   5.503  17.325  0.00  0.00    +0.000 A 
ATOM      7  N   UNL     1       7.129   6.779  16.975  0.00  0.00    +0.000 NA
ENDROOT
BRANCH   4   8
ATOM      8  O   UNL     1       8.271   5.155  20.504  0.00  0.00    +0.000 OA
ATOM      9  H   UNL     1       9.159   5.457  20.745  0.00  0.00    +0.000 HD
ENDBRANCH   4   8
BRANCH   6  10
ATOM     10  S   UNL     1       6.003   4.506  16.147  0.00  0.00    +0.000 S 
BRANCH  10  11
ATOM     11  C   UNL     1       4.766   3.737  17.245  0.00  0.00    +0.000 C 
BRANCH  11  12
ATOM     12  C   UNL     1       3.683   4.718  17.698  0.00  0.00    +0.000 C 
ATOM     13  O   UNL     1       3.683   5.901  17.349  0.00  0.00    +0.000 OA
BRANCH  12  14
ATOM     14  C   UNL     1       2.622   4.206  18.574  0.00  0.00    +0.000 A 
ATOM     15  C   UNL     1       2.025   4.885  19.624  0.00  0.00    +0.000 A 
ATOM     16  C   UNL     1       1.022   4.116  20.283  0.00  0.00    +0.000 A 
ATOM     17  C   UNL     1       0.883   2.868  19.719  0.00  0.00    +0.000 A 
ATOM     18  S   UNL     1       1.956   2.635  18.411  0.00  0.00    +0.000 S 
ENDBRANCH  12  14
ENDBRANCH  11  12
ENDBRANCH  10  11
ENDBRANCH   6  10
TORSDOF 5
ENDMDL
MODEL 4
REMARK VINA RESULT:      -6.4      1.324      1.502
REMARK  Name = 
REMARK  6 active torsions:
REMARK  status: ('A' for Active; 'I' for Inactive)
REMARK    1  A    between atoms: C_1  and  C_2
REMARK    2  A    between atoms: C_4  and  O_5
REMARK    3  A    between atoms: C_7  and  S_8
REMARK    4  A    between atoms: S_8  and  C_9
REMARK    5  A    between atoms: C_9  and  C_10
REMARK    6  A    between atoms: C_10  and  C_12
REMARK                            x       y       z     vdW  Elec       q    Type
REMARK                         _______ _______ _______ _____ _____    ______ ____
ROOT
ATOM      1  C   UNL     1       8.184   9.422  17.579  0.00  0.00    +0.000 C 
ATOM      2  C   UNL     1       7.792   7.993  17.807  0.00  0.00    +0.000 A 
ATOM      3  C   UNL     1       8.318   7.275  18.859  0.00  0.00    +0.000 A 
ATOM      4  C   UNL     1       7.885   5.976  18.965  0.00  0.00    +0.000 A 
ATOM      5  N   UNL     1       7.014   5.399  18.134  0.00  0.00    +0.000 NA
ATOM      6  C   UNL     1       6.553   6.168  17.140  0.00  0.00    +0.000 A 
ATOM      7  N   UNL     1       6.909   7.451  16.942  0.00  0.00    +0.000 NA
ENDROOT
BRANCH   4   8
ATOM      8  O   UNL     1       8.334   5.165  19.965  0.00  0.00    +0.000 OA
ATOM      9  H   UNL     1       9.138   5.553  20.342  0.00  0.00    +0.000 HD
ENDBRANCH   4   8
BRANCH   6  10
ATOM     10  S   UNL     1       5.393   5.473  15.989  0.00  0.00    +0.000 S 
BRANCH  10  11
ATOM     11  C   UNL     1       4.414   4.429  17.121  0.00  0.00    +0.000 C 
BRANCH  11  12
ATOM     12  C   UNL     1       3.340   5.216  17.874  0.00  0.00    +0.000 C 
ATOM     13  O   UNL     1       3.226   6.439  17.765  0.00  0.00    +0.000 OA
BRANCH  12  14
ATOM     14  C   UNL     1       2.430   4.465  18.746  0.00  0.00    +0.000 A 
ATOM     15  C   UNL     1       1.572   3.448  18.358  0.00  0.00    +0.000 A 
ATOM     16  C   UNL     1       0.818   2.913  19.442  0.00  0.00    +0.000 A 
ATOM     17  C   UNL     1       1.118   3.539  20.630  0.00  0.00    +0.000 A 
ATOM     18  S   UNL     1       2.296   4.759  20.430  0.00  0.00    +0.000 S 
ENDBRANCH  12  14
ENDBRANCH  11  12
ENDBRANCH  10  11
ENDBRANCH   6  10
TORSDOF 5
ENDMDL
MODEL 5
REMARK VINA RESULT:      -6.3      3.805      4.530
REMARK  Name = 
REMARK  6 active torsions:
REMARK  status: ('A' for Active; 'I' for Inactive)
REMARK    1  A    between atoms: C_1  and  C_2
REMARK    2  A    between atoms: C_4  and  O_5
REMARK    3  A    between atoms: C_7  and  S_8
REMARK    4  A    between atoms: S_8  and  C_9
REMARK    5  A    between atoms: C_9  and  C_10
REMARK    6  A    between atoms: C_10  and  C_12
REMARK                            x       y       z     vdW  Elec       q    Type
REMARK                         _______ _______ _______ _____ _____    ______ ____
ROOT
ATOM      1  C   UNL     1       5.179   3.028  12.481  0.00  0.00    +0.000 C 
ATOM      2  C   UNL     1       6.106   3.914  13.260  0.00  0.00    +0.000 A 
ATOM      3  C   UNL     1       7.153   4.561  12.641  0.00  0.00    +0.000 A 
ATOM      4  C   UNL     1       7.931   5.343  13.459  0.00  0.00    +0.000 A 
ATOM      5  N   UNL     1       7.733   5.501  14.769  0.00  0.00    +0.000 NA
ATOM      6  C   UNL     1       6.693   4.836  15.288  0.00  0.00    +0.000 A 
ATOM      7  N   UNL     1       5.865   4.043  14.582  0.00  0.00    +0.000 NA
ENDROOT
BRANCH   4   8
ATOM      8  O   UNL     1       8.998   6.033  12.962  0.00  0.00    +0.000 OA
ATOM      9  H   UNL     1       9.708   6.023  13.620  0.00  0.00    +0.000 HD
ENDBRANCH   4   8
BRANCH   6  10
ATOM     10  S   UNL     1       6.362   4.992  17.027  0.00  0.00    +0.000 S 
BRANCH  10  11
ATOM     11  C   UNL     1       4.883   3.932  17.162  0.00  0.00    +0.000 C 
BRANCH  11  12
ATOM     12  C   UNL     1       4.520   3.602  18.611  0.00  0.00    +0.000 C 
ATOM     13  O   UNL     1       5.374   3.503  19.494  0.00  0.00    +0.000 OA
BRANCH  12  14
ATOM     14  C   UNL     1       3.101   3.404  18.930  0.00  0.00    +0.000 A 
ATOM     15  C   UNL     1       2.371   4.089  19.888  0.00  0.00    +0.000 A 
ATOM     16  C   UNL     1       1.011   3.668  19.956  0.00  0.00    +0.000 A 
ATOM     17  C   UNL     1       0.740   2.669  19.048  0.00  0.00    +0.000 A 
ATOM     18  S   UNL     1       2.118   2.250  18.130  0.00  0.00    +0.000 S 
ENDBRANCH  12  14
ENDBRANCH  11  12
ENDBRANCH  10  11
ENDBRANCH   6  10
TORSDOF 5
ENDMDL
MODEL 6
REMARK VINA RESULT:      -6.2      3.801      4.372
REMARK  Name = 
REMARK  6 active torsions:
REMARK  status: ('A' for Active; 'I' for Inactive)
REMARK    1  A    between atoms: C_1  and  C_2
REMARK    2  A    between atoms: C_4  and  O_5
REMARK    3  A    between atoms: C_7  and  S_8
REMARK    4  A    between atoms: S_8  and  C_9
REMARK    5  A    between atoms: C_9  and  C_10
REMARK    6  A    between atoms: C_10  and  C_12
REMARK                            x       y       z     vdW  Elec       q    Type
REMARK                         _______ _______ _______ _____ _____    ______ ____
ROOT
ATOM      1  C   UNL     1       5.392   3.021  12.045  0.00  0.00    +0.000 C 
ATOM      2  C   UNL     1       6.231   3.854  12.970  0.00  0.00    +0.000 A 
ATOM      3  C   UNL     1       7.261   4.630  12.484  0.00  0.00    +0.000 A 
ATOM      4  C   UNL     1       7.956   5.346  13.427  0.00  0.00    +0.000 A 
ATOM      5  N   UNL     1       7.695   5.329  14.736  0.00  0.00    +0.000 NA
ATOM      6  C   UNL     1       6.678   4.548  15.120  0.00  0.00    +0.000 A 
ATOM      7  N   UNL     1       5.929   3.805  14.285  0.00  0.00    +0.000 NA
ENDROOT
BRANCH   4   8
ATOM      8  O   UNL     1       8.998   6.151  13.069  0.00  0.00    +0.000 OA
ATOM      9  H   UNL     1       9.824   5.736  13.358  0.00  0.00    +0.000 HD
ENDBRANCH   4   8
BRANCH   6  10
ATOM     10  S   UNL     1       6.268   4.469  16.847  0.00  0.00    +0.000 S 
BRANCH  10  11
ATOM     11  C   UNL     1       4.549   5.078  16.790  0.00  0.00    +0.000 C 
BRANCH  11  12
ATOM     12  C   UNL     1       3.558   4.122  17.457  0.00  0.00    +0.000 C 
ATOM     13  O   UNL     1       3.357   2.984  17.028  0.00  0.00    +0.000 OA
BRANCH  12  14
ATOM     14  C   UNL     1       2.840   4.602  18.643  0.00  0.00    +0.000 A 
ATOM     15  C   UNL     1       2.081   3.834  19.512  0.00  0.00    +0.000 A 
ATOM     16  C   UNL     1       1.512   4.595  20.573  0.00  0.00    +0.000 A 
ATOM     17  C   UNL     1       1.848   5.926  20.485  0.00  0.00    +0.000 A 
ATOM     18  S   UNL     1       2.839   6.245  19.131  0.00  0.00    +0.000 S 
ENDBRANCH  12  14
ENDBRANCH  11  12
ENDBRANCH  10  11
ENDBRANCH   6  10
TORSDOF 5
ENDMDL
MODEL 7
REMARK VINA RESULT:      -6.2      1.775      2.037
REMARK  Name = 
REMARK  6 active torsions:
REMARK  status: ('A' for Active; 'I' for Inactive)
REMARK    1  A    between atoms: C_1  and  C_2
REMARK    2  A    between atoms: C_4  and  O_5
REMARK    3  A    between atoms: C_7  and  S_8
REMARK    4  A    between atoms: S_8  and  C_9
REMARK    5  A    between atoms: C_9  and  C_10
REMARK    6  A    between atoms: C_10  and  C_12
REMARK                            x       y       z     vdW  Elec       q    Type
REMARK                         _______ _______ _______ _____ _____    ______ ____
ROOT
ATOM      1  C   UNL     1       8.510   9.572  17.947  0.00  0.00    +0.000 C 
ATOM      2  C   UNL     1       8.007   8.161  18.019  0.00  0.00    +0.000 A 
ATOM      3  C   UNL     1       8.433   7.308  19.014  0.00  0.00    +0.000 A 
ATOM      4  C   UNL     1       7.903   6.042  18.975  0.00  0.00    +0.000 A 
ATOM      5  N   UNL     1       7.032   5.614  18.058  0.00  0.00    +0.000 NA
ATOM      6  C   UNL     1       6.673   6.507  17.128  0.00  0.00    +0.000 A 
ATOM      7  N   UNL     1       7.128   7.773  17.071  0.00  0.00    +0.000 NA
ENDROOT
BRANCH   4   8
ATOM      8  O   UNL     1       8.247   5.108  19.907  0.00  0.00    +0.000 OA
ATOM      9  H   UNL     1       8.253   5.527  20.781  0.00  0.00    +0.000 HD
ENDBRANCH   4   8
BRANCH   6  10
ATOM     10  S   UNL     1       5.519   6.014  15.871  0.00  0.00    +0.000 S 
BRANCH  10  11
ATOM     11  C   UNL     1       4.730   4.598  16.707  0.00  0.00    +0.000 C 
BRANCH  11  12
ATOM     12  C   UNL     1       3.525   5.007  17.556  0.00  0.00    +0.000 C 
ATOM     13  O   UNL     1       3.233   6.188  17.754  0.00  0.00    +0.000 OA
BRANCH  12  14
ATOM     14  C   UNL     1       2.707   3.936  18.140  0.00  0.00    +0.000 A 
ATOM     15  C   UNL     1       1.464   4.083  18.733  0.00  0.00    +0.000 A 
ATOM     16  C   UNL     1       0.924   2.850  19.202  0.00  0.00    +0.000 A 
ATOM     17  C   UNL     1       1.773   1.795  18.957  0.00  0.00    +0.000 A 
ATOM     18  S   UNL     1       3.204   2.296  18.171  0.00  0.00    +0.000 S 
ENDBRANCH  12  14
ENDBRANCH  11  12
ENDBRANCH  10  11
ENDBRANCH   6  10
TORSDOF 5
ENDMDL
MODEL 8
REMARK VINA RESULT:      -6.2      3.859      4.522
REMARK  Name = 
REMARK  6 active torsions:
REMARK  status: ('A' for Active; 'I' for Inactive)
REMARK    1  A    between atoms: C_1  and  C_2
REMARK    2  A    between atoms: C_4  and  O_5
REMARK    3  A    between atoms: C_7  and  S_8
REMARK    4  A    between atoms: S_8  and  C_9
REMARK    5  A    between atoms: C_9  and  C_10
REMARK    6  A    between atoms: C_10  and  C_12
REMARK                            x       y       z     vdW  Elec       q    Type
REMARK                         _______ _______ _______ _____ _____    ______ ____
ROOT
ATOM      1  C   UNL     1       5.411   3.095  12.023  0.00  0.00    +0.000 C 
ATOM      2  C   UNL     1       6.233   3.908  12.979  0.00  0.00    +0.000 A 
ATOM      3  C   UNL     1       7.299   4.659  12.534  0.00  0.00    +0.000 A 
ATOM      4  C   UNL     1       7.975   5.360  13.502  0.00  0.00    +0.000 A 
ATOM      5  N   UNL     1       7.663   5.350  14.801  0.00  0.00    +0.000 NA
ATOM      6  C   UNL     1       6.614   4.593  15.146  0.00  0.00    +0.000 A 
ATOM      7  N   UNL     1       5.880   3.867  14.282  0.00  0.00    +0.000 NA
ENDROOT
BRANCH   4   8
ATOM      8  O   UNL     1       9.048   6.140  13.185  0.00  0.00    +0.000 OA
ATOM      9  H   UNL     1       8.995   6.373  12.246  0.00  0.00    +0.000 HD
ENDBRANCH   4   8
BRANCH   6  10
ATOM     10  S   UNL     1       6.137   4.525  16.855  0.00  0.00    +0.000 S 
BRANCH  10  11
ATOM     11  C   UNL     1       4.401   3.991  16.676  0.00  0.00    +0.000 C 
BRANCH  11  12
ATOM     12  C   UNL     1       3.808   3.454  17.980  0.00  0.00    +0.000 C 
ATOM     13  O   UNL     1       3.893   2.266  18.299  0.00  0.00    +0.000 OA
BRANCH  12  14
ATOM     14  C   UNL     1       3.123   4.408  18.861  0.00  0.00    +0.000 A 
ATOM     15  C   UNL     1       3.162   5.790  18.764  0.00  0.00    +0.000 A 
ATOM     16  C   UNL     1       2.387   6.438  19.769  0.00  0.00    +0.000 A 
ATOM     17  C   UNL     1       1.780   5.533  20.609  0.00  0.00    +0.000 A 
ATOM     18  S   UNL     1       2.148   3.920  20.183  0.00  0.00    +0.000 S 
ENDBRANCH  12  14
ENDBRANCH  11  12
ENDBRANCH  10  11
ENDBRANCH   6  10
TORSDOF 5
ENDMDL
MODEL 9
REMARK VINA RESULT:      -6.1      2.772      6.092
REMARK  Name = 
REMARK  6 active torsions:
REMARK  status: ('A' for Active; 'I' for Inactive)
REMARK    1  A    between atoms: C_1  and  C_2
REMARK    2  A    between atoms: C_4  and  O_5
REMARK    3  A    between atoms: C_7  and  S_8
REMARK    4  A    between atoms: S_8  and  C_9
REMARK    5  A    between atoms: C_9  and  C_10
REMARK    6  A    between atoms: C_10  and  C_12
REMARK                            x       y       z     vdW  Elec       q    Type
REMARK                         _______ _______ _______ _____ _____    ______ ____
ROOT
ATOM      1  C   UNL     1       0.858   3.596  20.056  0.00  0.00    +0.000 C 
ATOM      2  C   UNL     1       2.336   3.522  19.811  0.00  0.00    +0.000 A 
ATOM      3  C   UNL     1       3.081   2.468  20.292  0.00  0.00    +0.000 A 
ATOM      4  C   UNL     1       4.423   2.512  20.005  0.00  0.00    +0.000 A 
ATOM      5  N   UNL     1       5.017   3.485  19.311  0.00  0.00    +0.000 NA
ATOM      6  C   UNL     1       4.219   4.471  18.882  0.00  0.00    +0.000 A 
ATOM      7  N   UNL     1       2.893   4.529  19.105  0.00  0.00    +0.000 NA
ENDROOT
BRANCH   4   8
ATOM      8  O   UNL     1       5.264   1.524  20.426  0.00  0.00    +0.000 OA
ATOM      9  H   UNL     1       5.196   1.448  21.390  0.00  0.00    +0.000 HD
ENDBRANCH   4   8
BRANCH   6  10
ATOM     10  S   UNL     1       4.934   5.806  17.954  0.00  0.00    +0.000 S 
BRANCH  10  11
ATOM     11  C   UNL     1       6.682   5.630  18.446  0.00  0.00    +0.000 C 
BRANCH  11  12
ATOM     12  C   UNL     1       7.468   4.698  17.522  0.00  0.00    +0.000 C 
ATOM     13  O   UNL     1       8.453   4.067  17.912  0.00  0.00    +0.000 OA
BRANCH  12  14
ATOM     14  C   UNL     1       7.011   4.571  16.133  0.00  0.00    +0.000 A 
ATOM     15  C   UNL     1       7.505   5.262  15.039  0.00  0.00    +0.000 A 
ATOM     16  C   UNL     1       6.852   4.913  13.821  0.00  0.00    +0.000 A 
ATOM     17  C   UNL     1       5.874   3.965  14.020  0.00  0.00    +0.000 A 
ATOM     18  S   UNL     1       5.750   3.510  15.661  0.00  0.00    +0.000 S 
ENDBRANCH  12  14
ENDBRANCH  11  12
ENDBRANCH  10  11
ENDBRANCH   6  10
TORSDOF 5
ENDMDL
