MODEL 1
REMARK VINA RESULT:      -7.9      0.000      0.000
REMARK  Name = 
REMARK  8 active torsions:
REMARK  status: ('A' for Active; 'I' for Inactive)
REMARK    1  A    between atoms: C_1  and  O_2
REMARK    2  A    between atoms: O_2  and  C_3
REMARK    3  A    between atoms: C_6  and  O_7
REMARK    4  A    between atoms: O_7  and  C_8
REMARK    5  A    between atoms: C_10  and  N_11
REMARK    6  A    between atoms: C_14  and  O_15
REMARK    7  A    between atoms: O_15  and  C_16
REMARK    8  A    between atoms: C_21  and  N_22
REMARK                            x       y       z     vdW  Elec       q    Type
REMARK                         _______ _______ _______ _____ _____    ______ ____
ROOT
ATOM      1  N   UNL     1       2.040   7.327  19.955  0.00  0.00    +0.000 N 
ATOM      2  C   UNL     1       2.794   7.461  18.713  0.00  0.00    +0.000 C 
ATOM      3  C   UNL     1       2.434   6.317  17.778  0.00  0.00    +0.000 C 
ATOM      4  C   UNL     1       2.668   4.962  18.459  0.00  0.00    +0.000 C 
ATOM      5  C   UNL     1       1.863   4.905  19.767  0.00  0.00    +0.000 C 
ATOM      6  C   UNL     1       2.192   6.081  20.693  0.00  0.00    +0.000 C 
ENDROOT
BRANCH   1   9
ATOM      7  C   UNL     1       0.072  10.381  20.095  0.00  0.00    +0.000 A 
ATOM      8  C   UNL     1       0.810   9.363  19.530  0.00  0.00    +0.000 A 
ATOM      9  C   UNL     1       1.307   8.407  20.392  0.00  0.00    +0.000 A 
ATOM     10  N   UNL     1       1.091   8.504  21.718  0.00  0.00    +0.000 NA
ATOM     11  C   UNL     1       0.363   9.533  22.163  0.00  0.00    +0.000 A 
ATOM     12  N   UNL     1      -0.192  10.476  21.408  0.00  0.00    +0.000 NA
BRANCH   7  13
ATOM     13  O   UNL     1      -0.426  11.355  19.234  0.00  0.00    +0.000 OA
BRANCH  13  17
ATOM     14  C   UNL     1      -4.472  11.161  18.217  0.00  0.00    +0.000 A 
ATOM     15  C   UNL     1      -3.582  10.246  17.660  0.00  0.00    +0.000 A 
ATOM     16  C   UNL     1      -2.235  10.269  18.016  0.00  0.00    +0.000 A 
ATOM     17  C   UNL     1      -1.754  11.257  18.879  0.00  0.00    +0.000 A 
ATOM     18  C   UNL     1      -2.644  12.166  19.450  0.00  0.00    +0.000 A 
ATOM     19  C   UNL     1      -4.007  12.121  19.118  0.00  0.00    +0.000 A 
BRANCH  14  21
ATOM     20  C   UNL     1      -6.667  10.433  18.670  0.00  0.00    +0.000 C 
ATOM     21  O   UNL     1      -5.760  11.053  17.769  0.00  0.00    +0.000 OA
ENDBRANCH  14  21
ENDBRANCH  13  17
ENDBRANCH   7  13
ENDBRANCH   1   9
BRANCH   4  22
ATOM     22  O   UNL     1       4.046   4.766  18.808  0.00  0.00    +0.000 OA
BRANCH  22  23
ATOM     23  C   UNL     1       4.904   4.829  17.735  0.00  0.00    +0.000 A 
ATOM     24  N   UNL     1       4.762   3.841  16.838  0.00  0.00    +0.000 NA
ATOM     25  C   UNL     1       5.638   3.855  15.815  0.00  0.00    +0.000 A 
ATOM     26  C   UNL     1       6.636   4.790  15.692  0.00  0.00    +0.000 A 
ATOM     27  F   UNL     1       7.501   4.754  14.669  0.00  0.00    +0.000 F 
ATOM     28  C   UNL     1       6.714   5.746  16.689  0.00  0.00    +0.000 A 
ATOM     29  N   UNL     1       5.848   5.784  17.710  0.00  0.00    +0.000 NA
BRANCH  28  30
ATOM     30  N   UNL     1       7.667   6.767  16.651  0.00  0.00    +0.000 N 
ATOM     31  H   UNL     1       8.478   6.560  17.224  0.00  0.00    +0.000 HD
ATOM     32  H   UNL     1       7.215   7.643  16.903  0.00  0.00    +0.000 HD
ENDBRANCH  28  30
ENDBRANCH  22  23
ENDBRANCH   4  22
TORSDOF 7
ENDMDL
MODEL 2
REMARK VINA RESULT:      -7.8      1.061      1.644
REMARK  Name = 
REMARK  8 active torsions:
REMARK  status: ('A' for Active; 'I' for Inactive)
REMARK    1  A    between atoms: C_1  and  O_2
REMARK    2  A    between atoms: O_2  and  C_3
REMARK    3  A    between atoms: C_6  and  O_7
REMARK    4  A    between atoms: O_7  and  C_8
REMARK    5  A    between atoms: C_10  and  N_11
REMARK    6  A    between atoms: C_14  and  O_15
REMARK    7  A    between atoms: O_15  and  C_16
REMARK    8  A    between atoms: C_21  and  N_22
REMARK                            x       y       z     vdW  Elec       q    Type
REMARK                         _______ _______ _______ _____ _____    ______ ____
ROOT
ATOM      1  N   UNL     1       2.167   6.827  19.989  0.00  0.00    +0.000 N 
ATOM      2  C   UNL     1       3.101   6.838  18.867  0.00  0.00    +0.000 C 
ATOM      3  C   UNL     1       2.693   5.772  17.862  0.00  0.00    +0.000 C 
ATOM      4  C   UNL     1       2.603   4.395  18.533  0.00  0.00    +0.000 C 
ATOM      5  C   UNL     1       1.624   4.468  19.714  0.00  0.00    +0.000 C 
ATOM      6  C   UNL     1       2.008   5.571  20.708  0.00  0.00    +0.000 C 
ENDROOT
BRANCH   1   9
ATOM      7  C   UNL     1       0.570  10.093  19.914  0.00  0.00    +0.000 A 
ATOM      8  C   UNL     1       1.182   8.959  19.422  0.00  0.00    +0.000 A 
ATOM      9  C   UNL     1       1.567   8.012  20.349  0.00  0.00    +0.000 A 
ATOM     10  N   UNL     1       1.368   8.224  21.664  0.00  0.00    +0.000 NA
ATOM     11  C   UNL     1       0.767   9.358  22.035  0.00  0.00    +0.000 A 
ATOM     12  N   UNL     1       0.323  10.306  21.216  0.00  0.00    +0.000 NA
BRANCH   7  13
ATOM     13  O   UNL     1       0.186  11.057  18.986  0.00  0.00    +0.000 OA
BRANCH  13  17
ATOM     14  C   UNL     1      -3.791  10.943  17.715  0.00  0.00    +0.000 A 
ATOM     15  C   UNL     1      -3.413  11.854  18.698  0.00  0.00    +0.000 A 
ATOM     16  C   UNL     1      -2.083  11.935  19.108  0.00  0.00    +0.000 A 
ATOM     17  C   UNL     1      -1.134  11.052  18.588  0.00  0.00    +0.000 A 
ATOM     18  C   UNL     1      -1.505  10.148  17.594  0.00  0.00    +0.000 A 
ATOM     19  C   UNL     1      -2.838  10.090  17.155  0.00  0.00    +0.000 A 
BRANCH  14  21
ATOM     20  C   UNL     1      -5.739  12.223  17.368  0.00  0.00    +0.000 C 
ATOM     21  O   UNL     1      -5.126  10.942  17.418  0.00  0.00    +0.000 OA
ENDBRANCH  14  21
ENDBRANCH  13  17
ENDBRANCH   7  13
ENDBRANCH   1   9
BRANCH   4  22
ATOM     22  O   UNL     1       3.867   3.972  19.064  0.00  0.00    +0.000 OA
BRANCH  22  23
ATOM     23  C   UNL     1       4.909   4.088  18.174  0.00  0.00    +0.000 A 
ATOM     24  N   UNL     1       6.063   4.520  18.705  0.00  0.00    +0.000 NA
ATOM     25  C   UNL     1       7.074   4.698  17.832  0.00  0.00    +0.000 A 
ATOM     26  C   UNL     1       6.948   4.486  16.482  0.00  0.00    +0.000 A 
ATOM     27  F   UNL     1       7.973   4.696  15.645  0.00  0.00    +0.000 F 
ATOM     28  C   UNL     1       5.706   4.072  16.034  0.00  0.00    +0.000 A 
ATOM     29  N   UNL     1       4.681   3.858  16.870  0.00  0.00    +0.000 NA
BRANCH  28  30
ATOM     30  N   UNL     1       5.470   3.792  14.686  0.00  0.00    +0.000 N 
ATOM     31  H   UNL     1       4.609   3.274  14.544  0.00  0.00    +0.000 HD
ATOM     32  H   UNL     1       6.285   3.321  14.303  0.00  0.00    +0.000 HD
ENDBRANCH  28  30
ENDBRANCH  22  23
ENDBRANCH   4  22
TORSDOF 7
ENDMDL
MODEL 3
REMARK VINA RESULT:      -7.7      4.144      9.443
REMARK  Name = 
REMARK  8 active torsions:
REMARK  status: ('A' for Active; 'I' for Inactive)
REMARK    1  A    between atoms: C_1  and  O_2
REMARK    2  A    between atoms: O_2  and  C_3
REMARK    3  A    between atoms: C_6  and  O_7
REMARK    4  A    between atoms: O_7  and  C_8
REMARK    5  A    between atoms: C_10  and  N_11
REMARK    6  A    between atoms: C_14  and  O_15
REMARK    7  A    between atoms: O_15  and  C_16
REMARK    8  A    between atoms: C_21  and  N_22
REMARK                            x       y       z     vdW  Elec       q    Type
REMARK                         _______ _______ _______ _____ _____    ______ ____
ROOT
ATOM      1  N   UNL     1       2.069   7.681  19.647  0.00  0.00    +0.000 N 
ATOM      2  C   UNL     1       1.546   8.485  20.748  0.00  0.00    +0.000 C 
ATOM      3  C   UNL     1       0.303   9.229  20.282  0.00  0.00    +0.000 C 
ATOM      4  C   UNL     1       0.606  10.071  19.037  0.00  0.00    +0.000 C 
ATOM      5  C   UNL     1       1.174   9.164  17.934  0.00  0.00    +0.000 C 
ATOM      6  C   UNL     1       2.401   8.380  18.414  0.00  0.00    +0.000 C 
ENDROOT
BRANCH   1   9
ATOM      7  C   UNL     1       3.582   4.379  19.813  0.00  0.00    +0.000 A 
ATOM      8  C   UNL     1       3.474   5.721  19.513  0.00  0.00    +0.000 A 
ATOM      9  C   UNL     1       2.295   6.343  19.870  0.00  0.00    +0.000 A 
ATOM     10  N   UNL     1       1.305   5.643  20.457  0.00  0.00    +0.000 NA
ATOM     11  C   UNL     1       1.512   4.346  20.703  0.00  0.00    +0.000 A 
ATOM     12  N   UNL     1       2.626   3.672  20.435  0.00  0.00    +0.000 NA
BRANCH   7  13
ATOM     13  O   UNL     1       4.764   3.742  19.448  0.00  0.00    +0.000 OA
BRANCH  13  17
ATOM     14  C   UNL     1       6.780   5.176  16.084  0.00  0.00    +0.000 A 
ATOM     15  C   UNL     1       5.626   4.416  15.916  0.00  0.00    +0.000 A 
ATOM     16  C   UNL     1       4.917   3.961  17.027  0.00  0.00    +0.000 A 
ATOM     17  C   UNL     1       5.400   4.203  18.315  0.00  0.00    +0.000 A 
ATOM     18  C   UNL     1       6.547   4.976  18.487  0.00  0.00    +0.000 A 
ATOM     19  C   UNL     1       7.243   5.464  17.369  0.00  0.00    +0.000 A 
BRANCH  14  21
ATOM     20  C   UNL     1       7.047   4.774  13.777  0.00  0.00    +0.000 C 
ATOM     21  O   UNL     1       7.399   5.541  14.919  0.00  0.00    +0.000 OA
ENDBRANCH  14  21
ENDBRANCH  13  17
ENDBRANCH   7  13
ENDBRANCH   1   9
BRANCH   4  22
ATOM     22  O   UNL     1       1.594  11.080  19.297  0.00  0.00    +0.000 OA
BRANCH  22  23
ATOM     23  C   UNL     1       1.130  12.364  19.137  0.00  0.00    +0.000 A 
ATOM     24  N   UNL     1       2.049  13.251  18.725  0.00  0.00    +0.000 NA
ATOM     25  C   UNL     1       1.622  14.526  18.626  0.00  0.00    +0.000 A 
ATOM     26  C   UNL     1       0.347  14.920  18.946  0.00  0.00    +0.000 A 
ATOM     27  F   UNL     1      -0.030  16.202  18.853  0.00  0.00    +0.000 F 
ATOM     28  C   UNL     1      -0.512  13.931  19.391  0.00  0.00    +0.000 A 
ATOM     29  N   UNL     1      -0.138  12.647  19.481  0.00  0.00    +0.000 NA
BRANCH  28  30
ATOM     30  N   UNL     1      -1.843  14.207  19.713  0.00  0.00    +0.000 N 
ATOM     31  H   UNL     1      -2.185  15.046  19.257  0.00  0.00    +0.000 HD
ATOM     32  H   UNL     1      -1.933  14.241  20.725  0.00  0.00    +0.000 HD
ENDBRANCH  28  30
ENDBRANCH  22  23
ENDBRANCH   4  22
TORSDOF 7
ENDMDL
MODEL 4
REMARK VINA RESULT:      -7.7      1.829      2.747
REMARK  Name = 
REMARK  8 active torsions:
REMARK  status: ('A' for Active; 'I' for Inactive)
REMARK    1  A    between atoms: C_1  and  O_2
REMARK    2  A    between atoms: O_2  and  C_3
REMARK    3  A    between atoms: C_6  and  O_7
REMARK    4  A    between atoms: O_7  and  C_8
REMARK    5  A    between atoms: C_10  and  N_11
REMARK    6  A    between atoms: C_14  and  O_15
REMARK    7  A    between atoms: O_15  and  C_16
REMARK    8  A    between atoms: C_21  and  N_22
REMARK                            x       y       z     vdW  Elec       q    Type
REMARK                         _______ _______ _______ _____ _____    ______ ____
ROOT
ATOM      1  N   UNL     1       3.732   6.580  18.182  0.00  0.00    +0.000 N 
ATOM      2  C   UNL     1       4.224   5.413  18.908  0.00  0.00    +0.000 C 
ATOM      3  C   UNL     1       5.745   5.426  18.912  0.00  0.00    +0.000 C 
ATOM      4  C   UNL     1       6.294   5.498  17.481  0.00  0.00    +0.000 C 
ATOM      5  C   UNL     1       5.716   6.734  16.775  0.00  0.00    +0.000 C 
ATOM      6  C   UNL     1       4.183   6.745  16.807  0.00  0.00    +0.000 C 
ENDROOT
BRANCH   1   9
ATOM      7  C   UNL     1       1.458   9.303  18.977  0.00  0.00    +0.000 A 
ATOM      8  C   UNL     1       2.399   8.593  18.262  0.00  0.00    +0.000 A 
ATOM      9  C   UNL     1       2.816   7.396  18.805  0.00  0.00    +0.000 A 
ATOM     10  N   UNL     1       2.333   6.979  19.992  0.00  0.00    +0.000 NA
ATOM     11  C   UNL     1       1.425   7.745  20.605  0.00  0.00    +0.000 A 
ATOM     12  N   UNL     1       0.931   8.888  20.140  0.00  0.00    +0.000 NA
BRANCH   7  13
ATOM     13  O   UNL     1       1.038  10.517  18.440  0.00  0.00    +0.000 OA
BRANCH  13  17
ATOM     14  C   UNL     1      -3.054  11.352  18.480  0.00  0.00    +0.000 A 
ATOM     15  C   UNL     1      -2.568  10.354  17.639  0.00  0.00    +0.000 A 
ATOM     16  C   UNL     1      -1.212  10.034  17.639  0.00  0.00    +0.000 A 
ATOM     17  C   UNL     1      -0.319  10.761  18.430  0.00  0.00    +0.000 A 
ATOM     18  C   UNL     1      -0.803  11.751  19.284  0.00  0.00    +0.000 A 
ATOM     19  C   UNL     1      -2.175  12.050  19.310  0.00  0.00    +0.000 A 
BRANCH  14  21
ATOM     20  C   UNL     1      -4.953  11.348  17.085  0.00  0.00    +0.000 C 
ATOM     21  O   UNL     1      -4.396  11.591  18.369  0.00  0.00    +0.000 OA
ENDBRANCH  14  21
ENDBRANCH  13  17
ENDBRANCH   7  13
ENDBRANCH   1   9
BRANCH   4  22
ATOM     22  O   UNL     1       5.913   4.355  16.701  0.00  0.00    +0.000 OA
BRANCH  22  23
ATOM     23  C   UNL     1       6.273   4.443  15.377  0.00  0.00    +0.000 A 
ATOM     24  N   UNL     1       5.532   3.703  14.537  0.00  0.00    +0.000 NA
ATOM     25  C   UNL     1       5.915   3.731  13.246  0.00  0.00    +0.000 A 
ATOM     26  C   UNL     1       7.004   4.437  12.799  0.00  0.00    +0.000 A 
ATOM     27  F   UNL     1       7.363   4.420  11.508  0.00  0.00    +0.000 F 
ATOM     28  C   UNL     1       7.719   5.140  13.752  0.00  0.00    +0.000 A 
ATOM     29  N   UNL     1       7.359   5.161  15.042  0.00  0.00    +0.000 NA
BRANCH  28  30
ATOM     30  N   UNL     1       8.825   5.922  13.409  0.00  0.00    +0.000 N 
ATOM     31  H   UNL     1       8.558   6.838  13.064  0.00  0.00    +0.000 HD
ATOM     32  H   UNL     1       9.400   5.401  12.752  0.00  0.00    +0.000 HD
ENDBRANCH  28  30
ENDBRANCH  22  23
ENDBRANCH   4  22
TORSDOF 7
ENDMDL
MODEL 5
REMARK VINA RESULT:      -7.7      4.039      9.397
REMARK  Name = 
REMARK  8 active torsions:
REMARK  status: ('A' for Active; 'I' for Inactive)
REMARK    1  A    between atoms: C_1  and  O_2
REMARK    2  A    between atoms: O_2  and  C_3
REMARK    3  A    between atoms: C_6  and  O_7
REMARK    4  A    between atoms: O_7  and  C_8
REMARK    5  A    between atoms: C_10  and  N_11
REMARK    6  A    between atoms: C_14  and  O_15
REMARK    7  A    between atoms: O_15  and  C_16
REMARK    8  A    between atoms: C_21  and  N_22
REMARK                            x       y       z     vdW  Elec       q    Type
REMARK                         _______ _______ _______ _____ _____    ______ ____
ROOT
ATOM      1  N   UNL     1       2.065   7.581  19.755  0.00  0.00    +0.000 N 
ATOM      2  C   UNL     1       1.586   8.299  20.933  0.00  0.00    +0.000 C 
ATOM      3  C   UNL     1       0.288   9.016  20.592  0.00  0.00    +0.000 C 
ATOM      4  C   UNL     1       0.477   9.940  19.382  0.00  0.00    +0.000 C 
ATOM      5  C   UNL     1       1.004   9.121  18.194  0.00  0.00    +0.000 C 
ATOM      6  C   UNL     1       2.288   8.362  18.548  0.00  0.00    +0.000 C 
ENDROOT
BRANCH   1   9
ATOM      7  C   UNL     1       3.763   4.366  19.783  0.00  0.00    +0.000 A 
ATOM      8  C   UNL     1       3.598   5.721  19.589  0.00  0.00    +0.000 A 
ATOM      9  C   UNL     1       2.355   6.242  19.883  0.00  0.00    +0.000 A 
ATOM     10  N   UNL     1       1.361   5.438  20.309  0.00  0.00    +0.000 NA
ATOM     11  C   UNL     1       1.627   4.137  20.462  0.00  0.00    +0.000 A 
ATOM     12  N   UNL     1       2.802   3.553  20.247  0.00  0.00    +0.000 NA
BRANCH   7  13
ATOM     13  O   UNL     1       5.013   3.832  19.481  0.00  0.00    +0.000 OA
BRANCH  13  17
ATOM     14  C   UNL     1       6.819   4.973  15.892  0.00  0.00    +0.000 A 
ATOM     15  C   UNL     1       5.586   4.327  15.862  0.00  0.00    +0.000 A 
ATOM     16  C   UNL     1       4.948   3.972  17.049  0.00  0.00    +0.000 A 
ATOM     17  C   UNL     1       5.576   4.199  18.277  0.00  0.00    +0.000 A 
ATOM     18  C   UNL     1       6.804   4.858  18.312  0.00  0.00    +0.000 A 
ATOM     19  C   UNL     1       7.430   5.246  17.117  0.00  0.00    +0.000 A 
BRANCH  14  21
ATOM     20  C   UNL     1       6.843   4.463  13.591  0.00  0.00    +0.000 C 
ATOM     21  O   UNL     1       7.353   5.245  14.662  0.00  0.00    +0.000 OA
ENDBRANCH  14  21
ENDBRANCH  13  17
ENDBRANCH   7  13
ENDBRANCH   1   9
BRANCH   4  22
ATOM     22  O   UNL     1       1.442  10.971  19.638  0.00  0.00    +0.000 OA
BRANCH  22  23
ATOM     23  C   UNL     1       0.965  12.243  19.419  0.00  0.00    +0.000 A 
ATOM     24  N   UNL     1      -0.373  12.351  19.400  0.00  0.00    +0.000 NA
ATOM     25  C   UNL     1      -0.852  13.579  19.124  0.00  0.00    +0.000 A 
ATOM     26  C   UNL     1      -0.048  14.656  18.847  0.00  0.00    +0.000 A 
ATOM     27  F   UNL     1      -0.567  15.856  18.555  0.00  0.00    +0.000 F 
ATOM     28  C   UNL     1       1.317  14.429  18.860  0.00  0.00    +0.000 A 
ATOM     29  N   UNL     1       1.837  13.230  19.155  0.00  0.00    +0.000 NA
BRANCH  28  30
ATOM     30  N   UNL     1       2.233  15.457  18.627  0.00  0.00    +0.000 N 
ATOM     31  H   UNL     1       3.186  15.181  18.841  0.00  0.00    +0.000 HD
ATOM     32  H   UNL     1       1.934  16.282  19.140  0.00  0.00    +0.000 HD
ENDBRANCH  28  30
ENDBRANCH  22  23
ENDBRANCH   4  22
TORSDOF 7
ENDMDL
MODEL 6
REMARK VINA RESULT:      -7.7      4.161      9.675
REMARK  Name = 
REMARK  8 active torsions:
REMARK  status: ('A' for Active; 'I' for Inactive)
REMARK    1  A    between atoms: C_1  and  O_2
REMARK    2  A    between atoms: O_2  and  C_3
REMARK    3  A    between atoms: C_6  and  O_7
REMARK    4  A    between atoms: O_7  and  C_8
REMARK    5  A    between atoms: C_10  and  N_11
REMARK    6  A    between atoms: C_14  and  O_15
REMARK    7  A    between atoms: O_15  and  C_16
REMARK    8  A    between atoms: C_21  and  N_22
REMARK                            x       y       z     vdW  Elec       q    Type
REMARK                         _______ _______ _______ _____ _____    ______ ____
ROOT
ATOM      1  N   UNL     1       2.059   7.681  19.693  0.00  0.00    +0.000 N 
ATOM      2  C   UNL     1       1.564   8.383  20.872  0.00  0.00    +0.000 C 
ATOM      3  C   UNL     1       0.251   9.074  20.533  0.00  0.00    +0.000 C 
ATOM      4  C   UNL     1       0.421  10.006  19.327  0.00  0.00    +0.000 C 
ATOM      5  C   UNL     1       0.967   9.203  18.136  0.00  0.00    +0.000 C 
ATOM      6  C   UNL     1       2.267   8.472  18.488  0.00  0.00    +0.000 C 
ENDROOT
BRANCH   1   9
ATOM      7  C   UNL     1       3.827   4.504  19.701  0.00  0.00    +0.000 A 
ATOM      8  C   UNL     1       3.631   5.855  19.512  0.00  0.00    +0.000 A 
ATOM      9  C   UNL     1       2.379   6.348  19.815  0.00  0.00    +0.000 A 
ATOM     10  N   UNL     1       1.406   5.522  20.245  0.00  0.00    +0.000 NA
ATOM     11  C   UNL     1       1.700   4.227  20.393  0.00  0.00    +0.000 A 
ATOM     12  N   UNL     1       2.885   3.669  20.169  0.00  0.00    +0.000 NA
BRANCH   7  13
ATOM     13  O   UNL     1       5.085   3.996  19.390  0.00  0.00    +0.000 OA
BRANCH  13  17
ATOM     14  C   UNL     1       6.528   4.537  15.508  0.00  0.00    +0.000 A 
ATOM     15  C   UNL     1       5.247   4.024  15.696  0.00  0.00    +0.000 A 
ATOM     16  C   UNL     1       4.733   3.873  16.982  0.00  0.00    +0.000 A 
ATOM     17  C   UNL     1       5.525   4.167  18.094  0.00  0.00    +0.000 A 
ATOM     18  C   UNL     1       6.803   4.694  17.910  0.00  0.00    +0.000 A 
ATOM     19  C   UNL     1       7.309   4.879  16.614  0.00  0.00    +0.000 A 
BRANCH  14  21
ATOM     20  C   UNL     1       6.219   3.778  13.298  0.00  0.00    +0.000 C 
ATOM     21  O   UNL     1       6.928   4.614  14.202  0.00  0.00    +0.000 OA
ENDBRANCH  14  21
ENDBRANCH  13  17
ENDBRANCH   7  13
ENDBRANCH   1   9
BRANCH   4  22
ATOM     22  O   UNL     1       1.362  11.057  19.588  0.00  0.00    +0.000 OA
BRANCH  22  23
ATOM     23  C   UNL     1       0.791  12.198  20.102  0.00  0.00    +0.000 A 
ATOM     24  N   UNL     1       1.545  12.856  20.996  0.00  0.00    +0.000 NA
ATOM     25  C   UNL     1       0.971  13.940  21.554  0.00  0.00    +0.000 A 
ATOM     26  C   UNL     1      -0.308  14.347  21.266  0.00  0.00    +0.000 A 
ATOM     27  F   UNL     1      -0.848  15.419  21.861  0.00  0.00    +0.000 F 
ATOM     28  C   UNL     1      -1.011  13.578  20.355  0.00  0.00    +0.000 A 
ATOM     29  N   UNL     1      -0.470  12.508  19.757  0.00  0.00    +0.000 NA
BRANCH  28  30
ATOM     30  N   UNL     1      -2.308  13.915  19.959  0.00  0.00    +0.000 N 
ATOM     31  H   UNL     1      -2.342  14.797  19.459  0.00  0.00    +0.000 HD
ATOM     32  H   UNL     1      -2.912  13.897  20.777  0.00  0.00    +0.000 HD
ENDBRANCH  28  30
ENDBRANCH  22  23
ENDBRANCH   4  22
TORSDOF 7
ENDMDL
MODEL 7
REMARK VINA RESULT:      -7.6      4.244      9.637
REMARK  Name = 
REMARK  8 active torsions:
REMARK  status: ('A' for Active; 'I' for Inactive)
REMARK    1  A    between atoms: C_1  and  O_2
REMARK    2  A    between atoms: O_2  and  C_3
REMARK    3  A    between atoms: C_6  and  O_7
REMARK    4  A    between atoms: O_7  and  C_8
REMARK    5  A    between atoms: C_10  and  N_11
REMARK    6  A    between atoms: C_14  and  O_15
REMARK    7  A    between atoms: O_15  and  C_16
REMARK    8  A    between atoms: C_21  and  N_22
REMARK                            x       y       z     vdW  Elec       q    Type
REMARK                         _______ _______ _______ _____ _____    ______ ____
ROOT
ATOM      1  N   UNL     1       2.033   7.618  19.678  0.00  0.00    +0.000 N 
ATOM      2  C   UNL     1       1.557   8.314  20.870  0.00  0.00    +0.000 C 
ATOM      3  C   UNL     1       0.269   9.054  20.540  0.00  0.00    +0.000 C 
ATOM      4  C   UNL     1       0.474  10.003  19.353  0.00  0.00    +0.000 C 
ATOM      5  C   UNL     1       0.997   9.205  18.148  0.00  0.00    +0.000 C 
ATOM      6  C   UNL     1       2.271   8.424  18.490  0.00  0.00    +0.000 C 
ENDROOT
BRANCH   1   9
ATOM      7  C   UNL     1       3.709   4.392  19.702  0.00  0.00    +0.000 A 
ATOM      8  C   UNL     1       3.564   5.754  19.547  0.00  0.00    +0.000 A 
ATOM      9  C   UNL     1       2.307   6.273  19.776  0.00  0.00    +0.000 A 
ATOM     10  N   UNL     1       1.283   5.462  20.106  0.00  0.00    +0.000 NA
ATOM     11  C   UNL     1       1.531   4.154  20.230  0.00  0.00    +0.000 A 
ATOM     12  N   UNL     1       2.714   3.570  20.071  0.00  0.00    +0.000 NA
BRANCH   7  13
ATOM     13  O   UNL     1       4.973   3.859  19.464  0.00  0.00    +0.000 OA
BRANCH  13  17
ATOM     14  C   UNL     1       6.788   4.973  15.871  0.00  0.00    +0.000 A 
ATOM     15  C   UNL     1       7.373   5.348  17.078  0.00  0.00    +0.000 A 
ATOM     16  C   UNL     1       6.804   4.954  18.288  0.00  0.00    +0.000 A 
ATOM     17  C   UNL     1       5.603   4.240  18.298  0.00  0.00    +0.000 A 
ATOM     18  C   UNL     1       5.023   3.850  17.093  0.00  0.00    +0.000 A 
ATOM     19  C   UNL     1       5.614   4.218  15.874  0.00  0.00    +0.000 A 
BRANCH  14  21
ATOM     20  C   UNL     1       7.105   4.773  13.544  0.00  0.00    +0.000 C 
ATOM     21  O   UNL     1       7.426   5.443  14.756  0.00  0.00    +0.000 OA
ENDBRANCH  14  21
ENDBRANCH  13  17
ENDBRANCH   7  13
ENDBRANCH   1   9
BRANCH   4  22
ATOM     22  O   UNL     1       1.449  11.017  19.636  0.00  0.00    +0.000 OA
BRANCH  22  23
ATOM     23  C   UNL     1       0.904  12.215  20.035  0.00  0.00    +0.000 A 
ATOM     24  N   UNL     1       0.787  12.369  21.363  0.00  0.00    +0.000 NA
ATOM     25  C   UNL     1       0.195  13.512  21.765  0.00  0.00    +0.000 A 
ATOM     26  C   UNL     1      -0.289  14.455  20.894  0.00  0.00    +0.000 A 
ATOM     27  F   UNL     1      -0.891  15.567  21.336  0.00  0.00    +0.000 F 
ATOM     28  C   UNL     1      -0.147  14.182  19.545  0.00  0.00    +0.000 A 
ATOM     29  N   UNL     1       0.457  13.071  19.101  0.00  0.00    +0.000 NA
BRANCH  28  30
ATOM     30  N   UNL     1      -0.571  15.084  18.566  0.00  0.00    +0.000 N 
ATOM     31  H   UNL     1      -1.169  15.812  18.944  0.00  0.00    +0.000 HD
ATOM     32  H   UNL     1      -1.008  14.563  17.811  0.00  0.00    +0.000 HD
ENDBRANCH  28  30
ENDBRANCH  22  23
ENDBRANCH   4  22
TORSDOF 7
ENDMDL
MODEL 8
REMARK VINA RESULT:      -7.6      2.837      4.599
REMARK  Name = 
REMARK  8 active torsions:
REMARK  status: ('A' for Active; 'I' for Inactive)
REMARK    1  A    between atoms: C_1  and  O_2
REMARK    2  A    between atoms: O_2  and  C_3
REMARK    3  A    between atoms: C_6  and  O_7
REMARK    4  A    between atoms: O_7  and  C_8
REMARK    5  A    between atoms: C_10  and  N_11
REMARK    6  A    between atoms: C_14  and  O_15
REMARK    7  A    between atoms: O_15  and  C_16
REMARK    8  A    between atoms: C_21  and  N_22
REMARK                            x       y       z     vdW  Elec       q    Type
REMARK                         _______ _______ _______ _____ _____    ______ ____
ROOT
ATOM      1  N   UNL     1       4.327   5.074  18.187  0.00  0.00    +0.000 N 
ATOM      2  C   UNL     1       5.645   4.819  18.760  0.00  0.00    +0.000 C 
ATOM      3  C   UNL     1       6.634   5.845  18.225  0.00  0.00    +0.000 C 
ATOM      4  C   UNL     1       6.652   5.836  16.691  0.00  0.00    +0.000 C 
ATOM      5  C   UNL     1       5.231   6.085  16.163  0.00  0.00    +0.000 C 
ATOM      6  C   UNL     1       4.225   5.079  16.734  0.00  0.00    +0.000 C 
ENDROOT
BRANCH   1   9
ATOM      7  C   UNL     1       1.871   6.382  20.527  0.00  0.00    +0.000 A 
ATOM      8  C   UNL     1       2.986   6.378  19.716  0.00  0.00    +0.000 A 
ATOM      9  C   UNL     1       3.259   5.204  19.044  0.00  0.00    +0.000 A 
ATOM     10  N   UNL     1       2.474   4.122  19.213  0.00  0.00    +0.000 NA
ATOM     11  C   UNL     1       1.417   4.233  20.024  0.00  0.00    +0.000 A 
ATOM     12  N   UNL     1       1.051   5.331  20.677  0.00  0.00    +0.000 NA
BRANCH   7  13
ATOM     13  O   UNL     1       1.594   7.560  21.215  0.00  0.00    +0.000 OA
BRANCH  13  17
ATOM     14  C   UNL     1      -0.165  10.714  19.118  0.00  0.00    +0.000 A 
ATOM     15  C   UNL     1       0.890  10.013  18.540  0.00  0.00    +0.000 A 
ATOM     16  C   UNL     1       1.465   8.933  19.206  0.00  0.00    +0.000 A 
ATOM     17  C   UNL     1       1.035   8.591  20.491  0.00  0.00    +0.000 A 
ATOM     18  C   UNL     1      -0.031   9.281  21.067  0.00  0.00    +0.000 A 
ATOM     19  C   UNL     1      -0.633  10.348  20.381  0.00  0.00    +0.000 A 
BRANCH  14  21
ATOM     20  C   UNL     1       0.076  12.991  18.557  0.00  0.00    +0.000 C 
ATOM     21  O   UNL     1      -0.626  11.768  18.377  0.00  0.00    +0.000 OA
ENDBRANCH  14  21
ENDBRANCH  13  17
ENDBRANCH   7  13
ENDBRANCH   1   9
BRANCH   4  22
ATOM     22  O   UNL     1       7.076   4.569  16.165  0.00  0.00    +0.000 OA
BRANCH  22  23
ATOM     23  C   UNL     1       7.171   4.542  14.794  0.00  0.00    +0.000 A 
ATOM     24  N   UNL     1       7.966   5.483  14.262  0.00  0.00    +0.000 NA
ATOM     25  C   UNL     1       8.017   5.507  12.916  0.00  0.00    +0.000 A 
ATOM     26  C   UNL     1       7.292   4.656  12.119  0.00  0.00    +0.000 A 
ATOM     27  F   UNL     1       7.356   4.729  10.783  0.00  0.00    +0.000 F 
ATOM     28  C   UNL     1       6.479   3.745  12.769  0.00  0.00    +0.000 A 
ATOM     29  N   UNL     1       6.417   3.669  14.105  0.00  0.00    +0.000 NA
BRANCH  28  30
ATOM     30  N   UNL     1       5.722   2.806  12.063  0.00  0.00    +0.000 N 
ATOM     31  H   UNL     1       4.985   3.238  11.515  0.00  0.00    +0.000 HD
ATOM     32  H   UNL     1       5.374   2.110  12.718  0.00  0.00    +0.000 HD
ENDBRANCH  28  30
ENDBRANCH  22  23
ENDBRANCH   4  22
TORSDOF 7
ENDMDL
MODEL 9
REMARK VINA RESULT:      -7.5      1.287      1.696
REMARK  Name = 
REMARK  8 active torsions:
REMARK  status: ('A' for Active; 'I' for Inactive)
REMARK    1  A    between atoms: C_1  and  O_2
REMARK    2  A    between atoms: O_2  and  C_3
REMARK    3  A    between atoms: C_6  and  O_7
REMARK    4  A    between atoms: O_7  and  C_8
REMARK    5  A    between atoms: C_10  and  N_11
REMARK    6  A    between atoms: C_14  and  O_15
REMARK    7  A    between atoms: O_15  and  C_16
REMARK    8  A    between atoms: C_21  and  N_22
REMARK                            x       y       z     vdW  Elec       q    Type
REMARK                         _______ _______ _______ _____ _____    ______ ____
ROOT
ATOM      1  N   UNL     1       1.999   7.010  20.209  0.00  0.00    +0.000 N 
ATOM      2  C   UNL     1       2.959   7.128  19.116  0.00  0.00    +0.000 C 
ATOM      3  C   UNL     1       2.598   6.138  18.019  0.00  0.00    +0.000 C 
ATOM      4  C   UNL     1       2.521   4.711  18.577  0.00  0.00    +0.000 C 
ATOM      5  C   UNL     1       1.513   4.671  19.735  0.00  0.00    +0.000 C 
ATOM      6  C   UNL     1       1.850   5.698  20.822  0.00  0.00    +0.000 C 
ENDROOT
BRANCH   1   9
ATOM      7  C   UNL     1       0.374  10.259  20.356  0.00  0.00    +0.000 A 
ATOM      8  C   UNL     1       1.027   9.183  19.794  0.00  0.00    +0.000 A 
ATOM      9  C   UNL     1       1.367   8.151  20.645  0.00  0.00    +0.000 A 
ATOM     10  N   UNL     1       1.088   8.232  21.961  0.00  0.00    +0.000 NA
ATOM     11  C   UNL     1       0.453   9.322  22.404  0.00  0.00    +0.000 A 
ATOM     12  N   UNL     1       0.049  10.343  21.656  0.00  0.00    +0.000 NA
BRANCH   7  13
ATOM     13  O   UNL     1       0.036  11.308  19.506  0.00  0.00    +0.000 OA
BRANCH  13  17
ATOM     14  C   UNL     1      -3.176  10.751  16.895  0.00  0.00    +0.000 A 
ATOM     15  C   UNL     1      -2.040   9.959  16.759  0.00  0.00    +0.000 A 
ATOM     16  C   UNL     1      -0.973  10.102  17.645  0.00  0.00    +0.000 A 
ATOM     17  C   UNL     1      -1.007  11.092  18.630  0.00  0.00    +0.000 A 
ATOM     18  C   UNL     1      -2.149  11.878  18.778  0.00  0.00    +0.000 A 
ATOM     19  C   UNL     1      -3.238  11.710  17.908  0.00  0.00    +0.000 A 
BRANCH  14  21
ATOM     20  C   UNL     1      -3.663  10.181  14.661  0.00  0.00    +0.000 C 
ATOM     21  O   UNL     1      -4.142  10.534  15.951  0.00  0.00    +0.000 OA
ENDBRANCH  14  21
ENDBRANCH  13  17
ENDBRANCH   7  13
ENDBRANCH   1   9
BRANCH   4  22
ATOM     22  O   UNL     1       3.781   4.271  19.105  0.00  0.00    +0.000 OA
BRANCH  22  23
ATOM     23  C   UNL     1       4.806   4.299  18.188  0.00  0.00    +0.000 A 
ATOM     24  N   UNL     1       6.021   4.542  18.704  0.00  0.00    +0.000 NA
ATOM     25  C   UNL     1       7.024   4.634  17.809  0.00  0.00    +0.000 A 
ATOM     26  C   UNL     1       6.837   4.520  16.454  0.00  0.00    +0.000 A 
ATOM     27  F   UNL     1       7.860   4.640  15.597  0.00  0.00    +0.000 F 
ATOM     28  C   UNL     1       5.540   4.302  16.026  0.00  0.00    +0.000 A 
ATOM     29  N   UNL     1       4.516   4.178  16.882  0.00  0.00    +0.000 NA
BRANCH  28  30
ATOM     30  N   UNL     1       5.233   4.135  14.673  0.00  0.00    +0.000 N 
ATOM     31  H   UNL     1       6.063   4.105  14.090  0.00  0.00    +0.000 HD
ATOM     32  H   UNL     1       4.579   4.862  14.396  0.00  0.00    +0.000 HD
ENDBRANCH  28  30
ENDBRANCH  22  23
ENDBRANCH   4  22
TORSDOF 7
ENDMDL
