MODEL 1
REMARK VINA RESULT:      -8.0      0.000      0.000
REMARK  Name = 
REMARK  8 active torsions:
REMARK  status: ('A' for Active; 'I' for Inactive)
REMARK    1  A    between atoms: C_1  and  C_2
REMARK    2  A    between atoms: C_5  and  S_6
REMARK    3  A    between atoms: S_6  and  N_9
REMARK    4  A    between atoms: N_9  and  C_10
REMARK    5  A    between atoms: C_10  and  C_11
REMARK    6  A    between atoms: C_10  and  C_20
REMARK    7  A    between atoms: C_11  and  C_12
REMARK    8  A    between atoms: N_14  and  C_15
REMARK                            x       y       z     vdW  Elec       q    Type
REMARK                         _______ _______ _______ _____ _____    ______ ____
ROOT
ATOM      1  C   UNL     1       4.787   5.028  18.103  0.00  0.00    +0.000 C 
ENDROOT
BRANCH   1   2
ATOM      2  C   UNL     1       4.383   3.644  18.487  0.00  0.00    +0.000 A 
ATOM      3  C   UNL     1       3.681   2.644  17.842  0.00  0.00    +0.000 A 
ATOM      4  C   UNL     1       3.758   1.506  18.674  0.00  0.00    +0.000 A 
ATOM      5  C   UNL     1       4.445   1.899  19.798  0.00  0.00    +0.000 A 
ATOM      6  O   UNL     1       4.813   3.202  19.704  0.00  0.00    +0.000 OA
ENDBRANCH   1   2
BRANCH   1   7
ATOM      7  N   UNL     1       4.120   6.041  18.946  0.00  0.00    +0.000 NA
ATOM      8  H   UNL     1       4.608   6.257  19.825  0.00  0.00    +0.000 HD
BRANCH   7   9
ATOM      9  S   UNL     1       2.450   6.047  19.159  0.00  0.00    +0.000 S 
ATOM     10  O   UNL     1       2.228   5.507  20.484  0.00  0.00    +0.000 OA
ATOM     11  O   UNL     1       1.776   5.482  18.012  0.00  0.00    +0.000 OA
BRANCH   9  16
ATOM     12  C   UNL     1       0.626  11.833  19.185  0.00  0.00    +0.000 C 
ATOM     13  C   UNL     1       1.111  10.413  19.184  0.00  0.00    +0.000 A 
ATOM     14  C   UNL     1       1.711   9.862  18.045  0.00  0.00    +0.000 A 
ATOM     15  C   UNL     1       2.159   8.540  18.053  0.00  0.00    +0.000 A 
ATOM     16  C   UNL     1       2.019   7.767  19.210  0.00  0.00    +0.000 A 
ATOM     17  C   UNL     1       1.396   8.296  20.342  0.00  0.00    +0.000 A 
ATOM     18  C   UNL     1       0.947   9.618  20.328  0.00  0.00    +0.000 A 
ENDBRANCH   9  16
ENDBRANCH   7   9
ENDBRANCH   1   7
BRANCH   1  19
ATOM     19  C   UNL     1       6.322   5.166  18.157  0.00  0.00    +0.000 C 
BRANCH  19  20
ATOM     20  C   UNL     1       7.019   4.634  16.915  0.00  0.00    +0.000 C 
ATOM     21  O   UNL     1       8.167   4.201  16.956  0.00  0.00    +0.000 OA
ATOM     22  N   UNL     1       6.285   4.746  15.748  0.00  0.00    +0.000 N 
ATOM     23  H   UNL     1       5.284   4.862  15.843  0.00  0.00    +0.000 HD
BRANCH  22  24
ATOM     24  C   UNL     1       6.758   4.179  14.494  0.00  0.00    +0.000 C 
ATOM     25  C   UNL     1       5.613   3.709  13.595  0.00  0.00    +0.000 C 
ATOM     26  C   UNL     1       6.260   3.550  12.224  0.00  0.00    +0.000 C 
ATOM     27  C   UNL     1       7.416   4.548  12.194  0.00  0.00    +0.000 C 
ATOM     28  C   UNL     1       7.478   5.174  13.586  0.00  0.00    +0.000 C 
ENDBRANCH  22  24
ENDBRANCH  19  20
ENDBRANCH   1  19
TORSDOF 7
ENDMDL
MODEL 2
REMARK VINA RESULT:      -7.5      2.088      7.377
REMARK  Name = 
REMARK  8 active torsions:
REMARK  status: ('A' for Active; 'I' for Inactive)
REMARK    1  A    between atoms: C_1  and  C_2
REMARK    2  A    between atoms: C_5  and  S_6
REMARK    3  A    between atoms: S_6  and  N_9
REMARK    4  A    between atoms: N_9  and  C_10
REMARK    5  A    between atoms: C_10  and  C_11
REMARK    6  A    between atoms: C_10  and  C_20
REMARK    7  A    between atoms: C_11  and  C_12
REMARK    8  A    between atoms: N_14  and  C_15
REMARK                            x       y       z     vdW  Elec       q    Type
REMARK                         _______ _______ _______ _____ _____    ______ ____
ROOT
ATOM      1  C   UNL     1       3.741   5.008  19.225  0.00  0.00    +0.000 C 
ENDROOT
BRANCH   1   2
ATOM      2  C   UNL     1       2.823   4.081  19.950  0.00  0.00    +0.000 A 
ATOM      3  C   UNL     1       3.024   3.064  20.864  0.00  0.00    +0.000 A 
ATOM      4  C   UNL     1       1.742   2.661  21.298  0.00  0.00    +0.000 A 
ATOM      5  C   UNL     1       0.842   3.412  20.579  0.00  0.00    +0.000 A 
ATOM      6  O   UNL     1       1.487   4.265  19.743  0.00  0.00    +0.000 OA
ENDBRANCH   1   2
BRANCH   1   7
ATOM      7  N   UNL     1       4.875   4.283  18.619  0.00  0.00    +0.000 NA
ATOM      8  H   UNL     1       5.150   3.424  19.113  0.00  0.00    +0.000 HD
BRANCH   7   9
ATOM      9  S   UNL     1       6.223   5.098  18.021  0.00  0.00    +0.000 S 
ATOM     10  O   UNL     1       7.368   4.415  18.584  0.00  0.00    +0.000 OA
ATOM     11  O   UNL     1       6.073   6.529  18.169  0.00  0.00    +0.000 OA
BRANCH   9  16
ATOM     12  C   UNL     1       6.374   3.610  12.142  0.00  0.00    +0.000 C 
ATOM     13  C   UNL     1       6.324   4.011  13.587  0.00  0.00    +0.000 A 
ATOM     14  C   UNL     1       7.353   4.774  14.154  0.00  0.00    +0.000 A 
ATOM     15  C   UNL     1       7.300   5.142  15.499  0.00  0.00    +0.000 A 
ATOM     16  C   UNL     1       6.205   4.758  16.280  0.00  0.00    +0.000 A 
ATOM     17  C   UNL     1       5.188   3.972  15.735  0.00  0.00    +0.000 A 
ATOM     18  C   UNL     1       5.248   3.604  14.389  0.00  0.00    +0.000 A 
ENDBRANCH   9  16
ENDBRANCH   7   9
ENDBRANCH   1   7
BRANCH   1  19
ATOM     19  C   UNL     1       2.954   5.813  18.172  0.00  0.00    +0.000 C 
BRANCH  19  20
ATOM     20  C   UNL     1       2.705   7.257  18.579  0.00  0.00    +0.000 C 
ATOM     21  O   UNL     1       3.129   8.197  17.914  0.00  0.00    +0.000 OA
ATOM     22  N   UNL     1       2.033   7.411  19.779  0.00  0.00    +0.000 N 
ATOM     23  H   UNL     1       1.504   6.616  20.116  0.00  0.00    +0.000 HD
BRANCH  22  24
ATOM     24  C   UNL     1       1.612   8.720  20.254  0.00  0.00    +0.000 C 
ATOM     25  C   UNL     1       0.490   9.319  19.404  0.00  0.00    +0.000 C 
ATOM     26  C   UNL     1      -0.075  10.438  20.271  0.00  0.00    +0.000 C 
ATOM     27  C   UNL     1       0.175  10.007  21.715  0.00  0.00    +0.000 C 
ATOM     28  C   UNL     1       0.978   8.710  21.644  0.00  0.00    +0.000 C 
ENDBRANCH  22  24
ENDBRANCH  19  20
ENDBRANCH   1  19
TORSDOF 7
ENDMDL
MODEL 3
REMARK VINA RESULT:      -7.5      2.099      7.431
REMARK  Name = 
REMARK  8 active torsions:
REMARK  status: ('A' for Active; 'I' for Inactive)
REMARK    1  A    between atoms: C_1  and  C_2
REMARK    2  A    between atoms: C_5  and  S_6
REMARK    3  A    between atoms: S_6  and  N_9
REMARK    4  A    between atoms: N_9  and  C_10
REMARK    5  A    between atoms: C_10  and  C_11
REMARK    6  A    between atoms: C_10  and  C_20
REMARK    7  A    between atoms: C_11  and  C_12
REMARK    8  A    between atoms: N_14  and  C_15
REMARK                            x       y       z     vdW  Elec       q    Type
REMARK                         _______ _______ _______ _____ _____    ______ ____
ROOT
ATOM      1  C   UNL     1       3.547   5.270  19.076  0.00  0.00    +0.000 C 
ENDROOT
BRANCH   1   2
ATOM      2  C   UNL     1       2.895   4.390  20.089  0.00  0.00    +0.000 A 
ATOM      3  C   UNL     1       1.720   4.477  20.810  0.00  0.00    +0.000 A 
ATOM      4  C   UNL     1       1.584   3.252  21.498  0.00  0.00    +0.000 A 
ATOM      5  C   UNL     1       2.710   2.520  21.203  0.00  0.00    +0.000 A 
ATOM      6  O   UNL     1       3.524   3.210  20.363  0.00  0.00    +0.000 OA
ENDBRANCH   1   2
BRANCH   1   7
ATOM      7  N   UNL     1       4.520   4.522  18.254  0.00  0.00    +0.000 NA
ATOM      8  H   UNL     1       4.612   3.527  18.496  0.00  0.00    +0.000 HD
BRANCH   7   9
ATOM      9  S   UNL     1       6.009   5.185  17.831  0.00  0.00    +0.000 S 
ATOM     10  O   UNL     1       6.986   4.487  18.639  0.00  0.00    +0.000 OA
ATOM     11  O   UNL     1       5.953   6.630  17.827  0.00  0.00    +0.000 OA
BRANCH   9  16
ATOM     12  C   UNL     1       6.637   3.766  11.966  0.00  0.00    +0.000 C 
ATOM     13  C   UNL     1       6.494   4.084  13.425  0.00  0.00    +0.000 A 
ATOM     14  C   UNL     1       5.379   3.640  14.149  0.00  0.00    +0.000 A 
ATOM     15  C   UNL     1       5.253   3.941  15.506  0.00  0.00    +0.000 A 
ATOM     16  C   UNL     1       6.253   4.677  16.148  0.00  0.00    +0.000 A 
ATOM     17  C   UNL     1       7.354   5.151  15.431  0.00  0.00    +0.000 A 
ATOM     18  C   UNL     1       7.474   4.849  14.073  0.00  0.00    +0.000 A 
ENDBRANCH   9  16
ENDBRANCH   7   9
ENDBRANCH   1   7
BRANCH   1  19
ATOM     19  C   UNL     1       2.478   5.957  18.204  0.00  0.00    +0.000 C 
BRANCH  19  20
ATOM     20  C   UNL     1       2.406   7.462  18.413  0.00  0.00    +0.000 C 
ATOM     21  O   UNL     1       3.022   8.243  17.695  0.00  0.00    +0.000 OA
ATOM     22  N   UNL     1       1.655   7.858  19.506  0.00  0.00    +0.000 N 
ATOM     23  H   UNL     1       0.987   7.191  19.872  0.00  0.00    +0.000 HD
BRANCH  22  24
ATOM     24  C   UNL     1       1.388   9.262  19.777  0.00  0.00    +0.000 C 
ATOM     25  C   UNL     1       0.388   9.870  18.792  0.00  0.00    +0.000 C 
ATOM     26  C   UNL     1      -0.063  11.159  19.470  0.00  0.00    +0.000 C 
ATOM     27  C   UNL     1       0.071  10.907  20.970  0.00  0.00    +0.000 C 
ATOM     28  C   UNL     1       0.702   9.524  21.118  0.00  0.00    +0.000 C 
ENDBRANCH  22  24
ENDBRANCH  19  20
ENDBRANCH   1  19
TORSDOF 7
ENDMDL
MODEL 4
REMARK VINA RESULT:      -7.4      3.770      5.401
REMARK  Name = 
REMARK  8 active torsions:
REMARK  status: ('A' for Active; 'I' for Inactive)
REMARK    1  A    between atoms: C_1  and  C_2
REMARK    2  A    between atoms: C_5  and  S_6
REMARK    3  A    between atoms: S_6  and  N_9
REMARK    4  A    between atoms: N_9  and  C_10
REMARK    5  A    between atoms: C_10  and  C_11
REMARK    6  A    between atoms: C_10  and  C_20
REMARK    7  A    between atoms: C_11  and  C_12
REMARK    8  A    between atoms: N_14  and  C_15
REMARK                            x       y       z     vdW  Elec       q    Type
REMARK                         _______ _______ _______ _____ _____    ______ ____
ROOT
ATOM      1  C   UNL     1       6.313   6.265  17.782  0.00  0.00    +0.000 C 
ENDROOT
BRANCH   1   2
ATOM      2  C   UNL     1       6.408   5.529  16.488  0.00  0.00    +0.000 A 
ATOM      3  C   UNL     1       7.030   4.358  16.102  0.00  0.00    +0.000 A 
ATOM      4  C   UNL     1       6.625   4.111  14.773  0.00  0.00    +0.000 A 
ATOM      5  C   UNL     1       5.833   5.175  14.411  0.00  0.00    +0.000 A 
ATOM      6  O   UNL     1       5.710   6.053  15.439  0.00  0.00    +0.000 OA
ENDBRANCH   1   2
BRANCH   1   7
ATOM      7  N   UNL     1       5.681   5.439  18.831  0.00  0.00    +0.000 NA
ATOM      8  H   UNL     1       6.288   4.712  19.229  0.00  0.00    +0.000 HD
BRANCH   7   9
ATOM      9  S   UNL     1       4.094   4.892  18.684  0.00  0.00    +0.000 S 
ATOM     10  O   UNL     1       3.825   4.159  19.903  0.00  0.00    +0.000 OA
ATOM     11  O   UNL     1       3.871   4.282  17.393  0.00  0.00    +0.000 OA
BRANCH   9  16
ATOM     12  C   UNL     1       1.053  10.132  19.001  0.00  0.00    +0.000 C 
ATOM     13  C   UNL     1       1.774   8.819  18.915  0.00  0.00    +0.000 A 
ATOM     14  C   UNL     1       1.764   7.924  19.993  0.00  0.00    +0.000 A 
ATOM     15  C   UNL     1       2.438   6.706  19.906  0.00  0.00    +0.000 A 
ATOM     16  C   UNL     1       3.115   6.371  18.729  0.00  0.00    +0.000 A 
ATOM     17  C   UNL     1       3.158   7.267  17.658  0.00  0.00    +0.000 A 
ATOM     18  C   UNL     1       2.484   8.486  17.753  0.00  0.00    +0.000 A 
ENDBRANCH   9  16
ENDBRANCH   7   9
ENDBRANCH   1   7
BRANCH   1  19
ATOM     19  C   UNL     1       7.708   6.760  18.214  0.00  0.00    +0.000 C 
BRANCH  19  20
ATOM     20  C   UNL     1       7.894   8.260  18.045  0.00  0.00    +0.000 C 
ATOM     21  O   UNL     1       7.310   8.887  17.166  0.00  0.00    +0.000 OA
ATOM     22  N   UNL     1       8.814   8.828  18.908  0.00  0.00    +0.000 N 
ATOM     23  H   UNL     1       9.041   8.308  19.747  0.00  0.00    +0.000 HD
BRANCH  22  24
ATOM     24  C   UNL     1       9.023  10.267  18.959  0.00  0.00    +0.000 C 
ATOM     25  C   UNL     1       9.546  10.736  20.317  0.00  0.00    +0.000 C 
ATOM     26  C   UNL     1      10.079  12.138  20.045  0.00  0.00    +0.000 C 
ATOM     27  C   UNL     1      10.510  12.139  18.580  0.00  0.00    +0.000 C 
ATOM     28  C   UNL     1      10.110  10.778  18.014  0.00  0.00    +0.000 C 
ENDBRANCH  22  24
ENDBRANCH  19  20
ENDBRANCH   1  19
TORSDOF 7
ENDMDL
MODEL 5
REMARK VINA RESULT:      -7.4      2.371      3.658
REMARK  Name = 
REMARK  8 active torsions:
REMARK  status: ('A' for Active; 'I' for Inactive)
REMARK    1  A    between atoms: C_1  and  C_2
REMARK    2  A    between atoms: C_5  and  S_6
REMARK    3  A    between atoms: S_6  and  N_9
REMARK    4  A    between atoms: N_9  and  C_10
REMARK    5  A    between atoms: C_10  and  C_11
REMARK    6  A    between atoms: C_10  and  C_20
REMARK    7  A    between atoms: C_11  and  C_12
REMARK    8  A    between atoms: N_14  and  C_15
REMARK                            x       y       z     vdW  Elec       q    Type
REMARK                         _______ _______ _______ _____ _____    ______ ____
ROOT
ATOM      1  C   UNL     1       6.349   5.914  16.986  0.00  0.00    +0.000 C 
ENDROOT
BRANCH   1   2
ATOM      2  C   UNL     1       7.184   6.969  17.631  0.00  0.00    +0.000 A 
ATOM      3  C   UNL     1       8.077   6.965  18.685  0.00  0.00    +0.000 A 
ATOM      4  C   UNL     1       8.660   8.250  18.718  0.00  0.00    +0.000 A 
ATOM      5  C   UNL     1       8.043   8.975  17.725  0.00  0.00    +0.000 A 
ATOM      6  O   UNL     1       7.131   8.212  17.071  0.00  0.00    +0.000 OA
ENDBRANCH   1   2
BRANCH   1   7
ATOM      7  N   UNL     1       4.917   6.273  16.998  0.00  0.00    +0.000 NA
ATOM      8  H   UNL     1       4.721   7.264  16.806  0.00  0.00    +0.000 HD
BRANCH   7   9
ATOM      9  S   UNL     1       3.865   5.659  18.161  0.00  0.00    +0.000 S 
ATOM     10  O   UNL     1       4.682   5.415  19.330  0.00  0.00    +0.000 OA
ATOM     11  O   UNL     1       3.035   4.611  17.610  0.00  0.00    +0.000 OA
BRANCH   9  16
ATOM     12  C   UNL     1       0.498  10.493  19.612  0.00  0.00    +0.000 C 
ATOM     13  C   UNL     1       1.301   9.279  19.247  0.00  0.00    +0.000 A 
ATOM     14  C   UNL     1       1.502   8.249  20.174  0.00  0.00    +0.000 A 
ATOM     15  C   UNL     1       2.251   7.123  19.827  0.00  0.00    +0.000 A 
ATOM     16  C   UNL     1       2.789   7.018  18.541  0.00  0.00    +0.000 A 
ATOM     17  C   UNL     1       2.620   8.052  17.617  0.00  0.00    +0.000 A 
ATOM     18  C   UNL     1       1.873   9.177  17.971  0.00  0.00    +0.000 A 
ENDBRANCH   9  16
ENDBRANCH   7   9
ENDBRANCH   1   7
BRANCH   1  19
ATOM     19  C   UNL     1       6.854   5.641  15.555  0.00  0.00    +0.000 C 
BRANCH  19  20
ATOM     20  C   UNL     1       6.298   4.360  14.954  0.00  0.00    +0.000 C 
ATOM     21  O   UNL     1       5.724   3.520  15.642  0.00  0.00    +0.000 OA
ATOM     22  N   UNL     1       6.553   4.197  13.604  0.00  0.00    +0.000 N 
ATOM     23  H   UNL     1       6.788   5.029  13.076  0.00  0.00    +0.000 HD
BRANCH  22  24
ATOM     24  C   UNL     1       5.990   3.087  12.851  0.00  0.00    +0.000 C 
ATOM     25  C   UNL     1       4.777   3.500  12.016  0.00  0.00    +0.000 C 
ATOM     26  C   UNL     1       4.604   2.357  11.022  0.00  0.00    +0.000 C 
ATOM     27  C   UNL     1       6.000   1.772  10.818  0.00  0.00    +0.000 C 
ATOM     28  C   UNL     1       6.922   2.515  11.783  0.00  0.00    +0.000 C 
ENDBRANCH  22  24
ENDBRANCH  19  20
ENDBRANCH   1  19
TORSDOF 7
ENDMDL
MODEL 6
REMARK VINA RESULT:      -7.3      3.730      5.503
REMARK  Name = 
REMARK  8 active torsions:
REMARK  status: ('A' for Active; 'I' for Inactive)
REMARK    1  A    between atoms: C_1  and  C_2
REMARK    2  A    between atoms: C_5  and  S_6
REMARK    3  A    between atoms: S_6  and  N_9
REMARK    4  A    between atoms: N_9  and  C_10
REMARK    5  A    between atoms: C_10  and  C_11
REMARK    6  A    between atoms: C_10  and  C_20
REMARK    7  A    between atoms: C_11  and  C_12
REMARK    8  A    between atoms: N_14  and  C_15
REMARK                            x       y       z     vdW  Elec       q    Type
REMARK                         _______ _______ _______ _____ _____    ______ ____
ROOT
ATOM      1  C   UNL     1       6.507   5.678  18.000  0.00  0.00    +0.000 C 
ENDROOT
BRANCH   1   2
ATOM      2  C   UNL     1       6.478   5.259  16.569  0.00  0.00    +0.000 A 
ATOM      3  C   UNL     1       7.204   4.346  15.829  0.00  0.00    +0.000 A 
ATOM      4  C   UNL     1       6.601   4.299  14.553  0.00  0.00    +0.000 A 
ATOM      5  C   UNL     1       5.588   5.228  14.574  0.00  0.00    +0.000 A 
ATOM      6  O   UNL     1       5.516   5.832  15.788  0.00  0.00    +0.000 OA
ENDBRANCH   1   2
BRANCH   1   7
ATOM      7  N   UNL     1       6.219   4.546  18.902  0.00  0.00    +0.000 NA
ATOM      8  H   UNL     1       6.984   3.865  18.997  0.00  0.00    +0.000 HD
BRANCH   7   9
ATOM      9  S   UNL     1       4.720   3.778  18.901  0.00  0.00    +0.000 S 
ATOM     10  O   UNL     1       4.832   2.710  19.871  0.00  0.00    +0.000 OA
ATOM     11  O   UNL     1       4.277   3.504  17.552  0.00  0.00    +0.000 OA
BRANCH   9  16
ATOM     12  C   UNL     1       0.645   7.792  20.925  0.00  0.00    +0.000 C 
ATOM     13  C   UNL     1       1.679   6.816  20.443  0.00  0.00    +0.000 A 
ATOM     14  C   UNL     1       2.533   7.144  19.383  0.00  0.00    +0.000 A 
ATOM     15  C   UNL     1       3.491   6.230  18.940  0.00  0.00    +0.000 A 
ATOM     16  C   UNL     1       3.607   4.987  19.570  0.00  0.00    +0.000 A 
ATOM     17  C   UNL     1       2.741   4.637  20.608  0.00  0.00    +0.000 A 
ATOM     18  C   UNL     1       1.783   5.554  21.045  0.00  0.00    +0.000 A 
ENDBRANCH   9  16
ENDBRANCH   7   9
ENDBRANCH   1   7
BRANCH   1  19
ATOM     19  C   UNL     1       7.861   6.337  18.331  0.00  0.00    +0.000 C 
BRANCH  19  20
ATOM     20  C   UNL     1       7.879   7.837  18.084  0.00  0.00    +0.000 C 
ATOM     21  O   UNL     1       7.193   8.354  17.207  0.00  0.00    +0.000 OA
ATOM     22  N   UNL     1       8.770   8.543  18.872  0.00  0.00    +0.000 N 
ATOM     23  H   UNL     1       9.089   8.094  19.722  0.00  0.00    +0.000 HD
BRANCH  22  24
ATOM     24  C   UNL     1       8.826   9.996  18.845  0.00  0.00    +0.000 C 
ATOM     25  C   UNL     1       9.299  10.590  20.172  0.00  0.00    +0.000 C 
ATOM     26  C   UNL     1       9.681  12.024  19.822  0.00  0.00    +0.000 C 
ATOM     27  C   UNL     1      10.106  11.992  18.356  0.00  0.00    +0.000 C 
ATOM     28  C   UNL     1       9.851  10.568  17.866  0.00  0.00    +0.000 C 
ENDBRANCH  22  24
ENDBRANCH  19  20
ENDBRANCH   1  19
TORSDOF 7
ENDMDL
MODEL 7
REMARK VINA RESULT:      -7.3      3.660      5.142
REMARK  Name = 
REMARK  8 active torsions:
REMARK  status: ('A' for Active; 'I' for Inactive)
REMARK    1  A    between atoms: C_1  and  C_2
REMARK    2  A    between atoms: C_5  and  S_6
REMARK    3  A    between atoms: S_6  and  N_9
REMARK    4  A    between atoms: N_9  and  C_10
REMARK    5  A    between atoms: C_10  and  C_11
REMARK    6  A    between atoms: C_10  and  C_20
REMARK    7  A    between atoms: C_11  and  C_12
REMARK    8  A    between atoms: N_14  and  C_15
REMARK                            x       y       z     vdW  Elec       q    Type
REMARK                         _______ _______ _______ _____ _____    ______ ____
ROOT
ATOM      1  C   UNL     1       6.088   6.319  17.755  0.00  0.00    +0.000 C 
ENDROOT
BRANCH   1   2
ATOM      2  C   UNL     1       6.043   5.529  16.490  0.00  0.00    +0.000 A 
ATOM      3  C   UNL     1       5.528   5.775  15.232  0.00  0.00    +0.000 A 
ATOM      4  C   UNL     1       5.935   4.695  14.418  0.00  0.00    +0.000 A 
ATOM      5  C   UNL     1       6.617   3.830  15.243  0.00  0.00    +0.000 A 
ATOM      6  O   UNL     1       6.672   4.318  16.509  0.00  0.00    +0.000 OA
ENDBRANCH   1   2
BRANCH   1   7
ATOM      7  N   UNL     1       5.482   5.578  18.879  0.00  0.00    +0.000 NA
ATOM      8  H   UNL     1       6.056   4.809  19.248  0.00  0.00    +0.000 HD
BRANCH   7   9
ATOM      9  S   UNL     1       3.847   5.171  18.885  0.00  0.00    +0.000 S 
ATOM     10  O   UNL     1       3.614   4.527  20.161  0.00  0.00    +0.000 OA
ATOM     11  O   UNL     1       3.468   4.519  17.652  0.00  0.00    +0.000 OA
BRANCH   9  16
ATOM     12  C   UNL     1       0.653  10.329  18.855  0.00  0.00    +0.000 C 
ATOM     13  C   UNL     1       1.474   9.072  18.868  0.00  0.00    +0.000 A 
ATOM     14  C   UNL     1       2.196   8.677  17.735  0.00  0.00    +0.000 A 
ATOM     15  C   UNL     1       2.955   7.506  17.756  0.00  0.00    +0.000 A 
ATOM     16  C   UNL     1       3.006   6.733  18.920  0.00  0.00    +0.000 A 
ATOM     17  C   UNL     1       2.267   7.101  20.046  0.00  0.00    +0.000 A 
ATOM     18  C   UNL     1       1.506   8.271  20.019  0.00  0.00    +0.000 A 
ENDBRANCH   9  16
ENDBRANCH   7   9
ENDBRANCH   1   7
BRANCH   1  19
ATOM     19  C   UNL     1       7.539   6.735  18.068  0.00  0.00    +0.000 C 
BRANCH  19  20
ATOM     20  C   UNL     1       7.777   8.232  17.946  0.00  0.00    +0.000 C 
ATOM     21  O   UNL     1       7.200   8.909  17.100  0.00  0.00    +0.000 OA
ATOM     22  N   UNL     1       8.733   8.738  18.808  0.00  0.00    +0.000 N 
ATOM     23  H   UNL     1       8.957   8.182  19.624  0.00  0.00    +0.000 HD
BRANCH  22  24
ATOM     24  C   UNL     1       8.995  10.166  18.902  0.00  0.00    +0.000 C 
ATOM     25  C   UNL     1       9.497  10.580  20.286  0.00  0.00    +0.000 C 
ATOM     26  C   UNL     1      10.091  11.966  20.065  0.00  0.00    +0.000 C 
ATOM     27  C   UNL     1      10.562  11.988  18.613  0.00  0.00    +0.000 C 
ATOM     28  C   UNL     1      10.127  10.658  18.001  0.00  0.00    +0.000 C 
ENDBRANCH  22  24
ENDBRANCH  19  20
ENDBRANCH   1  19
TORSDOF 7
ENDMDL
MODEL 8
REMARK VINA RESULT:      -7.2      2.933      7.039
REMARK  Name = 
REMARK  8 active torsions:
REMARK  status: ('A' for Active; 'I' for Inactive)
REMARK    1  A    between atoms: C_1  and  C_2
REMARK    2  A    between atoms: C_5  and  S_6
REMARK    3  A    between atoms: S_6  and  N_9
REMARK    4  A    between atoms: N_9  and  C_10
REMARK    5  A    between atoms: C_10  and  C_11
REMARK    6  A    between atoms: C_10  and  C_20
REMARK    7  A    between atoms: C_11  and  C_12
REMARK    8  A    between atoms: N_14  and  C_15
REMARK                            x       y       z     vdW  Elec       q    Type
REMARK                         _______ _______ _______ _____ _____    ______ ____
ROOT
ATOM      1  C   UNL     1       3.193   5.584  18.512  0.00  0.00    +0.000 C 
ENDROOT
BRANCH   1   2
ATOM      2  C   UNL     1       2.428   4.687  19.428  0.00  0.00    +0.000 A 
ATOM      3  C   UNL     1       1.554   3.638  19.222  0.00  0.00    +0.000 A 
ATOM      4  C   UNL     1       1.278   3.094  20.495  0.00  0.00    +0.000 A 
ATOM      5  C   UNL     1       1.948   3.883  21.401  0.00  0.00    +0.000 A 
ATOM      6  O   UNL     1       2.635   4.866  20.765  0.00  0.00    +0.000 OA
ENDBRANCH   1   2
BRANCH   1   7
ATOM      7  N   UNL     1       3.955   4.812  17.511  0.00  0.00    +0.000 NA
ATOM      8  H   UNL     1       3.431   4.047  17.067  0.00  0.00    +0.000 HD
BRANCH   7   9
ATOM      9  S   UNL     1       5.562   4.379  17.769  0.00  0.00    +0.000 S 
ATOM     10  O   UNL     1       6.005   3.781  16.528  0.00  0.00    +0.000 OA
ATOM     11  O   UNL     1       5.716   3.674  19.022  0.00  0.00    +0.000 OA
BRANCH   9  16
ATOM     12  C   UNL     1       8.708   9.557  18.080  0.00  0.00    +0.000 C 
ATOM     13  C   UNL     1       7.914   8.284  18.035  0.00  0.00    +0.000 A 
ATOM     14  C   UNL     1       8.315   7.164  18.773  0.00  0.00    +0.000 A 
ATOM     15  C   UNL     1       7.571   5.984  18.725  0.00  0.00    +0.000 A 
ATOM     16  C   UNL     1       6.412   5.927  17.945  0.00  0.00    +0.000 A 
ATOM     17  C   UNL     1       6.018   7.027  17.181  0.00  0.00    +0.000 A 
ATOM     18  C   UNL     1       6.767   8.204  17.231  0.00  0.00    +0.000 A 
ENDBRANCH   9  16
ENDBRANCH   7   9
ENDBRANCH   1   7
BRANCH   1  19
ATOM     19  C   UNL     1       2.240   6.596  17.845  0.00  0.00    +0.000 C 
BRANCH  19  20
ATOM     20  C   UNL     1       2.147   7.918  18.589  0.00  0.00    +0.000 C 
ATOM     21  O   UNL     1       2.615   8.954  18.125  0.00  0.00    +0.000 OA
ATOM     22  N   UNL     1       1.564   7.837  19.841  0.00  0.00    +0.000 N 
ATOM     23  H   UNL     1       0.985   7.027  20.028  0.00  0.00    +0.000 HD
BRANCH  22  24
ATOM     24  C   UNL     1       1.291   9.026  20.634  0.00  0.00    +0.000 C 
ATOM     25  C   UNL     1       0.173   9.883  20.039  0.00  0.00    +0.000 C 
ATOM     26  C   UNL     1      -0.233  10.807  21.182  0.00  0.00    +0.000 C 
ATOM     27  C   UNL     1       0.072  10.037  22.465  0.00  0.00    +0.000 C 
ATOM     28  C   UNL     1       0.752   8.738  22.034  0.00  0.00    +0.000 C 
ENDBRANCH  22  24
ENDBRANCH  19  20
ENDBRANCH   1  19
TORSDOF 7
ENDMDL
MODEL 9
REMARK VINA RESULT:      -7.2      2.009      7.161
REMARK  Name = 
REMARK  8 active torsions:
REMARK  status: ('A' for Active; 'I' for Inactive)
REMARK    1  A    between atoms: C_1  and  C_2
REMARK    2  A    between atoms: C_5  and  S_6
REMARK    3  A    between atoms: S_6  and  N_9
REMARK    4  A    between atoms: N_9  and  C_10
REMARK    5  A    between atoms: C_10  and  C_11
REMARK    6  A    between atoms: C_10  and  C_20
REMARK    7  A    between atoms: C_11  and  C_12
REMARK    8  A    between atoms: N_14  and  C_15
REMARK                            x       y       z     vdW  Elec       q    Type
REMARK                         _______ _______ _______ _____ _____    ______ ____
ROOT
ATOM      1  C   UNL     1       2.966   5.211  20.211  0.00  0.00    +0.000 C 
ENDROOT
BRANCH   1   2
ATOM      2  C   UNL     1       2.114   4.168  19.570  0.00  0.00    +0.000 A 
ATOM      3  C   UNL     1       1.548   4.039  18.316  0.00  0.00    +0.000 A 
ATOM      4  C   UNL     1       0.974   2.750  18.269  0.00  0.00    +0.000 A 
ATOM      5  C   UNL     1       1.170   2.199  19.514  0.00  0.00    +0.000 A 
ATOM      6  O   UNL     1       1.845   3.059  20.318  0.00  0.00    +0.000 OA
ENDBRANCH   1   2
BRANCH   1   7
ATOM      7  N   UNL     1       4.027   5.680  19.298  0.00  0.00    +0.000 NA
ATOM      8  H   UNL     1       3.693   6.011  18.384  0.00  0.00    +0.000 HD
BRANCH   7   9
ATOM      9  S   UNL     1       5.489   4.856  19.149  0.00  0.00    +0.000 S 
ATOM     10  O   UNL     1       5.227   3.516  19.628  0.00  0.00    +0.000 OA
ATOM     11  O   UNL     1       6.582   5.632  19.691  0.00  0.00    +0.000 OA
BRANCH   9  16
ATOM     12  C   UNL     1       6.503   4.114  13.213  0.00  0.00    +0.000 C 
ATOM     13  C   UNL     1       6.251   4.333  14.677  0.00  0.00    +0.000 A 
ATOM     14  C   UNL     1       7.293   4.706  15.535  0.00  0.00    +0.000 A 
ATOM     15  C   UNL     1       7.050   4.907  16.894  0.00  0.00    +0.000 A 
ATOM     16  C   UNL     1       5.756   4.750  17.398  0.00  0.00    +0.000 A 
ATOM     17  C   UNL     1       4.714   4.349  16.558  0.00  0.00    +0.000 A 
ATOM     18  C   UNL     1       4.963   4.146  15.199  0.00  0.00    +0.000 A 
ENDBRANCH   9  16
ENDBRANCH   7   9
ENDBRANCH   1   7
BRANCH   1  19
ATOM     19  C   UNL     1       2.090   6.377  20.711  0.00  0.00    +0.000 C 
BRANCH  19  20
ATOM     20  C   UNL     1       1.959   7.507  19.703  0.00  0.00    +0.000 C 
ATOM     21  O   UNL     1       2.402   7.409  18.562  0.00  0.00    +0.000 OA
ATOM     22  N   UNL     1       1.371   8.658  20.198  0.00  0.00    +0.000 N 
ATOM     23  H   UNL     1       0.812   8.565  21.038  0.00  0.00    +0.000 HD
BRANCH  22  24
ATOM     24  C   UNL     1       1.063   9.788  19.335  0.00  0.00    +0.000 C 
ATOM     25  C   UNL     1      -0.385   9.772  18.842  0.00  0.00    +0.000 C 
ATOM     26  C   UNL     1      -0.618  11.189  18.330  0.00  0.00    +0.000 C 
ATOM     27  C   UNL     1       0.313  12.082  19.148  0.00  0.00    +0.000 C 
ATOM     28  C   UNL     1       1.140  11.147  20.028  0.00  0.00    +0.000 C 
ENDBRANCH  22  24
ENDBRANCH  19  20
ENDBRANCH   1  19
TORSDOF 7
ENDMDL
