MODEL 1
REMARK VINA RESULT:      -8.9      0.000      0.000
REMARK  Name = 
REMARK  6 active torsions:
REMARK  status: ('A' for Active; 'I' for Inactive)
REMARK    1  A    between atoms: C_6  and  N_7
REMARK    2  A    between atoms: C_12  and  N_13
REMARK    3  A    between atoms: C_14  and  O_15
REMARK    4  A    between atoms: C_16  and  C_17
REMARK    5  A    between atoms: N_19  and  C_20
REMARK    6  A    between atoms: C_20  and  C_21
REMARK                            x       y       z     vdW  Elec       q    Type
REMARK                         _______ _______ _______ _____ _____    ______ ____
ROOT
ATOM      1  N   UNL     1       2.323   7.614  19.167  0.00  0.00    +0.000 N 
ATOM      2  C   UNL     1       1.696   8.732  18.659  0.00  0.00    +0.000 C 
ATOM      3  O   UNL     1       1.533   8.969  17.467  0.00  0.00    +0.000 OA
ATOM      4  N   UNL     1       1.173   9.585  19.623  0.00  0.00    +0.000 N 
ATOM      5  C   UNL     1       1.324   9.507  21.068  0.00  0.00    +0.000 C 
ATOM      6  C   UNL     1      -0.114   9.488  21.591  0.00  0.00    +0.000 C 
ATOM      7  C   UNL     1      -0.833  10.453  20.613  0.00  0.00    +0.000 C 
ATOM      8  C   UNL     1      -0.035  10.366  19.280  0.00  0.00    +0.000 C 
ATOM      9  H   UNL     1       2.129   7.358  20.119  0.00  0.00    +0.000 HD
ENDROOT
BRANCH   1  15
ATOM     10  N   UNL     1       5.548   6.226  15.270  0.00  0.00    +0.000 N 
ATOM     11  C   UNL     1       5.358   5.205  16.159  0.00  0.00    +0.000 C 
ATOM     12  O   UNL     1       5.945   4.135  16.149  0.00  0.00    +0.000 OA
ATOM     13  N   UNL     1       4.320   5.477  17.069  0.00  0.00    +0.000 N 
ATOM     14  C   UNL     1       4.006   6.722  17.591  0.00  0.00    +0.000 A 
ATOM     15  C   UNL     1       2.931   6.608  18.432  0.00  0.00    +0.000 A 
ATOM     16  C   UNL     1       2.533   5.234  18.423  0.00  0.00    +0.000 A 
ATOM     17  C   UNL     1       1.484   4.511  19.036  0.00  0.00    +0.000 A 
ATOM     18  C   UNL     1       1.330   3.145  18.773  0.00  0.00    +0.000 A 
ATOM     19  C   UNL     1       2.210   2.487  17.922  0.00  0.00    +0.000 A 
ATOM     20  C   UNL     1       3.267   3.172  17.319  0.00  0.00    +0.000 A 
ATOM     21  C   UNL     1       3.416   4.548  17.583  0.00  0.00    +0.000 A 
ATOM     22  H   UNL     1       6.169   6.038  14.493  0.00  0.00    +0.000 HD
ATOM     23  H   UNL     1       4.840   6.938  15.130  0.00  0.00    +0.000 HD
ENDBRANCH   1  15
BRANCH   8  24
ATOM     24  C   UNL     1       0.225  11.756  18.675  0.00  0.00    +0.000 C 
ATOM     25  O   UNL     1      -0.669  12.592  18.552  0.00  0.00    +0.000 OA
ATOM     26  N   UNL     1       1.562  12.065  18.487  0.00  0.00    +0.000 N 
ATOM     27  H   UNL     1       2.170  11.281  18.304  0.00  0.00    +0.000 HD
BRANCH  26  28
ATOM     28  C   UNL     1       1.982  13.383  18.056  0.00  0.00    +0.000 C 
BRANCH  28  29
ATOM     29  C   UNL     1       2.949  14.010  19.018  0.00  0.00    +0.000 A 
ATOM     30  C   UNL     1       2.893  13.718  20.389  0.00  0.00    +0.000 A 
ATOM     31  C   UNL     1       3.793  14.311  21.278  0.00  0.00    +0.000 A 
ATOM     32  C   UNL     1       4.752  15.211  20.807  0.00  0.00    +0.000 A 
ATOM     33  C   UNL     1       4.807  15.517  19.448  0.00  0.00    +0.000 A 
ATOM     34 CL   UNL     1       5.983  16.639  18.880  0.00  0.00    +0.000 Cl
ATOM     35  C   UNL     1       3.910  14.918  18.564  0.00  0.00    +0.000 A 
ATOM     36  F   UNL     1       3.958  15.212  17.254  0.00  0.00    +0.000 F 
ENDBRANCH  28  29
ENDBRANCH  26  28
ENDBRANCH   8  24
BRANCH   6  37
ATOM     37  N   UNL     1      -0.654   8.120  21.582  0.00  0.00    +0.000 NA
ATOM     38  H   UNL     1      -1.072   7.893  22.484  0.00  0.00    +0.000 HD
ATOM     39  H   UNL     1       0.122   7.461  21.464  0.00  0.00    +0.000 HD
ENDBRANCH   6  37
BRANCH   7  40
ATOM     40  O   UNL     1      -0.906  11.744  21.221  0.00  0.00    +0.000 OA
ATOM     41  H   UNL     1      -1.838  11.990  21.356  0.00  0.00    +0.000 HD
ENDBRANCH   7  40
TORSDOF 6
ENDMDL
MODEL 2
REMARK VINA RESULT:      -8.6      1.081      1.101
REMARK  Name = 
REMARK  6 active torsions:
REMARK  status: ('A' for Active; 'I' for Inactive)
REMARK    1  A    between atoms: C_6  and  N_7
REMARK    2  A    between atoms: C_12  and  N_13
REMARK    3  A    between atoms: C_14  and  O_15
REMARK    4  A    between atoms: C_16  and  C_17
REMARK    5  A    between atoms: N_19  and  C_20
REMARK    6  A    between atoms: C_20  and  C_21
REMARK                            x       y       z     vdW  Elec       q    Type
REMARK                         _______ _______ _______ _____ _____    ______ ____
ROOT
ATOM      1  N   UNL     1       2.320   7.587  19.162  0.00  0.00    +0.000 N 
ATOM      2  C   UNL     1       1.726   8.720  18.647  0.00  0.00    +0.000 C 
ATOM      3  O   UNL     1       1.597   8.968  17.453  0.00  0.00    +0.000 OA
ATOM      4  N   UNL     1       1.195   9.575  19.604  0.00  0.00    +0.000 N 
ATOM      5  C   UNL     1       1.308   9.485  21.052  0.00  0.00    +0.000 C 
ATOM      6  C   UNL     1      -0.143   9.488  21.538  0.00  0.00    +0.000 C 
ATOM      7  C   UNL     1      -0.820  10.473  20.550  0.00  0.00    +0.000 C 
ATOM      8  C   UNL     1       0.009  10.381  19.237  0.00  0.00    +0.000 C 
ATOM      9  H   UNL     1       2.098   7.328  20.107  0.00  0.00    +0.000 HD
ENDROOT
BRANCH   1  15
ATOM     10  N   UNL     1       5.550   6.169  15.280  0.00  0.00    +0.000 N 
ATOM     11  C   UNL     1       5.357   5.154  16.175  0.00  0.00    +0.000 C 
ATOM     12  O   UNL     1       5.942   4.084  16.174  0.00  0.00    +0.000 OA
ATOM     13  N   UNL     1       4.318   5.434  17.081  0.00  0.00    +0.000 N 
ATOM     14  C   UNL     1       4.004   6.683  17.595  0.00  0.00    +0.000 A 
ATOM     15  C   UNL     1       2.928   6.575  18.434  0.00  0.00    +0.000 A 
ATOM     16  C   UNL     1       2.528   5.202  18.435  0.00  0.00    +0.000 A 
ATOM     17  C   UNL     1       1.477   4.484  19.051  0.00  0.00    +0.000 A 
ATOM     18  C   UNL     1       1.322   3.117  18.796  0.00  0.00    +0.000 A 
ATOM     19  C   UNL     1       2.202   2.452  17.951  0.00  0.00    +0.000 A 
ATOM     20  C   UNL     1       3.262   3.131  17.345  0.00  0.00    +0.000 A 
ATOM     21  C   UNL     1       3.411   4.509  17.600  0.00  0.00    +0.000 A 
ATOM     22  H   UNL     1       6.172   5.975  14.505  0.00  0.00    +0.000 HD
ATOM     23  H   UNL     1       4.843   6.881  15.134  0.00  0.00    +0.000 HD
ENDBRANCH   1  15
BRANCH   8  24
ATOM     24  C   UNL     1       0.309  11.770  18.649  0.00  0.00    +0.000 C 
ATOM     25  O   UNL     1      -0.571  12.614  18.486  0.00  0.00    +0.000 OA
ATOM     26  N   UNL     1       1.657  12.068  18.526  0.00  0.00    +0.000 N 
ATOM     27  H   UNL     1       2.266  11.280  18.371  0.00  0.00    +0.000 HD
BRANCH  26  28
ATOM     28  C   UNL     1       2.107  13.384  18.120  0.00  0.00    +0.000 C 
BRANCH  28  29
ATOM     29  C   UNL     1       2.408  14.266  19.297  0.00  0.00    +0.000 A 
ATOM     30  C   UNL     1       2.876  13.724  20.503  0.00  0.00    +0.000 A 
ATOM     31  C   UNL     1       3.148  14.552  21.594  0.00  0.00    +0.000 A 
ATOM     32  C   UNL     1       2.945  15.930  21.496  0.00  0.00    +0.000 A 
ATOM     33  C   UNL     1       2.469  16.476  20.305  0.00  0.00    +0.000 A 
ATOM     34 CL   UNL     1       2.207  18.175  20.198  0.00  0.00    +0.000 Cl
ATOM     35  C   UNL     1       2.204  15.647  19.216  0.00  0.00    +0.000 A 
ATOM     36  F   UNL     1       1.742  16.169  18.067  0.00  0.00    +0.000 F 
ENDBRANCH  28  29
ENDBRANCH  26  28
ENDBRANCH   8  24
BRANCH   6  37
ATOM     37  N   UNL     1      -0.707   8.130  21.506  0.00  0.00    +0.000 NA
ATOM     38  H   UNL     1      -1.712   8.163  21.336  0.00  0.00    +0.000 HD
ATOM     39  H   UNL     1      -0.598   7.707  22.432  0.00  0.00    +0.000 HD
ENDBRANCH   6  37
BRANCH   7  40
ATOM     40  O   UNL     1      -0.884  11.761  21.166  0.00  0.00    +0.000 OA
ATOM     41  H   UNL     1      -1.380  12.372  20.594  0.00  0.00    +0.000 HD
ENDBRANCH   7  40
TORSDOF 6
ENDMDL
MODEL 3
REMARK VINA RESULT:      -8.5      1.169      1.411
REMARK  Name = 
REMARK  6 active torsions:
REMARK  status: ('A' for Active; 'I' for Inactive)
REMARK    1  A    between atoms: C_6  and  N_7
REMARK    2  A    between atoms: C_12  and  N_13
REMARK    3  A    between atoms: C_14  and  O_15
REMARK    4  A    between atoms: C_16  and  C_17
REMARK    5  A    between atoms: N_19  and  C_20
REMARK    6  A    between atoms: C_20  and  C_21
REMARK                            x       y       z     vdW  Elec       q    Type
REMARK                         _______ _______ _______ _____ _____    ______ ____
ROOT
ATOM      1  N   UNL     1       2.322   7.662  19.165  0.00  0.00    +0.000 N 
ATOM      2  C   UNL     1       1.659   8.763  18.663  0.00  0.00    +0.000 C 
ATOM      3  O   UNL     1       1.462   8.985  17.473  0.00  0.00    +0.000 OA
ATOM      4  N   UNL     1       1.143   9.613  19.632  0.00  0.00    +0.000 N 
ATOM      5  C   UNL     1       1.331   9.552  21.074  0.00  0.00    +0.000 C 
ATOM      6  C   UNL     1      -0.093   9.508  21.633  0.00  0.00    +0.000 C 
ATOM      7  C   UNL     1      -0.857  10.449  20.665  0.00  0.00    +0.000 C 
ATOM      8  C   UNL     1      -0.090  10.367  19.313  0.00  0.00    +0.000 C 
ATOM      9  H   UNL     1       2.157   7.412  20.124  0.00  0.00    +0.000 HD
ENDROOT
BRANCH   1  15
ATOM     10  N   UNL     1       5.543   6.307  15.254  0.00  0.00    +0.000 N 
ATOM     11  C   UNL     1       5.359   5.280  16.138  0.00  0.00    +0.000 C 
ATOM     12  O   UNL     1       5.951   4.213  16.122  0.00  0.00    +0.000 OA
ATOM     13  N   UNL     1       4.322   5.544  17.052  0.00  0.00    +0.000 N 
ATOM     14  C   UNL     1       4.004   6.785  17.581  0.00  0.00    +0.000 A 
ATOM     15  C   UNL     1       2.932   6.662  18.423  0.00  0.00    +0.000 A 
ATOM     16  C   UNL     1       2.539   5.288  18.409  0.00  0.00    +0.000 A 
ATOM     17  C   UNL     1       1.495   4.557  19.021  0.00  0.00    +0.000 A 
ATOM     18  C   UNL     1       1.346   3.192  18.752  0.00  0.00    +0.000 A 
ATOM     19  C   UNL     1       2.226   2.541  17.895  0.00  0.00    +0.000 A 
ATOM     20  C   UNL     1       3.280   3.233  17.293  0.00  0.00    +0.000 A 
ATOM     21  C   UNL     1       3.423   4.609  17.563  0.00  0.00    +0.000 A 
ATOM     22  H   UNL     1       6.163   6.124  14.474  0.00  0.00    +0.000 HD
ATOM     23  H   UNL     1       4.833   7.016  15.119  0.00  0.00    +0.000 HD
ENDBRANCH   1  15
BRANCH   8  24
ATOM     24  C   UNL     1       0.125  11.756  18.689  0.00  0.00    +0.000 C 
ATOM     25  O   UNL     1      -0.800  12.404  18.204  0.00  0.00    +0.000 OA
ATOM     26  N   UNL     1       1.379  12.301  18.912  0.00  0.00    +0.000 N 
ATOM     27  H   UNL     1       2.133  11.639  19.012  0.00  0.00    +0.000 HD
BRANCH  26  28
ATOM     28  C   UNL     1       1.697  13.657  18.511  0.00  0.00    +0.000 C 
BRANCH  28  29
ATOM     29  C   UNL     1       2.978  14.143  19.125  0.00  0.00    +0.000 A 
ATOM     30  C   UNL     1       4.073  14.498  18.323  0.00  0.00    +0.000 A 
ATOM     31  C   UNL     1       5.262  14.943  18.904  0.00  0.00    +0.000 A 
ATOM     32  C   UNL     1       5.376  15.027  20.293  0.00  0.00    +0.000 A 
ATOM     33  C   UNL     1       4.297  14.664  21.098  0.00  0.00    +0.000 A 
ATOM     34 CL   UNL     1       4.451  14.756  22.811  0.00  0.00    +0.000 Cl
ATOM     35  C   UNL     1       3.109  14.225  20.515  0.00  0.00    +0.000 A 
ATOM     36  F   UNL     1       2.068  13.872  21.287  0.00  0.00    +0.000 F 
ENDBRANCH  28  29
ENDBRANCH  26  28
ENDBRANCH   8  24
BRANCH   6  37
ATOM     37  N   UNL     1      -0.604   8.130  21.649  0.00  0.00    +0.000 NA
ATOM     38  H   UNL     1      -1.621   8.122  21.561  0.00  0.00    +0.000 HD
ATOM     39  H   UNL     1      -0.404   7.716  22.564  0.00  0.00    +0.000 HD
ENDBRANCH   6  37
BRANCH   7  40
ATOM     40  O   UNL     1      -0.941  11.744  21.263  0.00  0.00    +0.000 OA
ATOM     41  H   UNL     1      -0.168  12.275  21.002  0.00  0.00    +0.000 HD
ENDBRANCH   7  40
TORSDOF 6
ENDMDL
MODEL 4
REMARK VINA RESULT:      -8.5      1.911      2.194
REMARK  Name = 
REMARK  6 active torsions:
REMARK  status: ('A' for Active; 'I' for Inactive)
REMARK    1  A    between atoms: C_6  and  N_7
REMARK    2  A    between atoms: C_12  and  N_13
REMARK    3  A    between atoms: C_14  and  O_15
REMARK    4  A    between atoms: C_16  and  C_17
REMARK    5  A    between atoms: N_19  and  C_20
REMARK    6  A    between atoms: C_20  and  C_21
REMARK                            x       y       z     vdW  Elec       q    Type
REMARK                         _______ _______ _______ _____ _____    ______ ____
ROOT
ATOM      1  N   UNL     1       2.128   7.319  20.286  0.00  0.00    +0.000 N 
ATOM      2  C   UNL     1       1.847   8.615  19.905  0.00  0.00    +0.000 C 
ATOM      3  O   UNL     1       1.883   9.036  18.754  0.00  0.00    +0.000 OA
ATOM      4  N   UNL     1       1.435   9.441  20.944  0.00  0.00    +0.000 N 
ATOM      5  C   UNL     1       1.396   9.143  22.368  0.00  0.00    +0.000 C 
ATOM      6  C   UNL     1      -0.055   9.419  22.765  0.00  0.00    +0.000 C 
ATOM      7  C   UNL     1      -0.408  10.652  21.892  0.00  0.00    +0.000 C 
ATOM      8  C   UNL     1       0.494  10.539  20.629  0.00  0.00    +0.000 C 
ATOM      9  H   UNL     1       1.771   7.001  21.169  0.00  0.00    +0.000 HD
ENDROOT
BRANCH   1  15
ATOM     10  N   UNL     1       4.821   5.813  16.044  0.00  0.00    +0.000 N 
ATOM     11  C   UNL     1       4.610   4.774  16.906  0.00  0.00    +0.000 C 
ATOM     12  O   UNL     1       5.082   3.653  16.798  0.00  0.00    +0.000 OA
ATOM     13  N   UNL     1       3.694   5.102  17.922  0.00  0.00    +0.000 N 
ATOM     14  C   UNL     1       3.558   6.345  18.520  0.00  0.00    +0.000 A 
ATOM     15  C   UNL     1       2.560   6.295  19.456  0.00  0.00    +0.000 A 
ATOM     16  C   UNL     1       2.024   4.970  19.432  0.00  0.00    +0.000 A 
ATOM     17  C   UNL     1       0.968   4.323  20.115  0.00  0.00    +0.000 A 
ATOM     18  C   UNL     1       0.652   2.993  19.815  0.00  0.00    +0.000 A 
ATOM     19  C   UNL     1       1.377   2.294  18.858  0.00  0.00    +0.000 A 
ATOM     20  C   UNL     1       2.439   2.901  18.182  0.00  0.00    +0.000 A 
ATOM     21  C   UNL     1       2.751   4.242  18.484  0.00  0.00    +0.000 A 
ATOM     22  H   UNL     1       5.345   5.603  15.204  0.00  0.00    +0.000 HD
ATOM     23  H   UNL     1       4.180   6.597  16.001  0.00  0.00    +0.000 HD
ENDBRANCH   1  15
BRANCH   8  24
ATOM     24  C   UNL     1       1.145  11.884  20.266  0.00  0.00    +0.000 C 
ATOM     25  O   UNL     1       1.814  12.525  21.074  0.00  0.00    +0.000 OA
ATOM     26  N   UNL     1       1.101  12.203  18.918  0.00  0.00    +0.000 N 
ATOM     27  H   UNL     1       0.312  11.836  18.407  0.00  0.00    +0.000 HD
BRANCH  26  28
ATOM     28  C   UNL     1       1.788  13.366  18.392  0.00  0.00    +0.000 C 
BRANCH  28  29
ATOM     29  C   UNL     1       1.178  14.649  18.877  0.00  0.00    +0.000 A 
ATOM     30  C   UNL     1      -0.202  14.878  18.764  0.00  0.00    +0.000 A 
ATOM     31  C   UNL     1      -0.760  16.078  19.213  0.00  0.00    +0.000 A 
ATOM     32  C   UNL     1       0.056  17.066  19.769  0.00  0.00    +0.000 A 
ATOM     33  C   UNL     1       1.430  16.851  19.873  0.00  0.00    +0.000 A 
ATOM     34 CL   UNL     1       2.430  18.081  20.545  0.00  0.00    +0.000 Cl
ATOM     35  C   UNL     1       1.982  15.650  19.429  0.00  0.00    +0.000 A 
ATOM     36  F   UNL     1       3.306  15.441  19.525  0.00  0.00    +0.000 F 
ENDBRANCH  28  29
ENDBRANCH  26  28
ENDBRANCH   8  24
BRANCH   6  37
ATOM     37  N   UNL     1      -0.900   8.245  22.504  0.00  0.00    +0.000 NA
ATOM     38  H   UNL     1      -1.237   8.250  21.541  0.00  0.00    +0.000 HD
ATOM     39  H   UNL     1      -1.739   8.307  23.090  0.00  0.00    +0.000 HD
ENDBRANCH   6  37
BRANCH   7  40
ATOM     40  O   UNL     1      -0.240  11.831  22.682  0.00  0.00    +0.000 OA
ATOM     41  H   UNL     1      -1.082  12.318  22.723  0.00  0.00    +0.000 HD
ENDBRANCH   7  40
TORSDOF 6
ENDMDL
MODEL 5
REMARK VINA RESULT:      -8.4      0.936      1.019
REMARK  Name = 
REMARK  6 active torsions:
REMARK  status: ('A' for Active; 'I' for Inactive)
REMARK    1  A    between atoms: C_6  and  N_7
REMARK    2  A    between atoms: C_12  and  N_13
REMARK    3  A    between atoms: C_14  and  O_15
REMARK    4  A    between atoms: C_16  and  C_17
REMARK    5  A    between atoms: N_19  and  C_20
REMARK    6  A    between atoms: C_20  and  C_21
REMARK                            x       y       z     vdW  Elec       q    Type
REMARK                         _______ _______ _______ _____ _____    ______ ____
ROOT
ATOM      1  N   UNL     1       2.045   7.635  20.189  0.00  0.00    +0.000 N 
ATOM      2  C   UNL     1       1.431   8.731  19.620  0.00  0.00    +0.000 C 
ATOM      3  O   UNL     1       1.197   8.867  18.424  0.00  0.00    +0.000 OA
ATOM      4  N   UNL     1       1.010   9.691  20.532  0.00  0.00    +0.000 N 
ATOM      5  C   UNL     1       1.255   9.737  21.966  0.00  0.00    +0.000 C 
ATOM      6  C   UNL     1      -0.143   9.832  22.579  0.00  0.00    +0.000 C 
ATOM      7  C   UNL     1      -0.887  10.739  21.563  0.00  0.00    +0.000 C 
ATOM      8  C   UNL     1      -0.186  10.495  20.196  0.00  0.00    +0.000 C 
ATOM      9  H   UNL     1       1.906   7.476  21.171  0.00  0.00    +0.000 HD
ENDROOT
BRANCH   1  15
ATOM     10  N   UNL     1       4.855   5.749  16.182  0.00  0.00    +0.000 N 
ATOM     11  C   UNL     1       4.730   4.833  17.190  0.00  0.00    +0.000 C 
ATOM     12  O   UNL     1       5.292   3.751  17.241  0.00  0.00    +0.000 OA
ATOM     13  N   UNL     1       3.789   5.231  18.157  0.00  0.00    +0.000 N 
ATOM     14  C   UNL     1       3.551   6.533  18.569  0.00  0.00    +0.000 A 
ATOM     15  C   UNL     1       2.560   6.539  19.513  0.00  0.00    +0.000 A 
ATOM     16  C   UNL     1       2.134   5.186  19.689  0.00  0.00    +0.000 A 
ATOM     17  C   UNL     1       1.134   4.563  20.471  0.00  0.00    +0.000 A 
ATOM     18  C   UNL     1       0.929   3.182  20.372  0.00  0.00    +0.000 A 
ATOM     19  C   UNL     1       1.710   2.411  19.518  0.00  0.00    +0.000 A 
ATOM     20  C   UNL     1       2.719   2.997  18.750  0.00  0.00    +0.000 A 
ATOM     21  C   UNL     1       2.919   4.388  18.849  0.00  0.00    +0.000 A 
ATOM     22  H   UNL     1       5.395   5.461  15.376  0.00  0.00    +0.000 HD
ATOM     23  H   UNL     1       4.152   6.462  16.032  0.00  0.00    +0.000 HD
ENDBRANCH   1  15
BRANCH   8  24
ATOM     24  C   UNL     1       0.089  11.811  19.449  0.00  0.00    +0.000 C 
ATOM     25  O   UNL     1      -0.764  12.689  19.340  0.00  0.00    +0.000 OA
ATOM     26  N   UNL     1       1.415  12.015  19.106  0.00  0.00    +0.000 N 
ATOM     27  H   UNL     1       1.957  11.181  18.935  0.00  0.00    +0.000 HD
BRANCH  26  28
ATOM     28  C   UNL     1       1.863  13.264  18.523  0.00  0.00    +0.000 C 
BRANCH  28  29
ATOM     29  C   UNL     1       2.906  13.940  19.365  0.00  0.00    +0.000 A 
ATOM     30  C   UNL     1       2.964  13.723  20.750  0.00  0.00    +0.000 A 
ATOM     31  C   UNL     1       3.935  14.361  21.527  0.00  0.00    +0.000 A 
ATOM     32  C   UNL     1       4.850  15.231  20.930  0.00  0.00    +0.000 A 
ATOM     33  C   UNL     1       4.791  15.461  19.557  0.00  0.00    +0.000 A 
ATOM     34 CL   UNL     1       5.914  16.547  18.832  0.00  0.00    +0.000 Cl
ATOM     35  C   UNL     1       3.824  14.818  18.784  0.00  0.00    +0.000 A 
ATOM     36  F   UNL     1       3.762  15.040  17.460  0.00  0.00    +0.000 F 
ENDBRANCH  28  29
ENDBRANCH  26  28
ENDBRANCH   8  24
BRANCH   6  37
ATOM     37  N   UNL     1      -0.738   8.497  22.732  0.00  0.00    +0.000 NA
ATOM     38  H   UNL     1      -1.747   8.534  22.586  0.00  0.00    +0.000 HD
ATOM     39  H   UNL     1      -0.611   8.189  23.700  0.00  0.00    +0.000 HD
ENDBRANCH   6  37
BRANCH   7  40
ATOM     40  O   UNL     1      -0.865  12.081  22.052  0.00  0.00    +0.000 OA
ATOM     41  H   UNL     1      -1.756  12.468  21.983  0.00  0.00    +0.000 HD
ENDBRANCH   7  40
TORSDOF 6
ENDMDL
MODEL 6
REMARK VINA RESULT:      -8.3      4.281      5.819
REMARK  Name = 
REMARK  6 active torsions:
REMARK  status: ('A' for Active; 'I' for Inactive)
REMARK    1  A    between atoms: C_6  and  N_7
REMARK    2  A    between atoms: C_12  and  N_13
REMARK    3  A    between atoms: C_14  and  O_15
REMARK    4  A    between atoms: C_16  and  C_17
REMARK    5  A    between atoms: N_19  and  C_20
REMARK    6  A    between atoms: C_20  and  C_21
REMARK                            x       y       z     vdW  Elec       q    Type
REMARK                         _______ _______ _______ _____ _____    ______ ____
ROOT
ATOM      1  N   UNL     1       1.797   7.922  19.298  0.00  0.00    +0.000 N 
ATOM      2  C   UNL     1       1.406   8.605  20.431  0.00  0.00    +0.000 C 
ATOM      3  O   UNL     1       1.765   8.340  21.573  0.00  0.00    +0.000 OA
ATOM      4  N   UNL     1       0.595   9.706  20.186  0.00  0.00    +0.000 N 
ATOM      5  C   UNL     1       0.015  10.132  18.921  0.00  0.00    +0.000 C 
ATOM      6  C   UNL     1       0.496  11.575  18.760  0.00  0.00    +0.000 C 
ATOM      7  C   UNL     1       0.454  12.102  20.219  0.00  0.00    +0.000 C 
ATOM      8  C   UNL     1       0.676  10.852  21.119  0.00  0.00    +0.000 C 
ATOM      9  H   UNL     1       1.714   8.393  18.414  0.00  0.00    +0.000 HD
ENDROOT
BRANCH   1  15
ATOM     10  N   UNL     1       5.925   5.423  17.243  0.00  0.00    +0.000 N 
ATOM     11  C   UNL     1       5.555   4.887  18.445  0.00  0.00    +0.000 C 
ATOM     12  O   UNL     1       6.160   4.020  19.054  0.00  0.00    +0.000 OA
ATOM     13  N   UNL     1       4.317   5.384  18.891  0.00  0.00    +0.000 N 
ATOM     14  C   UNL     1       3.844   6.673  18.697  0.00  0.00    +0.000 A 
ATOM     15  C   UNL     1       2.600   6.792  19.256  0.00  0.00    +0.000 A 
ATOM     16  C   UNL     1       2.260   5.517  19.807  0.00  0.00    +0.000 A 
ATOM     17  C   UNL     1       1.116   5.000  20.458  0.00  0.00    +0.000 A 
ATOM     18  C   UNL     1       1.076   3.653  20.835  0.00  0.00    +0.000 A 
ATOM     19  C   UNL     1       2.158   2.818  20.587  0.00  0.00    +0.000 A 
ATOM     20  C   UNL     1       3.310   3.306  19.964  0.00  0.00    +0.000 A 
ATOM     21  C   UNL     1       3.344   4.662  19.582  0.00  0.00    +0.000 A 
ATOM     22  H   UNL     1       6.724   4.999  16.788  0.00  0.00    +0.000 HD
ATOM     23  H   UNL     1       5.252   5.889  16.647  0.00  0.00    +0.000 HD
ENDBRANCH   1  15
BRANCH   8  24
ATOM     24  C   UNL     1      -0.306  10.814  22.301  0.00  0.00    +0.000 C 
ATOM     25  O   UNL     1      -0.062  10.191  23.333  0.00  0.00    +0.000 OA
ATOM     26  N   UNL     1      -1.367  11.700  22.200  0.00  0.00    +0.000 N 
ATOM     27  H   UNL     1      -1.669  11.916  21.262  0.00  0.00    +0.000 HD
BRANCH  26  28
ATOM     28  C   UNL     1      -2.304  11.887  23.290  0.00  0.00    +0.000 C 
BRANCH  28  29
ATOM     29  C   UNL     1      -3.625  12.417  22.815  0.00  0.00    +0.000 A 
ATOM     30  C   UNL     1      -3.826  12.746  21.466  0.00  0.00    +0.000 A 
ATOM     31  C   UNL     1      -5.058  13.244  21.034  0.00  0.00    +0.000 A 
ATOM     32  C   UNL     1      -6.099  13.429  21.947  0.00  0.00    +0.000 A 
ATOM     33  C   UNL     1      -5.903  13.116  23.291  0.00  0.00    +0.000 A 
ATOM     34 CL   UNL     1      -7.188  13.360  24.412  0.00  0.00    +0.000 Cl
ATOM     35  C   UNL     1      -4.675  12.613  23.718  0.00  0.00    +0.000 A 
ATOM     36  F   UNL     1      -4.482  12.313  25.013  0.00  0.00    +0.000 F 
ENDBRANCH  28  29
ENDBRANCH  26  28
ENDBRANCH   8  24
BRANCH   6  37
ATOM     37  N   UNL     1       1.834  11.615  18.152  0.00  0.00    +0.000 NA
ATOM     38  H   UNL     1       2.100  10.692  17.807  0.00  0.00    +0.000 HD
ATOM     39  H   UNL     1       2.519  11.845  18.878  0.00  0.00    +0.000 HD
ENDBRANCH   6  37
BRANCH   7  40
ATOM     40  O   UNL     1      -0.774  12.807  20.411  0.00  0.00    +0.000 OA
ATOM     41  H   UNL     1      -1.460  12.429  19.834  0.00  0.00    +0.000 HD
ENDBRANCH   7  40
TORSDOF 6
ENDMDL
MODEL 7
REMARK VINA RESULT:      -8.3      1.621      1.787
REMARK  Name = 
REMARK  6 active torsions:
REMARK  status: ('A' for Active; 'I' for Inactive)
REMARK    1  A    between atoms: C_6  and  N_7
REMARK    2  A    between atoms: C_12  and  N_13
REMARK    3  A    between atoms: C_14  and  O_15
REMARK    4  A    between atoms: C_16  and  C_17
REMARK    5  A    between atoms: N_19  and  C_20
REMARK    6  A    between atoms: C_20  and  C_21
REMARK                            x       y       z     vdW  Elec       q    Type
REMARK                         _______ _______ _______ _____ _____    ______ ____
ROOT
ATOM      1  N   UNL     1       2.345   7.576  19.185  0.00  0.00    +0.000 N 
ATOM      2  C   UNL     1       1.748   8.722  18.702  0.00  0.00    +0.000 C 
ATOM      3  O   UNL     1       1.615   9.002  17.516  0.00  0.00    +0.000 OA
ATOM      4  N   UNL     1       1.218   9.550  19.684  0.00  0.00    +0.000 N 
ATOM      5  C   UNL     1       1.335   9.420  21.129  0.00  0.00    +0.000 C 
ATOM      6  C   UNL     1      -0.115   9.408  21.619  0.00  0.00    +0.000 C 
ATOM      7  C   UNL     1      -0.796  10.419  20.659  0.00  0.00    +0.000 C 
ATOM      8  C   UNL     1       0.030  10.364  19.342  0.00  0.00    +0.000 C 
ATOM      9  H   UNL     1       2.125   7.291  20.124  0.00  0.00    +0.000 HD
ENDROOT
BRANCH   1  15
ATOM     10  N   UNL     1       5.580   6.268  15.270  0.00  0.00    +0.000 N 
ATOM     11  C   UNL     1       5.383   5.227  16.134  0.00  0.00    +0.000 C 
ATOM     12  O   UNL     1       5.966   4.156  16.101  0.00  0.00    +0.000 OA
ATOM     13  N   UNL     1       4.342   5.482  17.045  0.00  0.00    +0.000 N 
ATOM     14  C   UNL     1       4.030   6.715  17.595  0.00  0.00    +0.000 A 
ATOM     15  C   UNL     1       2.952   6.585  18.429  0.00  0.00    +0.000 A 
ATOM     16  C   UNL     1       2.548   5.214  18.387  0.00  0.00    +0.000 A 
ATOM     17  C   UNL     1       1.494   4.480  18.979  0.00  0.00    +0.000 A 
ATOM     18  C   UNL     1       1.337   3.121  18.683  0.00  0.00    +0.000 A 
ATOM     19  C   UNL     1       2.218   2.480  17.820  0.00  0.00    +0.000 A 
ATOM     20  C   UNL     1       3.280   3.175  17.237  0.00  0.00    +0.000 A 
ATOM     21  C   UNL     1       3.432   4.544  17.534  0.00  0.00    +0.000 A 
ATOM     22  H   UNL     1       6.204   6.096  14.491  0.00  0.00    +0.000 HD
ATOM     23  H   UNL     1       4.876   6.985  15.144  0.00  0.00    +0.000 HD
ENDBRANCH   1  15
BRANCH   8  24
ATOM     24  C   UNL     1       0.327  11.769  18.791  0.00  0.00    +0.000 C 
ATOM     25  O   UNL     1      -0.558  12.491  18.334  0.00  0.00    +0.000 OA
ATOM     26  N   UNL     1       1.607  12.232  19.047  0.00  0.00    +0.000 N 
ATOM     27  H   UNL     1       2.322  11.525  19.117  0.00  0.00    +0.000 HD
BRANCH  26  28
ATOM     28  C   UNL     1       2.002  13.587  18.717  0.00  0.00    +0.000 C 
BRANCH  28  29
ATOM     29  C   UNL     1       2.399  14.372  19.934  0.00  0.00    +0.000 A 
ATOM     30  C   UNL     1       3.750  14.589  20.242  0.00  0.00    +0.000 A 
ATOM     31  C   UNL     1       4.110  15.316  21.380  0.00  0.00    +0.000 A 
ATOM     32  C   UNL     1       3.124  15.823  22.228  0.00  0.00    +0.000 A 
ATOM     33  C   UNL     1       1.778  15.602  21.936  0.00  0.00    +0.000 A 
ATOM     34 CL   UNL     1       0.570  16.219  22.996  0.00  0.00    +0.000 Cl
ATOM     35  C   UNL     1       1.423  14.881  20.797  0.00  0.00    +0.000 A 
ATOM     36  F   UNL     1       0.128  14.663  20.513  0.00  0.00    +0.000 F 
ENDBRANCH  28  29
ENDBRANCH  26  28
ENDBRANCH   8  24
BRANCH   6  37
ATOM     37  N   UNL     1      -0.677   8.051  21.551  0.00  0.00    +0.000 NA
ATOM     38  H   UNL     1      -0.312   7.473  22.307  0.00  0.00    +0.000 HD
ATOM     39  H   UNL     1      -0.358   7.606  20.685  0.00  0.00    +0.000 HD
ENDBRANCH   6  37
BRANCH   7  40
ATOM     40  O   UNL     1      -0.860  11.689  21.310  0.00  0.00    +0.000 OA
ATOM     41  H   UNL     1      -0.114  11.778  21.928  0.00  0.00    +0.000 HD
ENDBRANCH   7  40
TORSDOF 6
ENDMDL
MODEL 8
REMARK VINA RESULT:      -8.3      1.774      1.921
REMARK  Name = 
REMARK  6 active torsions:
REMARK  status: ('A' for Active; 'I' for Inactive)
REMARK    1  A    between atoms: C_6  and  N_7
REMARK    2  A    between atoms: C_12  and  N_13
REMARK    3  A    between atoms: C_14  and  O_15
REMARK    4  A    between atoms: C_16  and  C_17
REMARK    5  A    between atoms: N_19  and  C_20
REMARK    6  A    between atoms: C_20  and  C_21
REMARK                            x       y       z     vdW  Elec       q    Type
REMARK                         _______ _______ _______ _____ _____    ______ ____
ROOT
ATOM      1  N   UNL     1       2.383   7.373  19.302  0.00  0.00    +0.000 N 
ATOM      2  C   UNL     1       1.845   8.560  18.849  0.00  0.00    +0.000 C 
ATOM      3  O   UNL     1       1.733   8.880  17.671  0.00  0.00    +0.000 OA
ATOM      4  N   UNL     1       1.350   9.385  19.852  0.00  0.00    +0.000 N 
ATOM      5  C   UNL     1       1.452   9.209  21.293  0.00  0.00    +0.000 C 
ATOM      6  C   UNL     1       0.001   9.253  21.776  0.00  0.00    +0.000 C 
ATOM      7  C   UNL     1      -0.625  10.322  20.843  0.00  0.00    +0.000 C 
ATOM      8  C   UNL     1       0.205  10.265  19.528  0.00  0.00    +0.000 C 
ATOM      9  H   UNL     1       2.144   7.073  20.231  0.00  0.00    +0.000 HD
ENDROOT
BRANCH   1  15
ATOM     10  N   UNL     1       5.424   6.031  15.245  0.00  0.00    +0.000 N 
ATOM     11  C   UNL     1       5.257   4.993  16.118  0.00  0.00    +0.000 C 
ATOM     12  O   UNL     1       5.827   3.916  16.061  0.00  0.00    +0.000 OA
ATOM     13  N   UNL     1       4.261   5.258  17.076  0.00  0.00    +0.000 N 
ATOM     14  C   UNL     1       3.986   6.495  17.638  0.00  0.00    +0.000 A 
ATOM     15  C   UNL     1       2.946   6.376  18.520  0.00  0.00    +0.000 A 
ATOM     16  C   UNL     1       2.528   5.009  18.498  0.00  0.00    +0.000 A 
ATOM     17  C   UNL     1       1.495   4.286  19.139  0.00  0.00    +0.000 A 
ATOM     18  C   UNL     1       1.312   2.928  18.852  0.00  0.00    +0.000 A 
ATOM     19  C   UNL     1       2.146   2.277  17.951  0.00  0.00    +0.000 A 
ATOM     20  C   UNL     1       3.187   2.962  17.319  0.00  0.00    +0.000 A 
ATOM     21  C   UNL     1       3.366   4.330  17.607  0.00  0.00    +0.000 A 
ATOM     22  H   UNL     1       6.010   5.852  14.439  0.00  0.00    +0.000 HD
ATOM     23  H   UNL     1       4.721   6.755  15.150  0.00  0.00    +0.000 HD
ENDBRANCH   1  15
BRANCH   8  24
ATOM     24  C   UNL     1       0.572  11.669  19.019  0.00  0.00    +0.000 C 
ATOM     25  O   UNL     1       1.708  11.950  18.641  0.00  0.00    +0.000 OA
ATOM     26  N   UNL     1      -0.509  12.512  18.817  0.00  0.00    +0.000 N 
ATOM     27  H   UNL     1      -1.306  12.352  19.415  0.00  0.00    +0.000 HD
BRANCH  26  28
ATOM     28  C   UNL     1      -0.347  13.818  18.212  0.00  0.00    +0.000 C 
BRANCH  28  29
ATOM     29  C   UNL     1      -0.034  14.877  19.229  0.00  0.00    +0.000 A 
ATOM     30  C   UNL     1      -0.989  15.270  20.178  0.00  0.00    +0.000 A 
ATOM     31  C   UNL     1      -0.690  16.260  21.116  0.00  0.00    +0.000 A 
ATOM     32  C   UNL     1       0.563  16.878  21.110  0.00  0.00    +0.000 A 
ATOM     33  C   UNL     1       1.514  16.502  20.162  0.00  0.00    +0.000 A 
ATOM     34 CL   UNL     1       3.050  17.279  20.151  0.00  0.00    +0.000 Cl
ATOM     35  C   UNL     1       1.214  15.509  19.230  0.00  0.00    +0.000 A 
ATOM     36  F   UNL     1       2.126  15.147  18.313  0.00  0.00    +0.000 F 
ENDBRANCH  28  29
ENDBRANCH  26  28
ENDBRANCH   8  24
BRANCH   6  37
ATOM     37  N   UNL     1      -0.625   7.928  21.667  0.00  0.00    +0.000 NA
ATOM     38  H   UNL     1      -1.041   7.801  20.744  0.00  0.00    +0.000 HD
ATOM     39  H   UNL     1      -1.405   7.877  22.329  0.00  0.00    +0.000 HD
ENDBRANCH   6  37
BRANCH   7  40
ATOM     40  O   UNL     1      -0.631  11.576  21.530  0.00  0.00    +0.000 OA
ATOM     41  H   UNL     1       0.239  11.729  21.937  0.00  0.00    +0.000 HD
ENDBRANCH   7  40
TORSDOF 6
ENDMDL
MODEL 9
REMARK VINA RESULT:      -8.3      1.172      1.315
REMARK  Name = 
REMARK  6 active torsions:
REMARK  status: ('A' for Active; 'I' for Inactive)
REMARK    1  A    between atoms: C_6  and  N_7
REMARK    2  A    between atoms: C_12  and  N_13
REMARK    3  A    between atoms: C_14  and  O_15
REMARK    4  A    between atoms: C_16  and  C_17
REMARK    5  A    between atoms: N_19  and  C_20
REMARK    6  A    between atoms: C_20  and  C_21
REMARK                            x       y       z     vdW  Elec       q    Type
REMARK                         _______ _______ _______ _____ _____    ______ ____
ROOT
ATOM      1  N   UNL     1       2.210   7.894  19.211  0.00  0.00    +0.000 N 
ATOM      2  C   UNL     1       1.423   8.917  18.725  0.00  0.00    +0.000 C 
ATOM      3  O   UNL     1       1.120   9.077  17.548  0.00  0.00    +0.000 OA
ATOM      4  N   UNL     1       0.911   9.761  19.703  0.00  0.00    +0.000 N 
ATOM      5  C   UNL     1       1.210   9.771  21.128  0.00  0.00    +0.000 C 
ATOM      6  C   UNL     1      -0.160   9.635  21.795  0.00  0.00    +0.000 C 
ATOM      7  C   UNL     1      -1.068  10.474  20.859  0.00  0.00    +0.000 C 
ATOM      8  C   UNL     1      -0.400  10.400  19.455  0.00  0.00    +0.000 C 
ATOM      9  H   UNL     1       2.138   7.668  20.187  0.00  0.00    +0.000 HD
ENDROOT
BRANCH   1  15
ATOM     10  N   UNL     1       5.453   6.663  15.276  0.00  0.00    +0.000 N 
ATOM     11  C   UNL     1       5.299   5.624  16.151  0.00  0.00    +0.000 C 
ATOM     12  O   UNL     1       5.919   4.572  16.122  0.00  0.00    +0.000 OA
ATOM     13  N   UNL     1       4.259   5.851  17.070  0.00  0.00    +0.000 N 
ATOM     14  C   UNL     1       3.909   7.078  17.612  0.00  0.00    +0.000 A 
ATOM     15  C   UNL     1       2.844   6.918  18.457  0.00  0.00    +0.000 A 
ATOM     16  C   UNL     1       2.487   5.533  18.431  0.00  0.00    +0.000 A 
ATOM     17  C   UNL     1       1.465   4.769  19.039  0.00  0.00    +0.000 A 
ATOM     18  C   UNL     1       1.352   3.403  18.756  0.00  0.00    +0.000 A 
ATOM     19  C   UNL     1       2.246   2.784  17.891  0.00  0.00    +0.000 A 
ATOM     20  C   UNL     1       3.279   3.510  17.292  0.00  0.00    +0.000 A 
ATOM     21  C   UNL     1       3.386   4.886  17.575  0.00  0.00    +0.000 A 
ATOM     22  H   UNL     1       6.074   6.505  14.493  0.00  0.00    +0.000 HD
ATOM     23  H   UNL     1       4.723   7.354  15.150  0.00  0.00    +0.000 HD
ENDBRANCH   1  15
BRANCH   8  24
ATOM     24  C   UNL     1      -0.347  11.777  18.772  0.00  0.00    +0.000 C 
ATOM     25  O   UNL     1      -1.185  12.128  17.944  0.00  0.00    +0.000 OA
ATOM     26  N   UNL     1       0.575  12.658  19.316  0.00  0.00    +0.000 N 
ATOM     27  H   UNL     1       1.392  12.235  19.730  0.00  0.00    +0.000 HD
BRANCH  26  28
ATOM     28  C   UNL     1       0.653  14.037  18.879  0.00  0.00    +0.000 C 
BRANCH  28  29
ATOM     29  C   UNL     1       2.061  14.558  18.904  0.00  0.00    +0.000 A 
ATOM     30  C   UNL     1       3.080  13.916  18.185  0.00  0.00    +0.000 A 
ATOM     31  C   UNL     1       4.388  14.405  18.220  0.00  0.00    +0.000 A 
ATOM     32  C   UNL     1       4.695  15.534  18.982  0.00  0.00    +0.000 A 
ATOM     33  C   UNL     1       3.691  16.171  19.710  0.00  0.00    +0.000 A 
ATOM     34 CL   UNL     1       4.081  17.554  20.659  0.00  0.00    +0.000 Cl
ATOM     35  C   UNL     1       2.385  15.683  19.668  0.00  0.00    +0.000 A 
ATOM     36  F   UNL     1       1.415  16.293  20.370  0.00  0.00    +0.000 F 
ENDBRANCH  28  29
ENDBRANCH  26  28
ENDBRANCH   8  24
BRANCH   6  37
ATOM     37  N   UNL     1      -0.553   8.222  21.896  0.00  0.00    +0.000 NA
ATOM     38  H   UNL     1      -0.439   7.752  20.997  0.00  0.00    +0.000 HD
ATOM     39  H   UNL     1      -1.554   8.173  22.107  0.00  0.00    +0.000 HD
ENDBRANCH   6  37
BRANCH   7  40
ATOM     40  O   UNL     1      -1.214  11.780  21.419  0.00  0.00    +0.000 OA
ATOM     41  H   UNL     1      -1.845  12.295  20.886  0.00  0.00    +0.000 HD
ENDBRANCH   7  40
TORSDOF 6
ENDMDL
