MODEL 1
REMARK VINA RESULT:      -8.0      0.000      0.000
REMARK  Name = 
REMARK  6 active torsions:
REMARK  status: ('A' for Active; 'I' for Inactive)
REMARK    1  A    between atoms: C_2  and  C_13
REMARK    2  A    between atoms: N_3  and  C_4
REMARK    3  A    between atoms: C_4  and  C_5
REMARK    4  A    between atoms: C_5  and  C_6
REMARK    5  A    between atoms: C_6  and  N_7
REMARK    6  A    between atoms: C_22  and  O_23
REMARK                            x       y       z     vdW  Elec       q    Type
REMARK                         _______ _______ _______ _____ _____    ______ ____
ROOT
ATOM      1  O   UNL     1       7.899   4.952  18.575  0.00  0.00    +0.000 OA
ATOM      2  C   UNL     1       6.895   5.621  18.304  0.00  0.00    +0.000 C 
ATOM      3  N   UNL     1       6.943   6.953  17.946  0.00  0.00    +0.000 N 
ATOM      4  H   UNL     1       6.061   7.472  18.005  0.00  0.00    +0.000 HD
ENDROOT
BRANCH   2   5
ATOM      5  C   UNL     1       5.556   4.986  18.303  0.00  0.00    +0.000 A 
ATOM      6  C   UNL     1       4.658   5.317  19.329  0.00  0.00    +0.000 A 
ATOM      7  C   UNL     1       3.386   4.729  19.390  0.00  0.00    +0.000 A 
ATOM      8  C   UNL     1       2.486   5.028  20.425  0.00  0.00    +0.000 A 
ATOM      9  C   UNL     1       1.225   4.431  20.472  0.00  0.00    +0.000 A 
ATOM     10  C   UNL     1       0.848   3.524  19.486  0.00  0.00    +0.000 A 
ATOM     11  C   UNL     1       1.728   3.216  18.448  0.00  0.00    +0.000 A 
ATOM     12  C   UNL     1       3.001   3.806  18.386  0.00  0.00    +0.000 A 
ATOM     13  C   UNL     1       3.895   3.494  17.350  0.00  0.00    +0.000 A 
ATOM     14  C   UNL     1       5.166   4.070  17.318  0.00  0.00    +0.000 A 
BRANCH  14  15
ATOM     15  O   UNL     1       6.035   3.727  16.315  0.00  0.00    +0.000 OA
ATOM     16  H   UNL     1       5.586   3.126  15.693  0.00  0.00    +0.000 HD
ENDBRANCH  14  15
ENDBRANCH   2   5
BRANCH   3  17
ATOM     17  C   UNL     1       8.186   7.668  17.942  0.00  0.00    +0.000 C 
BRANCH  17  18
ATOM     18  C   UNL     1       7.968   9.168  17.947  0.00  0.00    +0.000 C 
BRANCH  18  19
ATOM     19  C   UNL     1       9.007   9.832  18.851  0.00  0.00    +0.000 C 
BRANCH  19  20
ATOM     20  N   UNL     1       9.158  11.265  18.553  0.00  0.00    +0.000 NA
ATOM     21  C   UNL     1      10.417  11.562  17.831  0.00  0.00    +0.000 C 
ATOM     22  C   UNL     1      11.683  11.397  18.691  0.00  0.00    +0.000 C 
ATOM     23  O   UNL     1      11.611  12.186  19.885  0.00  0.00    +0.000 OA
ATOM     24  C   UNL     1      10.435  11.868  20.640  0.00  0.00    +0.000 C 
ATOM     25  C   UNL     1       9.164  12.073  19.796  0.00  0.00    +0.000 C 
ENDBRANCH  19  20
ENDBRANCH  18  19
ENDBRANCH  17  18
ENDBRANCH   3  17
TORSDOF 6
ENDMDL
MODEL 2
REMARK VINA RESULT:      -7.8      1.252      1.717
REMARK  Name = 
REMARK  6 active torsions:
REMARK  status: ('A' for Active; 'I' for Inactive)
REMARK    1  A    between atoms: C_2  and  C_13
REMARK    2  A    between atoms: N_3  and  C_4
REMARK    3  A    between atoms: C_4  and  C_5
REMARK    4  A    between atoms: C_5  and  C_6
REMARK    5  A    between atoms: C_6  and  N_7
REMARK    6  A    between atoms: C_22  and  O_23
REMARK                            x       y       z     vdW  Elec       q    Type
REMARK                         _______ _______ _______ _____ _____    ______ ____
ROOT
ATOM      1  O   UNL     1       5.711   6.733  15.676  0.00  0.00    +0.000 OA
ATOM      2  C   UNL     1       5.778   6.407  16.867  0.00  0.00    +0.000 C 
ATOM      3  N   UNL     1       6.678   6.962  17.756  0.00  0.00    +0.000 N 
ATOM      4  H   UNL     1       6.832   6.444  18.627  0.00  0.00    +0.000 HD
ENDROOT
BRANCH   2   5
ATOM      5  C   UNL     1       4.833   5.410  17.421  0.00  0.00    +0.000 A 
ATOM      6  C   UNL     1       3.895   5.833  18.374  0.00  0.00    +0.000 A 
ATOM      7  C   UNL     1       2.992   4.926  18.948  0.00  0.00    +0.000 A 
ATOM      8  C   UNL     1       2.065   5.329  19.923  0.00  0.00    +0.000 A 
ATOM      9  C   UNL     1       1.176   4.412  20.486  0.00  0.00    +0.000 A 
ATOM     10  C   UNL     1       1.203   3.080  20.084  0.00  0.00    +0.000 A 
ATOM     11  C   UNL     1       2.115   2.662  19.115  0.00  0.00    +0.000 A 
ATOM     12  C   UNL     1       3.018   3.570  18.538  0.00  0.00    +0.000 A 
ATOM     13  C   UNL     1       3.944   3.155  17.569  0.00  0.00    +0.000 A 
ATOM     14  C   UNL     1       4.852   4.066  17.026  0.00  0.00    +0.000 A 
BRANCH  14  15
ATOM     15  O   UNL     1       5.769   3.633  16.105  0.00  0.00    +0.000 OA
ATOM     16  H   UNL     1       5.301   3.258  15.337  0.00  0.00    +0.000 HD
ENDBRANCH  14  15
ENDBRANCH   2   5
BRANCH   3  17
ATOM     17  C   UNL     1       7.652   7.915  17.316  0.00  0.00    +0.000 C 
BRANCH  17  18
ATOM     18  C   UNL     1       8.436   8.491  18.479  0.00  0.00    +0.000 C 
BRANCH  18  19
ATOM     19  C   UNL     1       8.555  10.007  18.315  0.00  0.00    +0.000 C 
BRANCH  19  20
ATOM     20  N   UNL     1       9.854  10.509  18.789  0.00  0.00    +0.000 NA
ATOM     21  C   UNL     1       9.747  11.221  20.084  0.00  0.00    +0.000 C 
ATOM     22  C   UNL     1       9.024  12.576  19.992  0.00  0.00    +0.000 C 
ATOM     23  O   UNL     1       9.635  13.432  19.019  0.00  0.00    +0.000 OA
ATOM     24  C   UNL     1       9.689  12.792  17.737  0.00  0.00    +0.000 C 
ATOM     25  C   UNL     1      10.449  11.456  17.816  0.00  0.00    +0.000 C 
ENDBRANCH  19  20
ENDBRANCH  18  19
ENDBRANCH  17  18
ENDBRANCH   3  17
TORSDOF 6
ENDMDL
MODEL 3
REMARK VINA RESULT:      -7.7      0.919      1.405
REMARK  Name = 
REMARK  6 active torsions:
REMARK  status: ('A' for Active; 'I' for Inactive)
REMARK    1  A    between atoms: C_2  and  C_13
REMARK    2  A    between atoms: N_3  and  C_4
REMARK    3  A    between atoms: C_4  and  C_5
REMARK    4  A    between atoms: C_5  and  C_6
REMARK    5  A    between atoms: C_6  and  N_7
REMARK    6  A    between atoms: C_22  and  O_23
REMARK                            x       y       z     vdW  Elec       q    Type
REMARK                         _______ _______ _______ _____ _____    ______ ____
ROOT
ATOM      1  O   UNL     1       7.376   5.393  20.034  0.00  0.00    +0.000 OA
ATOM      2  C   UNL     1       6.686   5.683  19.049  0.00  0.00    +0.000 C 
ATOM      3  N   UNL     1       7.017   6.684  18.157  0.00  0.00    +0.000 N 
ATOM      4  H   UNL     1       6.263   7.017  17.548  0.00  0.00    +0.000 HD
ENDROOT
BRANCH   2   5
ATOM      5  C   UNL     1       5.458   4.910  18.747  0.00  0.00    +0.000 A 
ATOM      6  C   UNL     1       4.372   5.008  19.629  0.00  0.00    +0.000 A 
ATOM      7  C   UNL     1       3.194   4.281  19.404  0.00  0.00    +0.000 A 
ATOM      8  C   UNL     1       2.108   4.346  20.291  0.00  0.00    +0.000 A 
ATOM      9  C   UNL     1       0.944   3.613  20.053  0.00  0.00    +0.000 A 
ATOM     10  C   UNL     1       0.852   2.802  18.926  0.00  0.00    +0.000 A 
ATOM     11  C   UNL     1       1.920   2.725  18.032  0.00  0.00    +0.000 A 
ATOM     12  C   UNL     1       3.099   3.455  18.256  0.00  0.00    +0.000 A 
ATOM     13  C   UNL     1       4.181   3.377  17.365  0.00  0.00    +0.000 A 
ATOM     14  C   UNL     1       5.355   4.088  17.617  0.00  0.00    +0.000 A 
BRANCH  14  15
ATOM     15  O   UNL     1       6.411   3.972  16.752  0.00  0.00    +0.000 OA
ATOM     16  H   UNL     1       7.102   3.421  17.162  0.00  0.00    +0.000 HD
ENDBRANCH  14  15
ENDBRANCH   2   5
BRANCH   3  17
ATOM     17  C   UNL     1       8.169   7.508  18.373  0.00  0.00    +0.000 C 
BRANCH  17  18
ATOM     18  C   UNL     1       8.148   8.742  17.492  0.00  0.00    +0.000 C 
BRANCH  18  19
ATOM     19  C   UNL     1       8.222   9.995  18.365  0.00  0.00    +0.000 C 
BRANCH  19  20
ATOM     20  N   UNL     1       9.601  10.287  18.789  0.00  0.00    +0.000 NA
ATOM     21  C   UNL     1       9.661  10.894  20.138  0.00  0.00    +0.000 C 
ATOM     22  C   UNL     1       9.119  12.332  20.200  0.00  0.00    +0.000 C 
ATOM     23  O   UNL     1       9.782  13.183  19.256  0.00  0.00    +0.000 OA
ATOM     24  C   UNL     1       9.679  12.654  17.928  0.00  0.00    +0.000 C 
ATOM     25  C   UNL     1      10.259  11.230  17.853  0.00  0.00    +0.000 C 
ENDBRANCH  19  20
ENDBRANCH  18  19
ENDBRANCH  17  18
ENDBRANCH   3  17
TORSDOF 6
ENDMDL
MODEL 4
REMARK VINA RESULT:      -7.6      0.945      1.013
REMARK  Name = 
REMARK  6 active torsions:
REMARK  status: ('A' for Active; 'I' for Inactive)
REMARK    1  A    between atoms: C_2  and  C_13
REMARK    2  A    between atoms: N_3  and  C_4
REMARK    3  A    between atoms: C_4  and  C_5
REMARK    4  A    between atoms: C_5  and  C_6
REMARK    5  A    between atoms: C_6  and  N_7
REMARK    6  A    between atoms: C_22  and  O_23
REMARK                            x       y       z     vdW  Elec       q    Type
REMARK                         _______ _______ _______ _____ _____    ______ ____
ROOT
ATOM      1  O   UNL     1       5.972   6.756  15.809  0.00  0.00    +0.000 OA
ATOM      2  C   UNL     1       6.021   6.404  16.993  0.00  0.00    +0.000 C 
ATOM      3  N   UNL     1       6.961   6.875  17.888  0.00  0.00    +0.000 N 
ATOM      4  H   UNL     1       7.082   6.331  18.748  0.00  0.00    +0.000 HD
ENDROOT
BRANCH   2   5
ATOM      5  C   UNL     1       5.009   5.466  17.533  0.00  0.00    +0.000 A 
ATOM      6  C   UNL     1       4.094   5.943  18.484  0.00  0.00    +0.000 A 
ATOM      7  C   UNL     1       3.130   5.093  19.045  0.00  0.00    +0.000 A 
ATOM      8  C   UNL     1       2.225   5.547  20.018  0.00  0.00    +0.000 A 
ATOM      9  C   UNL     1       1.274   4.687  20.568  0.00  0.00    +0.000 A 
ATOM     10  C   UNL     1       1.216   3.359  20.155  0.00  0.00    +0.000 A 
ATOM     11  C   UNL     1       2.106   2.889  19.188  0.00  0.00    +0.000 A 
ATOM     12  C   UNL     1       3.070   3.741  18.625  0.00  0.00    +0.000 A 
ATOM     13  C   UNL     1       3.974   3.274  17.658  0.00  0.00    +0.000 A 
ATOM     14  C   UNL     1       4.943   4.127  17.128  0.00  0.00    +0.000 A 
BRANCH  14  15
ATOM     15  O   UNL     1       5.836   3.642  16.209  0.00  0.00    +0.000 OA
ATOM     16  H   UNL     1       5.682   4.077  15.351  0.00  0.00    +0.000 HD
ENDBRANCH  14  15
ENDBRANCH   2   5
BRANCH   3  17
ATOM     17  C   UNL     1       8.000   7.765  17.461  0.00  0.00    +0.000 C 
BRANCH  17  18
ATOM     18  C   UNL     1       7.740   9.187  17.915  0.00  0.00    +0.000 C 
BRANCH  18  19
ATOM     19  C   UNL     1       8.985   9.737  18.613  0.00  0.00    +0.000 C 
BRANCH  19  20
ATOM     20  N   UNL     1       9.126  11.189  18.420  0.00  0.00    +0.000 NA
ATOM     21  C   UNL     1      10.438  11.557  17.839  0.00  0.00    +0.000 C 
ATOM     22  C   UNL     1      11.623  11.362  18.801  0.00  0.00    +0.000 C 
ATOM     23  O   UNL     1      11.422  12.071  20.031  0.00  0.00    +0.000 OA
ATOM     24  C   UNL     1      10.189  11.681  20.651  0.00  0.00    +0.000 C 
ATOM     25  C   UNL     1       8.996  11.914  19.706  0.00  0.00    +0.000 C 
ENDBRANCH  19  20
ENDBRANCH  18  19
ENDBRANCH  17  18
ENDBRANCH   3  17
TORSDOF 6
ENDMDL
MODEL 5
REMARK VINA RESULT:      -7.5      4.680      7.138
REMARK  Name = 
REMARK  6 active torsions:
REMARK  status: ('A' for Active; 'I' for Inactive)
REMARK    1  A    between atoms: C_2  and  C_13
REMARK    2  A    between atoms: N_3  and  C_4
REMARK    3  A    between atoms: C_4  and  C_5
REMARK    4  A    between atoms: C_5  and  C_6
REMARK    5  A    between atoms: C_6  and  N_7
REMARK    6  A    between atoms: C_22  and  O_23
REMARK                            x       y       z     vdW  Elec       q    Type
REMARK                         _______ _______ _______ _____ _____    ______ ____
ROOT
ATOM      1  O   UNL     1       3.151   7.956  17.783  0.00  0.00    +0.000 OA
ATOM      2  C   UNL     1       2.413   7.684  18.738  0.00  0.00    +0.000 C 
ATOM      3  N   UNL     1       2.334   6.426  19.303  0.00  0.00    +0.000 N 
ATOM      4  H   UNL     1       1.517   6.244  19.894  0.00  0.00    +0.000 HD
ENDROOT
BRANCH   2   5
ATOM      5  C   UNL     1       1.592   8.743  19.369  0.00  0.00    +0.000 A 
ATOM      6  C   UNL     1       1.158   8.556  20.690  0.00  0.00    +0.000 A 
ATOM      7  C   UNL     1       0.359   9.516  21.328  0.00  0.00    +0.000 A 
ATOM      8  C   UNL     1      -0.107   9.331  22.640  0.00  0.00    +0.000 A 
ATOM      9  C   UNL     1      -0.904  10.295  23.259  0.00  0.00    +0.000 A 
ATOM     10  C   UNL     1      -1.249  11.456  22.573  0.00  0.00    +0.000 A 
ATOM     11  C   UNL     1      -0.795  11.658  21.270  0.00  0.00    +0.000 A 
ATOM     12  C   UNL     1       0.007  10.698  20.631  0.00  0.00    +0.000 A 
ATOM     13  C   UNL     1       0.461  10.890  19.317  0.00  0.00    +0.000 A 
ATOM     14  C   UNL     1       1.235   9.914  18.688  0.00  0.00    +0.000 A 
BRANCH  14  15
ATOM     15  O   UNL     1       1.641  10.108  17.394  0.00  0.00    +0.000 OA
ATOM     16  H   UNL     1       2.203   9.361  17.119  0.00  0.00    +0.000 HD
ENDBRANCH  14  15
ENDBRANCH   2   5
BRANCH   3  17
ATOM     17  C   UNL     1       3.068   5.326  18.750  0.00  0.00    +0.000 C 
BRANCH  17  18
ATOM     18  C   UNL     1       4.444   5.202  19.374  0.00  0.00    +0.000 C 
BRANCH  18  19
ATOM     19  C   UNL     1       5.372   4.450  18.420  0.00  0.00    +0.000 C 
BRANCH  19  20
ATOM     20  N   UNL     1       6.541   5.259  18.041  0.00  0.00    +0.000 NA
ATOM     21  C   UNL     1       6.160   6.520  17.364  0.00  0.00    +0.000 C 
ATOM     22  C   UNL     1       5.583   6.320  15.952  0.00  0.00    +0.000 C 
ATOM     23  O   UNL     1       6.481   5.576  15.119  0.00  0.00    +0.000 OA
ATOM     24  C   UNL     1       6.812   4.317  15.720  0.00  0.00    +0.000 C 
ATOM     25  C   UNL     1       7.429   4.515  17.116  0.00  0.00    +0.000 C 
ENDBRANCH  19  20
ENDBRANCH  18  19
ENDBRANCH  17  18
ENDBRANCH   3  17
TORSDOF 6
ENDMDL
MODEL 6
REMARK VINA RESULT:      -7.5      4.481      6.853
REMARK  Name = 
REMARK  6 active torsions:
REMARK  status: ('A' for Active; 'I' for Inactive)
REMARK    1  A    between atoms: C_2  and  C_13
REMARK    2  A    between atoms: N_3  and  C_4
REMARK    3  A    between atoms: C_4  and  C_5
REMARK    4  A    between atoms: C_5  and  C_6
REMARK    5  A    between atoms: C_6  and  N_7
REMARK    6  A    between atoms: C_22  and  O_23
REMARK                            x       y       z     vdW  Elec       q    Type
REMARK                         _______ _______ _______ _____ _____    ______ ____
ROOT
ATOM      1  O   UNL     1       2.413   6.129  17.963  0.00  0.00    +0.000 OA
ATOM      2  C   UNL     1       2.519   6.532  19.128  0.00  0.00    +0.000 C 
ATOM      3  N   UNL     1       3.278   5.892  20.087  0.00  0.00    +0.000 N 
ATOM      4  H   UNL     1       3.087   6.145  21.062  0.00  0.00    +0.000 HD
ENDROOT
BRANCH   2   5
ATOM      5  C   UNL     1       1.852   7.788  19.544  0.00  0.00    +0.000 A 
ATOM      6  C   UNL     1       1.331   7.870  20.844  0.00  0.00    +0.000 A 
ATOM      7  C   UNL     1       0.670   9.027  21.283  0.00  0.00    +0.000 A 
ATOM      8  C   UNL     1       0.118   9.115  22.571  0.00  0.00    +0.000 A 
ATOM      9  C   UNL     1      -0.539  10.272  22.990  0.00  0.00    +0.000 A 
ATOM     10  C   UNL     1      -0.657  11.357  22.126  0.00  0.00    +0.000 A 
ATOM     11  C   UNL     1      -0.113  11.289  20.843  0.00  0.00    +0.000 A 
ATOM     12  C   UNL     1       0.550  10.131  20.404  0.00  0.00    +0.000 A 
ATOM     13  C   UNL     1       1.092  10.053  19.112  0.00  0.00    +0.000 A 
ATOM     14  C   UNL     1       1.725   8.885  18.682  0.00  0.00    +0.000 A 
BRANCH  14  15
ATOM     15  O   UNL     1       2.219   8.818  17.406  0.00  0.00    +0.000 OA
ATOM     16  H   UNL     1       2.390   9.720  17.080  0.00  0.00    +0.000 HD
ENDBRANCH  14  15
ENDBRANCH   2   5
BRANCH   3  17
ATOM     17  C   UNL     1       3.941   4.655  19.795  0.00  0.00    +0.000 C 
BRANCH  17  18
ATOM     18  C   UNL     1       5.397   4.873  19.435  0.00  0.00    +0.000 C 
BRANCH  18  19
ATOM     19  C   UNL     1       5.652   4.377  18.012  0.00  0.00    +0.000 C 
BRANCH  19  20
ATOM     20  N   UNL     1       6.685   5.173  17.329  0.00  0.00    +0.000 NA
ATOM     21  C   UNL     1       6.250   6.566  17.078  0.00  0.00    +0.000 C 
ATOM     22  C   UNL     1       5.152   6.693  16.007  0.00  0.00    +0.000 C 
ATOM     23  O   UNL     1       5.549   6.080  14.774  0.00  0.00    +0.000 OA
ATOM     24  C   UNL     1       5.910   4.707  14.977  0.00  0.00    +0.000 C 
ATOM     25  C   UNL     1       7.038   4.579  16.017  0.00  0.00    +0.000 C 
ENDBRANCH  19  20
ENDBRANCH  18  19
ENDBRANCH  17  18
ENDBRANCH   3  17
TORSDOF 6
ENDMDL
MODEL 7
REMARK VINA RESULT:      -7.5      3.900      6.197
REMARK  Name = 
REMARK  6 active torsions:
REMARK  status: ('A' for Active; 'I' for Inactive)
REMARK    1  A    between atoms: C_2  and  C_13
REMARK    2  A    between atoms: N_3  and  C_4
REMARK    3  A    between atoms: C_4  and  C_5
REMARK    4  A    between atoms: C_5  and  C_6
REMARK    5  A    between atoms: C_6  and  N_7
REMARK    6  A    between atoms: C_22  and  O_23
REMARK                            x       y       z     vdW  Elec       q    Type
REMARK                         _______ _______ _______ _____ _____    ______ ____
ROOT
ATOM      1  O   UNL     1       2.138   5.420  18.035  0.00  0.00    +0.000 OA
ATOM      2  C   UNL     1       2.468   5.963  19.096  0.00  0.00    +0.000 C 
ATOM      3  N   UNL     1       3.332   5.388  20.007  0.00  0.00    +0.000 N 
ATOM      4  H   UNL     1       3.327   5.786  20.952  0.00  0.00    +0.000 HD
ENDROOT
BRANCH   2   5
ATOM      5  C   UNL     1       1.971   7.320  19.425  0.00  0.00    +0.000 A 
ATOM      6  C   UNL     1       1.386   7.532  20.682  0.00  0.00    +0.000 A 
ATOM      7  C   UNL     1       0.878   8.791  21.036  0.00  0.00    +0.000 A 
ATOM      8  C   UNL     1       0.265   9.013  22.279  0.00  0.00    +0.000 A 
ATOM      9  C   UNL     1      -0.239  10.271  22.614  0.00  0.00    +0.000 A 
ATOM     10  C   UNL     1      -0.138  11.324  21.709  0.00  0.00    +0.000 A 
ATOM     11  C   UNL     1       0.469  11.122  20.470  0.00  0.00    +0.000 A 
ATOM     12  C   UNL     1       0.980   9.862  20.115  0.00  0.00    +0.000 A 
ATOM     13  C   UNL     1       1.585   9.650  18.867  0.00  0.00    +0.000 A 
ATOM     14  C   UNL     1       2.063   8.386  18.521  0.00  0.00    +0.000 A 
BRANCH  14  15
ATOM     15  O   UNL     1       2.621   8.193  17.285  0.00  0.00    +0.000 OA
ATOM     16  H   UNL     1       3.554   7.932  17.391  0.00  0.00    +0.000 HD
ENDBRANCH  14  15
ENDBRANCH   2   5
BRANCH   3  17
ATOM     17  C   UNL     1       3.848   4.068  19.798  0.00  0.00    +0.000 C 
BRANCH  17  18
ATOM     18  C   UNL     1       5.091   4.084  18.930  0.00  0.00    +0.000 C 
BRANCH  18  19
ATOM     19  C   UNL     1       5.921   5.329  19.249  0.00  0.00    +0.000 C 
BRANCH  19  20
ATOM     20  N   UNL     1       7.318   5.183  18.814  0.00  0.00    +0.000 NA
ATOM     21  C   UNL     1       8.051   6.470  18.824  0.00  0.00    +0.000 C 
ATOM     22  C   UNL     1       7.598   7.454  17.731  0.00  0.00    +0.000 C 
ATOM     23  O   UNL     1       7.676   6.862  16.427  0.00  0.00    +0.000 OA
ATOM     24  C   UNL     1       6.916   5.648  16.370  0.00  0.00    +0.000 C 
ATOM     25  C   UNL     1       7.396   4.644  17.435  0.00  0.00    +0.000 C 
ENDBRANCH  19  20
ENDBRANCH  18  19
ENDBRANCH  17  18
ENDBRANCH   3  17
TORSDOF 6
ENDMDL
MODEL 8
REMARK VINA RESULT:      -7.5      1.399      1.667
REMARK  Name = 
REMARK  6 active torsions:
REMARK  status: ('A' for Active; 'I' for Inactive)
REMARK    1  A    between atoms: C_2  and  C_13
REMARK    2  A    between atoms: N_3  and  C_4
REMARK    3  A    between atoms: C_4  and  C_5
REMARK    4  A    between atoms: C_5  and  C_6
REMARK    5  A    between atoms: C_6  and  N_7
REMARK    6  A    between atoms: C_22  and  O_23
REMARK                            x       y       z     vdW  Elec       q    Type
REMARK                         _______ _______ _______ _____ _____    ______ ____
ROOT
ATOM      1  O   UNL     1       5.551   7.108  16.341  0.00  0.00    +0.000 OA
ATOM      2  C   UNL     1       5.933   6.694  17.441  0.00  0.00    +0.000 C 
ATOM      3  N   UNL     1       7.043   7.190  18.097  0.00  0.00    +0.000 N 
ATOM      4  H   UNL     1       7.421   6.610  18.852  0.00  0.00    +0.000 HD
ENDROOT
BRANCH   2   5
ATOM      5  C   UNL     1       5.162   5.646  18.151  0.00  0.00    +0.000 A 
ATOM      6  C   UNL     1       3.848   5.935  18.549  0.00  0.00    +0.000 A 
ATOM      7  C   UNL     1       3.081   4.988  19.243  0.00  0.00    +0.000 A 
ATOM      8  C   UNL     1       1.775   5.272  19.673  0.00  0.00    +0.000 A 
ATOM      9  C   UNL     1       1.027   4.319  20.366  0.00  0.00    +0.000 A 
ATOM     10  C   UNL     1       1.576   3.070  20.641  0.00  0.00    +0.000 A 
ATOM     11  C   UNL     1       2.872   2.769  20.221  0.00  0.00    +0.000 A 
ATOM     12  C   UNL     1       3.639   3.717  19.524  0.00  0.00    +0.000 A 
ATOM     13  C   UNL     1       4.947   3.424  19.105  0.00  0.00    +0.000 A 
ATOM     14  C   UNL     1       5.705   4.387  18.437  0.00  0.00    +0.000 A 
BRANCH  14  15
ATOM     15  O   UNL     1       6.990   4.092  18.065  0.00  0.00    +0.000 OA
ATOM     16  H   UNL     1       6.973   3.486  17.303  0.00  0.00    +0.000 HD
ENDBRANCH  14  15
ENDBRANCH   2   5
BRANCH   3  17
ATOM     17  C   UNL     1       7.872   8.186  17.485  0.00  0.00    +0.000 C 
BRANCH  17  18
ATOM     18  C   UNL     1       8.488   9.111  18.517  0.00  0.00    +0.000 C 
BRANCH  18  19
ATOM     19  C   UNL     1       8.966  10.392  17.834  0.00  0.00    +0.000 C 
BRANCH  19  20
ATOM     20  N   UNL     1       9.197  11.476  18.802  0.00  0.00    +0.000 NA
ATOM     21  C   UNL     1       9.245  12.809  18.157  0.00  0.00    +0.000 C 
ATOM     22  C   UNL     1      10.496  13.038  17.291  0.00  0.00    +0.000 C 
ATOM     23  O   UNL     1      11.699  12.817  18.038  0.00  0.00    +0.000 OA
ATOM     24  C   UNL     1      11.710  11.506  18.616  0.00  0.00    +0.000 C 
ATOM     25  C   UNL     1      10.481  11.288  19.518  0.00  0.00    +0.000 C 
ENDBRANCH  19  20
ENDBRANCH  18  19
ENDBRANCH  17  18
ENDBRANCH   3  17
TORSDOF 6
ENDMDL
MODEL 9
REMARK VINA RESULT:      -7.4      1.219      1.436
REMARK  Name = 
REMARK  6 active torsions:
REMARK  status: ('A' for Active; 'I' for Inactive)
REMARK    1  A    between atoms: C_2  and  C_13
REMARK    2  A    between atoms: N_3  and  C_4
REMARK    3  A    between atoms: C_4  and  C_5
REMARK    4  A    between atoms: C_5  and  C_6
REMARK    5  A    between atoms: C_6  and  N_7
REMARK    6  A    between atoms: C_22  and  O_23
REMARK                            x       y       z     vdW  Elec       q    Type
REMARK                         _______ _______ _______ _____ _____    ______ ____
ROOT
ATOM      1  O   UNL     1       7.671   6.409  16.075  0.00  0.00    +0.000 OA
ATOM      2  C   UNL     1       7.016   6.336  17.122  0.00  0.00    +0.000 C 
ATOM      3  N   UNL     1       7.323   7.052  18.262  0.00  0.00    +0.000 N 
ATOM      4  H   UNL     1       6.894   6.724  19.133  0.00  0.00    +0.000 HD
ENDROOT
BRANCH   2   5
ATOM      5  C   UNL     1       5.805   5.485  17.183  0.00  0.00    +0.000 A 
ATOM      6  C   UNL     1       4.812   5.800  18.124  0.00  0.00    +0.000 A 
ATOM      7  C   UNL     1       3.656   5.015  18.241  0.00  0.00    +0.000 A 
ATOM      8  C   UNL     1       2.667   5.300  19.195  0.00  0.00    +0.000 A 
ATOM      9  C   UNL     1       1.524   4.506  19.300  0.00  0.00    +0.000 A 
ATOM     10  C   UNL     1       1.355   3.414  18.454  0.00  0.00    +0.000 A 
ATOM     11  C   UNL     1       2.327   3.116  17.498  0.00  0.00    +0.000 A 
ATOM     12  C   UNL     1       3.484   3.903  17.379  0.00  0.00    +0.000 A 
ATOM     13  C   UNL     1       4.469   3.604  16.425  0.00  0.00    +0.000 A 
ATOM     14  C   UNL     1       5.625   4.381  16.339  0.00  0.00    +0.000 A 
BRANCH  14  15
ATOM     15  O   UNL     1       6.590   4.053  15.423  0.00  0.00    +0.000 OA
ATOM     16  H   UNL     1       6.604   4.724  14.717  0.00  0.00    +0.000 HD
ENDBRANCH  14  15
ENDBRANCH   2   5
BRANCH   3  17
ATOM     17  C   UNL     1       8.489   7.883  18.316  0.00  0.00    +0.000 C 
BRANCH  17  18
ATOM     18  C   UNL     1       8.152   9.337  18.054  0.00  0.00    +0.000 C 
BRANCH  18  19
ATOM     19  C   UNL     1       9.049  10.233  18.908  0.00  0.00    +0.000 C 
BRANCH  19  20
ATOM     20  N   UNL     1       9.858  11.145  18.085  0.00  0.00    +0.000 NA
ATOM     21  C   UNL     1      11.118  11.543  18.753  0.00  0.00    +0.000 C 
ATOM     22  C   UNL     1      10.916  12.479  19.958  0.00  0.00    +0.000 C 
ATOM     23  O   UNL     1      10.171  13.648  19.595  0.00  0.00    +0.000 OA
ATOM     24  C   UNL     1       8.913  13.291  19.007  0.00  0.00    +0.000 C 
ATOM     25  C   UNL     1       9.112  12.389  17.776  0.00  0.00    +0.000 C 
ENDBRANCH  19  20
ENDBRANCH  18  19
ENDBRANCH  17  18
ENDBRANCH   3  17
TORSDOF 6
ENDMDL
