MODEL 1
REMARK VINA RESULT:      -8.2      0.000      0.000
REMARK  Name = 
REMARK  7 active torsions:
REMARK  status: ('A' for Active; 'I' for Inactive)
REMARK    1  A    between atoms: C_2  and  C_17
REMARK    2  A    between atoms: N_3  and  CA_4
REMARK    3  A    between atoms: CA_4  and  C_5
REMARK    4  A    between atoms: CA_4  and  C_14
REMARK    5  A    between atoms: C_5  and  C_6
REMARK    6  A    between atoms: C_7  and  C_8
REMARK    7  A    between atoms: C_14  and  OXT_16
REMARK                            x       y       z     vdW  Elec       q    Type
REMARK                         _______ _______ _______ _____ _____    ______ ____
ROOT
ATOM      1  O   UNL     1       3.294   5.149  17.432  0.00  0.00    +0.000 OA
ATOM      2  C   UNL     1       3.747   6.231  17.792  0.00  0.00    +0.000 C 
ATOM      3  N   UNL     1       5.088   6.519  17.687  0.00  0.00    +0.000 N 
ATOM      4  H   UNL     1       5.417   7.278  18.273  0.00  0.00    +0.000 HD
ENDROOT
BRANCH   2   5
ATOM      5  C   UNL     1       2.859   7.286  18.357  0.00  0.00    +0.000 A 
ATOM      6  C   UNL     1       2.568   8.401  17.567  0.00  0.00    +0.000 A 
ATOM      7  C   UNL     1       1.761   9.426  18.065  0.00  0.00    +0.000 A 
ATOM      8  C   UNL     1       1.238   9.358  19.365  0.00  0.00    +0.000 A 
ATOM      9  C   UNL     1       0.422  10.382  19.868  0.00  0.00    +0.000 A 
ATOM     10  C   UNL     1      -0.084  10.317  21.167  0.00  0.00    +0.000 A 
ATOM     11  C   UNL     1       0.227   9.233  21.979  0.00  0.00    +0.000 A 
ATOM     12  C   UNL     1       1.039   8.204  21.493  0.00  0.00    +0.000 A 
ATOM     13  C   UNL     1       1.547   8.245  20.182  0.00  0.00    +0.000 A 
ATOM     14  C   UNL     1       2.358   7.212  19.666  0.00  0.00    +0.000 A 
ENDBRANCH   2   5
BRANCH   3  15
ATOM     15  CA  UNL     1       6.097   5.484  17.360  0.00  0.00    +0.000 C 
BRANCH  15  16
ATOM     16  C   UNL     1       6.527   5.475  15.872  0.00  0.00    +0.000 C 
ATOM     17  O   UNL     1       5.981   6.137  14.998  0.00  0.00    +0.000 OA
BRANCH  16  18
ATOM     18  OXT UNL     1       7.636   4.751  15.600  0.00  0.00    +0.000 OA
ATOM     19  HXT UNL     1       7.474   4.007  14.968  0.00  0.00    +0.000 HD
ENDBRANCH  16  18
ENDBRANCH  15  16
BRANCH  15  20
ATOM     20  C   UNL     1       7.370   5.641  18.220  0.00  0.00    +0.000 C 
BRANCH  20  21
ATOM     21  C   UNL     1       7.833   7.036  18.294  0.00  0.00    +0.000 C 
ATOM     22  C   UNL     1       8.182   8.188  18.354  0.00  0.00    +0.000 C 
BRANCH  22  23
ATOM     23  C   UNL     1       8.573   9.563  18.408  0.00  0.00    +0.000 A 
ATOM     24  C   UNL     1       9.491   9.988  19.370  0.00  0.00    +0.000 A 
ATOM     25  C   UNL     1       9.857  11.335  19.440  0.00  0.00    +0.000 A 
ATOM     26  C   UNL     1       9.306  12.254  18.546  0.00  0.00    +0.000 A 
ATOM     27  C   UNL     1       8.395  11.830  17.582  0.00  0.00    +0.000 A 
ATOM     28  C   UNL     1       8.026  10.485  17.514  0.00  0.00    +0.000 A 
ENDBRANCH  22  23
ENDBRANCH  20  21
ENDBRANCH  15  20
ENDBRANCH   3  15
TORSDOF 7
ENDMDL
MODEL 2
REMARK VINA RESULT:      -8.2      0.278      1.166
REMARK  Name = 
REMARK  7 active torsions:
REMARK  status: ('A' for Active; 'I' for Inactive)
REMARK    1  A    between atoms: C_2  and  C_17
REMARK    2  A    between atoms: N_3  and  CA_4
REMARK    3  A    between atoms: CA_4  and  C_5
REMARK    4  A    between atoms: CA_4  and  C_14
REMARK    5  A    between atoms: C_5  and  C_6
REMARK    6  A    between atoms: C_7  and  C_8
REMARK    7  A    between atoms: C_14  and  OXT_16
REMARK                            x       y       z     vdW  Elec       q    Type
REMARK                         _______ _______ _______ _____ _____    ______ ____
ROOT
ATOM      1  O   UNL     1       3.594   4.768  18.006  0.00  0.00    +0.000 OA
ATOM      2  C   UNL     1       3.948   5.943  17.992  0.00  0.00    +0.000 C 
ATOM      3  N   UNL     1       5.202   6.311  17.562  0.00  0.00    +0.000 N 
ATOM      4  H   UNL     1       5.515   7.225  17.868  0.00  0.00    +0.000 HD
ENDROOT
BRANCH   2   5
ATOM      5  C   UNL     1       3.029   7.028  18.438  0.00  0.00    +0.000 A 
ATOM      6  C   UNL     1       2.832   8.121  17.591  0.00  0.00    +0.000 A 
ATOM      7  C   UNL     1       2.000   9.173  17.979  0.00  0.00    +0.000 A 
ATOM      8  C   UNL     1       1.355   9.153  19.225  0.00  0.00    +0.000 A 
ATOM      9  C   UNL     1       0.512  10.204  19.617  0.00  0.00    +0.000 A 
ATOM     10  C   UNL     1      -0.116  10.187  20.863  0.00  0.00    +0.000 A 
ATOM     11  C   UNL     1       0.099   9.124  21.733  0.00  0.00    +0.000 A 
ATOM     12  C   UNL     1       0.935   8.069  21.358  0.00  0.00    +0.000 A 
ATOM     13  C   UNL     1       1.565   8.062  20.101  0.00  0.00    +0.000 A 
ATOM     14  C   UNL     1       2.404   7.002  19.695  0.00  0.00    +0.000 A 
ENDBRANCH   2   5
BRANCH   3  15
ATOM     15  CA  UNL     1       6.275   5.319  17.314  0.00  0.00    +0.000 C 
BRANCH  15  16
ATOM     16  C   UNL     1       6.807   5.322  15.860  0.00  0.00    +0.000 C 
ATOM     17  O   UNL     1       7.800   4.706  15.492  0.00  0.00    +0.000 OA
BRANCH  16  18
ATOM     18  OXT UNL     1       6.033   5.981  14.967  0.00  0.00    +0.000 OA
ATOM     19  HXT UNL     1       5.572   5.382  14.328  0.00  0.00    +0.000 HD
ENDBRANCH  16  18
ENDBRANCH  15  16
BRANCH  15  20
ATOM     20  C   UNL     1       7.478   5.538  18.258  0.00  0.00    +0.000 C 
BRANCH  20  21
ATOM     21  C   UNL     1       7.871   6.953  18.354  0.00  0.00    +0.000 C 
ATOM     22  C   UNL     1       8.183   8.116  18.402  0.00  0.00    +0.000 C 
BRANCH  22  23
ATOM     23  C   UNL     1       8.559   9.496  18.432  0.00  0.00    +0.000 A 
ATOM     24  C   UNL     1       8.002  10.389  17.515  0.00  0.00    +0.000 A 
ATOM     25  C   UNL     1       8.387  11.733  17.526  0.00  0.00    +0.000 A 
ATOM     26  C   UNL     1       9.326  12.181  18.455  0.00  0.00    +0.000 A 
ATOM     27  C   UNL     1       9.878  11.292  19.375  0.00  0.00    +0.000 A 
ATOM     28  C   UNL     1       9.497   9.949  19.362  0.00  0.00    +0.000 A 
ENDBRANCH  22  23
ENDBRANCH  20  21
ENDBRANCH  15  20
ENDBRANCH   3  15
TORSDOF 7
ENDMDL
MODEL 3
REMARK VINA RESULT:      -8.1      0.573      1.604
REMARK  Name = 
REMARK  7 active torsions:
REMARK  status: ('A' for Active; 'I' for Inactive)
REMARK    1  A    between atoms: C_2  and  C_17
REMARK    2  A    between atoms: N_3  and  CA_4
REMARK    3  A    between atoms: CA_4  and  C_5
REMARK    4  A    between atoms: CA_4  and  C_14
REMARK    5  A    between atoms: C_5  and  C_6
REMARK    6  A    between atoms: C_7  and  C_8
REMARK    7  A    between atoms: C_14  and  OXT_16
REMARK                            x       y       z     vdW  Elec       q    Type
REMARK                         _______ _______ _______ _____ _____    ______ ____
ROOT
ATOM      1  O   UNL     1       3.357   4.961  17.508  0.00  0.00    +0.000 OA
ATOM      2  C   UNL     1       3.762   6.037  17.936  0.00  0.00    +0.000 C 
ATOM      3  N   UNL     1       5.066   6.439  17.752  0.00  0.00    +0.000 N 
ATOM      4  H   UNL     1       5.390   7.163  18.382  0.00  0.00    +0.000 HD
ENDROOT
BRANCH   2   5
ATOM      5  C   UNL     1       2.855   6.962  18.672  0.00  0.00    +0.000 A 
ATOM      6  C   UNL     1       2.419   6.589  19.945  0.00  0.00    +0.000 A 
ATOM      7  C   UNL     1       1.548   7.412  20.661  0.00  0.00    +0.000 A 
ATOM      8  C   UNL     1       1.092   8.621  20.112  0.00  0.00    +0.000 A 
ATOM      9  C   UNL     1       0.221   9.455  20.830  0.00  0.00    +0.000 A 
ATOM     10  C   UNL     1      -0.241  10.649  20.274  0.00  0.00    +0.000 A 
ATOM     11  C   UNL     1       0.155  11.016  18.994  0.00  0.00    +0.000 A 
ATOM     12  C   UNL     1       1.021  10.196  18.265  0.00  0.00    +0.000 A 
ATOM     13  C   UNL     1       1.509   8.997  18.814  0.00  0.00    +0.000 A 
ATOM     14  C   UNL     1       2.394   8.159  18.103  0.00  0.00    +0.000 A 
ENDBRANCH   2   5
BRANCH   3  15
ATOM     15  CA  UNL     1       6.112   5.520  17.244  0.00  0.00    +0.000 C 
BRANCH  15  16
ATOM     16  C   UNL     1       6.450   5.722  15.747  0.00  0.00    +0.000 C 
ATOM     17  O   UNL     1       7.498   5.358  15.226  0.00  0.00    +0.000 OA
BRANCH  16  18
ATOM     18  OXT UNL     1       5.453   6.249  14.999  0.00  0.00    +0.000 OA
ATOM     19  HXT UNL     1       5.635   7.174  14.698  0.00  0.00    +0.000 HD
ENDBRANCH  16  18
ENDBRANCH  15  16
BRANCH  15  20
ATOM     20  C   UNL     1       7.424   5.656  18.048  0.00  0.00    +0.000 C 
BRANCH  20  21
ATOM     21  C   UNL     1       7.878   7.051  18.158  0.00  0.00    +0.000 C 
ATOM     22  C   UNL     1       8.234   8.197  18.277  0.00  0.00    +0.000 C 
BRANCH  22  23
ATOM     23  C   UNL     1       8.631   9.562  18.429  0.00  0.00    +0.000 A 
ATOM     24  C   UNL     1       9.475   9.929  19.479  0.00  0.00    +0.000 A 
ATOM     25  C   UNL     1       9.844  11.266  19.644  0.00  0.00    +0.000 A 
ATOM     26  C   UNL     1       9.371  12.235  18.759  0.00  0.00    +0.000 A 
ATOM     27  C   UNL     1       8.534  11.870  17.707  0.00  0.00    +0.000 A 
ATOM     28  C   UNL     1       8.161  10.534  17.543  0.00  0.00    +0.000 A 
ENDBRANCH  22  23
ENDBRANCH  20  21
ENDBRANCH  15  20
ENDBRANCH   3  15
TORSDOF 7
ENDMDL
MODEL 4
REMARK VINA RESULT:      -8.0      1.068      1.558
REMARK  Name = 
REMARK  7 active torsions:
REMARK  status: ('A' for Active; 'I' for Inactive)
REMARK    1  A    between atoms: C_2  and  C_17
REMARK    2  A    between atoms: N_3  and  CA_4
REMARK    3  A    between atoms: CA_4  and  C_5
REMARK    4  A    between atoms: CA_4  and  C_14
REMARK    5  A    between atoms: C_5  and  C_6
REMARK    6  A    between atoms: C_7  and  C_8
REMARK    7  A    between atoms: C_14  and  OXT_16
REMARK                            x       y       z     vdW  Elec       q    Type
REMARK                         _______ _______ _______ _____ _____    ______ ____
ROOT
ATOM      1  O   UNL     1       3.233   5.262  19.078  0.00  0.00    +0.000 OA
ATOM      2  C   UNL     1       3.452   6.379  18.618  0.00  0.00    +0.000 C 
ATOM      3  N   UNL     1       4.573   6.638  17.863  0.00  0.00    +0.000 N 
ATOM      4  H   UNL     1       4.832   7.615  17.791  0.00  0.00    +0.000 HD
ENDROOT
BRANCH   2   5
ATOM      5  C   UNL     1       2.508   7.506  18.857  0.00  0.00    +0.000 A 
ATOM      6  C   UNL     1       2.236   8.378  17.799  0.00  0.00    +0.000 A 
ATOM      7  C   UNL     1       1.377   9.463  17.984  0.00  0.00    +0.000 A 
ATOM      8  C   UNL     1       0.781   9.699  19.233  0.00  0.00    +0.000 A 
ATOM      9  C   UNL     1      -0.088  10.785  19.422  0.00  0.00    +0.000 A 
ATOM     10  C   UNL     1      -0.667  11.025  20.669  0.00  0.00    +0.000 A 
ATOM     11  C   UNL     1      -0.377  10.189  21.740  0.00  0.00    +0.000 A 
ATOM     12  C   UNL     1       0.486   9.103  21.568  0.00  0.00    +0.000 A 
ATOM     13  C   UNL     1       1.068   8.837  20.316  0.00  0.00    +0.000 A 
ATOM     14  C   UNL     1       1.933   7.740  20.116  0.00  0.00    +0.000 A 
ENDBRANCH   2   5
BRANCH   3  15
ATOM     15  CA  UNL     1       5.691   5.671  17.749  0.00  0.00    +0.000 C 
BRANCH  15  16
ATOM     16  C   UNL     1       5.272   4.292  17.184  0.00  0.00    +0.000 C 
ATOM     17  O   UNL     1       5.036   4.079  16.001  0.00  0.00    +0.000 OA
BRANCH  16  18
ATOM     18  OXT UNL     1       5.277   3.279  18.081  0.00  0.00    +0.000 OA
ATOM     19  HXT UNL     1       4.620   3.398  18.812  0.00  0.00    +0.000 HD
ENDBRANCH  16  18
ENDBRANCH  15  16
BRANCH  15  20
ATOM     20  C   UNL     1       6.827   6.222  16.859  0.00  0.00    +0.000 C 
BRANCH  20  21
ATOM     21  C   UNL     1       7.404   7.469  17.387  0.00  0.00    +0.000 C 
ATOM     22  C   UNL     1       7.879   8.501  17.789  0.00  0.00    +0.000 C 
BRANCH  22  23
ATOM     23  C   UNL     1       8.461   9.726  18.243  0.00  0.00    +0.000 A 
ATOM     24  C   UNL     1       8.282  10.897  17.505  0.00  0.00    +0.000 A 
ATOM     25  C   UNL     1       8.870  12.091  17.934  0.00  0.00    +0.000 A 
ATOM     26  C   UNL     1       9.633  12.111  19.101  0.00  0.00    +0.000 A 
ATOM     27  C   UNL     1       9.807  10.945  19.843  0.00  0.00    +0.000 A 
ATOM     28  C   UNL     1       9.224   9.752  19.413  0.00  0.00    +0.000 A 
ENDBRANCH  22  23
ENDBRANCH  20  21
ENDBRANCH  15  20
ENDBRANCH   3  15
TORSDOF 7
ENDMDL
MODEL 5
REMARK VINA RESULT:      -8.0      3.976      5.483
REMARK  Name = 
REMARK  7 active torsions:
REMARK  status: ('A' for Active; 'I' for Inactive)
REMARK    1  A    between atoms: C_2  and  C_17
REMARK    2  A    between atoms: N_3  and  CA_4
REMARK    3  A    between atoms: CA_4  and  C_5
REMARK    4  A    between atoms: CA_4  and  C_14
REMARK    5  A    between atoms: C_5  and  C_6
REMARK    6  A    between atoms: C_7  and  C_8
REMARK    7  A    between atoms: C_14  and  OXT_16
REMARK                            x       y       z     vdW  Elec       q    Type
REMARK                         _______ _______ _______ _____ _____    ______ ____
ROOT
ATOM      1  O   UNL     1       3.416   6.760  19.515  0.00  0.00    +0.000 OA
ATOM      2  C   UNL     1       2.344   6.729  20.112  0.00  0.00    +0.000 C 
ATOM      3  N   UNL     1       1.833   5.553  20.611  0.00  0.00    +0.000 N 
ATOM      4  H   UNL     1       0.837   5.558  20.802  0.00  0.00    +0.000 HD
ENDROOT
BRANCH   2   5
ATOM      5  C   UNL     1       1.548   7.970  20.326  0.00  0.00    +0.000 A 
ATOM      6  C   UNL     1       1.476   8.899  19.285  0.00  0.00    +0.000 A 
ATOM      7  C   UNL     1       0.763  10.089  19.451  0.00  0.00    +0.000 A 
ATOM      8  C   UNL     1       0.116  10.372  20.664  0.00  0.00    +0.000 A 
ATOM      9  C   UNL     1      -0.607  11.563  20.833  0.00  0.00    +0.000 A 
ATOM     10  C   UNL     1      -1.236  11.848  22.045  0.00  0.00    +0.000 A 
ATOM     11  C   UNL     1      -1.142  10.951  23.103  0.00  0.00    +0.000 A 
ATOM     12  C   UNL     1      -0.426   9.761  22.951  0.00  0.00    +0.000 A 
ATOM     13  C   UNL     1       0.203   9.450  21.732  0.00  0.00    +0.000 A 
ATOM     14  C   UNL     1       0.922   8.249  21.551  0.00  0.00    +0.000 A 
ENDBRANCH   2   5
BRANCH   3  15
ATOM     15  CA  UNL     1       2.409   4.231  20.267  0.00  0.00    +0.000 C 
BRANCH  15  16
ATOM     16  C   UNL     1       1.991   3.095  21.232  0.00  0.00    +0.000 C 
ATOM     17  O   UNL     1       2.737   2.595  22.065  0.00  0.00    +0.000 OA
BRANCH  16  18
ATOM     18  OXT UNL     1       0.686   2.742  21.173  0.00  0.00    +0.000 OA
ATOM     19  HXT UNL     1       0.133   3.162  21.878  0.00  0.00    +0.000 HD
ENDBRANCH  16  18
ENDBRANCH  15  16
BRANCH  15  20
ATOM     20  C   UNL     1       2.023   3.801  18.834  0.00  0.00    +0.000 C 
BRANCH  20  21
ATOM     21  C   UNL     1       3.107   4.029  17.865  0.00  0.00    +0.000 C 
ATOM     22  C   UNL     1       4.007   4.186  17.079  0.00  0.00    +0.000 C 
BRANCH  22  23
ATOM     23  C   UNL     1       5.093   4.359  16.164  0.00  0.00    +0.000 A 
ATOM     24  C   UNL     1       6.262   4.996  16.583  0.00  0.00    +0.000 A 
ATOM     25  C   UNL     1       7.314   5.187  15.683  0.00  0.00    +0.000 A 
ATOM     26  C   UNL     1       7.197   4.739  14.368  0.00  0.00    +0.000 A 
ATOM     27  C   UNL     1       6.033   4.097  13.949  0.00  0.00    +0.000 A 
ATOM     28  C   UNL     1       4.980   3.909  14.846  0.00  0.00    +0.000 A 
ENDBRANCH  22  23
ENDBRANCH  20  21
ENDBRANCH  15  20
ENDBRANCH   3  15
TORSDOF 7
ENDMDL
MODEL 6
REMARK VINA RESULT:      -7.9      4.159      5.125
REMARK  Name = 
REMARK  7 active torsions:
REMARK  status: ('A' for Active; 'I' for Inactive)
REMARK    1  A    between atoms: C_2  and  C_17
REMARK    2  A    between atoms: N_3  and  CA_4
REMARK    3  A    between atoms: CA_4  and  C_5
REMARK    4  A    between atoms: CA_4  and  C_14
REMARK    5  A    between atoms: C_5  and  C_6
REMARK    6  A    between atoms: C_7  and  C_8
REMARK    7  A    between atoms: C_14  and  OXT_16
REMARK                            x       y       z     vdW  Elec       q    Type
REMARK                         _______ _______ _______ _____ _____    ______ ____
ROOT
ATOM      1  O   UNL     1       2.405   5.320  20.774  0.00  0.00    +0.000 OA
ATOM      2  C   UNL     1       2.527   5.872  19.685  0.00  0.00    +0.000 C 
ATOM      3  N   UNL     1       3.103   5.229  18.614  0.00  0.00    +0.000 N 
ATOM      4  H   UNL     1       3.441   5.834  17.874  0.00  0.00    +0.000 HD
ENDROOT
BRANCH   2   5
ATOM      5  C   UNL     1       2.050   7.268  19.473  0.00  0.00    +0.000 A 
ATOM      6  C   UNL     1       2.244   7.852  18.219  0.00  0.00    +0.000 A 
ATOM      7  C   UNL     1       1.837   9.166  17.983  0.00  0.00    +0.000 A 
ATOM      8  C   UNL     1       1.234   9.922  19.000  0.00  0.00    +0.000 A 
ATOM      9  C   UNL     1       0.817  11.242  18.767  0.00  0.00    +0.000 A 
ATOM     10  C   UNL     1       0.232  11.994  19.785  0.00  0.00    +0.000 A 
ATOM     11  C   UNL     1       0.065  11.441  21.049  0.00  0.00    +0.000 A 
ATOM     12  C   UNL     1       0.476  10.128  21.298  0.00  0.00    +0.000 A 
ATOM     13  C   UNL     1       1.054   9.349  20.281  0.00  0.00    +0.000 A 
ATOM     14  C   UNL     1       1.465   8.018  20.505  0.00  0.00    +0.000 A 
ENDBRANCH   2   5
BRANCH   3  15
ATOM     15  CA  UNL     1       3.816   3.937  18.757  0.00  0.00    +0.000 C 
BRANCH  15  16
ATOM     16  C   UNL     1       3.288   2.822  17.822  0.00  0.00    +0.000 C 
ATOM     17  O   UNL     1       3.644   1.652  17.883  0.00  0.00    +0.000 OA
BRANCH  16  18
ATOM     18  OXT UNL     1       2.305   3.203  16.974  0.00  0.00    +0.000 OA
ATOM     19  HXT UNL     1       1.396   3.082  17.346  0.00  0.00    +0.000 HD
ENDBRANCH  16  18
ENDBRANCH  15  16
BRANCH  15  20
ATOM     20  C   UNL     1       5.331   4.095  18.497  0.00  0.00    +0.000 C 
BRANCH  20  21
ATOM     21  C   UNL     1       5.656   4.140  17.063  0.00  0.00    +0.000 C 
ATOM     22  C   UNL     1       5.954   4.179  15.895  0.00  0.00    +0.000 C 
BRANCH  22  23
ATOM     23  C   UNL     1       6.329   4.243  14.516  0.00  0.00    +0.000 A 
ATOM     24  C   UNL     1       5.665   3.453  13.577  0.00  0.00    +0.000 A 
ATOM     25  C   UNL     1       6.046   3.496  12.233  0.00  0.00    +0.000 A 
ATOM     26  C   UNL     1       7.088   4.331  11.830  0.00  0.00    +0.000 A 
ATOM     27  C   UNL     1       7.748   5.125  12.766  0.00  0.00    +0.000 A 
ATOM     28  C   UNL     1       7.370   5.080  14.109  0.00  0.00    +0.000 A 
ENDBRANCH  22  23
ENDBRANCH  20  21
ENDBRANCH  15  20
ENDBRANCH   3  15
TORSDOF 7
ENDMDL
MODEL 7
REMARK VINA RESULT:      -7.9      4.030      5.592
REMARK  Name = 
REMARK  7 active torsions:
REMARK  status: ('A' for Active; 'I' for Inactive)
REMARK    1  A    between atoms: C_2  and  C_17
REMARK    2  A    between atoms: N_3  and  CA_4
REMARK    3  A    between atoms: CA_4  and  C_5
REMARK    4  A    between atoms: CA_4  and  C_14
REMARK    5  A    between atoms: C_5  and  C_6
REMARK    6  A    between atoms: C_7  and  C_8
REMARK    7  A    between atoms: C_14  and  OXT_16
REMARK                            x       y       z     vdW  Elec       q    Type
REMARK                         _______ _______ _______ _____ _____    ______ ____
ROOT
ATOM      1  O   UNL     1       2.989   7.191  19.189  0.00  0.00    +0.000 OA
ATOM      2  C   UNL     1       2.068   7.173  20.000  0.00  0.00    +0.000 C 
ATOM      3  N   UNL     1       1.726   6.023  20.674  0.00  0.00    +0.000 N 
ATOM      4  H   UNL     1       0.793   6.013  21.070  0.00  0.00    +0.000 HD
ENDROOT
BRANCH   2   5
ATOM      5  C   UNL     1       1.278   8.402  20.293  0.00  0.00    +0.000 A 
ATOM      6  C   UNL     1       1.231   9.406  19.322  0.00  0.00    +0.000 A 
ATOM      7  C   UNL     1       0.525  10.587  19.564  0.00  0.00    +0.000 A 
ATOM      8  C   UNL     1      -0.141  10.786  20.784  0.00  0.00    +0.000 A 
ATOM      9  C   UNL     1      -0.857  11.967  21.029  0.00  0.00    +0.000 A 
ATOM     10  C   UNL     1      -1.504  12.167  22.248  0.00  0.00    +0.000 A 
ATOM     11  C   UNL     1      -1.435  11.194  23.238  0.00  0.00    +0.000 A 
ATOM     12  C   UNL     1      -0.726  10.012  23.010  0.00  0.00    +0.000 A 
ATOM     13  C   UNL     1      -0.079   9.786  21.782  0.00  0.00    +0.000 A 
ATOM     14  C   UNL     1       0.633   8.595  21.524  0.00  0.00    +0.000 A 
ENDBRANCH   2   5
BRANCH   3  15
ATOM     15  CA  UNL     1       2.278   4.697  20.307  0.00  0.00    +0.000 C 
BRANCH  15  16
ATOM     16  C   UNL     1       1.849   3.555  21.259  0.00  0.00    +0.000 C 
ATOM     17  O   UNL     1       2.445   3.262  22.289  0.00  0.00    +0.000 OA
BRANCH  16  18
ATOM     18  OXT UNL     1       0.688   2.942  20.935  0.00  0.00    +0.000 OA
ATOM     19  HXT UNL     1       0.810   2.018  20.604  0.00  0.00    +0.000 HD
ENDBRANCH  16  18
ENDBRANCH  15  16
BRANCH  15  20
ATOM     20  C   UNL     1       1.874   4.294  18.871  0.00  0.00    +0.000 C 
BRANCH  20  21
ATOM     21  C   UNL     1       2.989   4.406  17.918  0.00  0.00    +0.000 C 
ATOM     22  C   UNL     1       3.912   4.468  17.145  0.00  0.00    +0.000 C 
BRANCH  22  23
ATOM     23  C   UNL     1       5.024   4.526  16.247  0.00  0.00    +0.000 A 
ATOM     24  C   UNL     1       4.866   4.127  14.919  0.00  0.00    +0.000 A 
ATOM     25  C   UNL     1       5.957   4.160  14.045  0.00  0.00    +0.000 A 
ATOM     26  C   UNL     1       7.202   4.595  14.501  0.00  0.00    +0.000 A 
ATOM     27  C   UNL     1       7.359   4.999  15.824  0.00  0.00    +0.000 A 
ATOM     28  C   UNL     1       6.271   4.963  16.699  0.00  0.00    +0.000 A 
ENDBRANCH  22  23
ENDBRANCH  20  21
ENDBRANCH  15  20
ENDBRANCH   3  15
TORSDOF 7
ENDMDL
MODEL 8
REMARK VINA RESULT:      -7.8      3.948      5.443
REMARK  Name = 
REMARK  7 active torsions:
REMARK  status: ('A' for Active; 'I' for Inactive)
REMARK    1  A    between atoms: C_2  and  C_17
REMARK    2  A    between atoms: N_3  and  CA_4
REMARK    3  A    between atoms: CA_4  and  C_5
REMARK    4  A    between atoms: CA_4  and  C_14
REMARK    5  A    between atoms: C_5  and  C_6
REMARK    6  A    between atoms: C_7  and  C_8
REMARK    7  A    between atoms: C_14  and  OXT_16
REMARK                            x       y       z     vdW  Elec       q    Type
REMARK                         _______ _______ _______ _____ _____    ______ ____
ROOT
ATOM      1  O   UNL     1       4.121   6.085  19.548  0.00  0.00    +0.000 OA
ATOM      2  C   UNL     1       2.907   6.158  19.711  0.00  0.00    +0.000 C 
ATOM      3  N   UNL     1       2.169   5.067  20.112  0.00  0.00    +0.000 N 
ATOM      4  H   UNL     1       1.174   5.123  19.924  0.00  0.00    +0.000 HD
ENDROOT
BRANCH   2   5
ATOM      5  C   UNL     1       2.177   7.436  19.484  0.00  0.00    +0.000 A 
ATOM      6  C   UNL     1       2.216   8.005  18.209  0.00  0.00    +0.000 A 
ATOM      7  C   UNL     1       1.568   9.216  17.957  0.00  0.00    +0.000 A 
ATOM      8  C   UNL     1       0.875   9.883  18.980  0.00  0.00    +0.000 A 
ATOM      9  C   UNL     1       0.216  11.097  18.730  0.00  0.00    +0.000 A 
ATOM     10  C   UNL     1      -0.459  11.764  19.753  0.00  0.00    +0.000 A 
ATOM     11  C   UNL     1      -0.476  11.230  21.036  0.00  0.00    +0.000 A 
ATOM     12  C   UNL     1       0.175  10.022  21.301  0.00  0.00    +0.000 A 
ATOM     13  C   UNL     1       0.849   9.328  20.280  0.00  0.00    +0.000 A 
ATOM     14  C   UNL     1       1.503   8.101  20.521  0.00  0.00    +0.000 A 
ENDBRANCH   2   5
BRANCH   3  15
ATOM     15  CA  UNL     1       2.736   3.698  20.147  0.00  0.00    +0.000 C 
BRANCH  15  16
ATOM     16  C   UNL     1       2.170   2.815  21.285  0.00  0.00    +0.000 C 
ATOM     17  O   UNL     1       0.974   2.637  21.484  0.00  0.00    +0.000 OA
BRANCH  16  18
ATOM     18  OXT UNL     1       3.097   2.148  22.010  0.00  0.00    +0.000 OA
ATOM     19  HXT UNL     1       4.015   2.237  21.650  0.00  0.00    +0.000 HD
ENDBRANCH  16  18
ENDBRANCH  15  16
BRANCH  15  20
ATOM     20  C   UNL     1       2.507   2.956  18.812  0.00  0.00    +0.000 C 
BRANCH  20  21
ATOM     21  C   UNL     1       3.497   3.320  17.786  0.00  0.00    +0.000 C 
ATOM     22  C   UNL     1       4.322   3.637  16.967  0.00  0.00    +0.000 C 
BRANCH  22  23
ATOM     23  C   UNL     1       5.301   4.042  16.005  0.00  0.00    +0.000 A 
ATOM     24  C   UNL     1       5.124   3.725  14.658  0.00  0.00    +0.000 A 
ATOM     25  C   UNL     1       6.091   4.098  13.720  0.00  0.00    +0.000 A 
ATOM     26  C   UNL     1       7.231   4.788  14.131  0.00  0.00    +0.000 A 
ATOM     27  C   UNL     1       7.406   5.110  15.475  0.00  0.00    +0.000 A 
ATOM     28  C   UNL     1       6.443   4.735  16.413  0.00  0.00    +0.000 A 
ENDBRANCH  22  23
ENDBRANCH  20  21
ENDBRANCH  15  20
ENDBRANCH   3  15
TORSDOF 7
ENDMDL
MODEL 9
REMARK VINA RESULT:      -7.8      4.168      5.207
REMARK  Name = 
REMARK  7 active torsions:
REMARK  status: ('A' for Active; 'I' for Inactive)
REMARK    1  A    between atoms: C_2  and  C_17
REMARK    2  A    between atoms: N_3  and  CA_4
REMARK    3  A    between atoms: CA_4  and  C_5
REMARK    4  A    between atoms: CA_4  and  C_14
REMARK    5  A    between atoms: C_5  and  C_6
REMARK    6  A    between atoms: C_7  and  C_8
REMARK    7  A    between atoms: C_14  and  OXT_16
REMARK                            x       y       z     vdW  Elec       q    Type
REMARK                         _______ _______ _______ _____ _____    ______ ____
ROOT
ATOM      1  O   UNL     1       3.498   7.238  17.577  0.00  0.00    +0.000 OA
ATOM      2  C   UNL     1       2.933   7.032  18.647  0.00  0.00    +0.000 C 
ATOM      3  N   UNL     1       3.153   5.879  19.365  0.00  0.00    +0.000 N 
ATOM      4  H   UNL     1       2.440   5.651  20.049  0.00  0.00    +0.000 HD
ENDROOT
BRANCH   2   5
ATOM      5  C   UNL     1       1.984   8.028  19.218  0.00  0.00    +0.000 A 
ATOM      6  C   UNL     1       1.448   8.998  18.367  0.00  0.00    +0.000 A 
ATOM      7  C   UNL     1       0.575   9.967  18.864  0.00  0.00    +0.000 A 
ATOM      8  C   UNL     1       0.227   9.987  20.223  0.00  0.00    +0.000 A 
ATOM      9  C   UNL     1      -0.656  10.955  20.727  0.00  0.00    +0.000 A 
ATOM     10  C   UNL     1      -0.988  10.980  22.081  0.00  0.00    +0.000 A 
ATOM     11  C   UNL     1      -0.435  10.046  22.948  0.00  0.00    +0.000 A 
ATOM     12  C   UNL     1       0.446   9.075  22.463  0.00  0.00    +0.000 A 
ATOM     13  C   UNL     1       0.781   9.025  21.098  0.00  0.00    +0.000 A 
ATOM     14  C   UNL     1       1.659   8.047  20.583  0.00  0.00    +0.000 A 
ENDBRANCH   2   5
BRANCH   3  15
ATOM     15  CA  UNL     1       3.888   4.723  18.800  0.00  0.00    +0.000 C 
BRANCH  15  16
ATOM     16  C   UNL     1       4.022   3.529  19.776  0.00  0.00    +0.000 C 
ATOM     17  O   UNL     1       3.162   3.206  20.586  0.00  0.00    +0.000 OA
BRANCH  16  18
ATOM     18  OXT UNL     1       5.134   2.776  19.611  0.00  0.00    +0.000 OA
ATOM     19  HXT UNL     1       5.874   3.259  19.166  0.00  0.00    +0.000 HD
ENDBRANCH  16  18
ENDBRANCH  15  16
BRANCH  15  20
ATOM     20  C   UNL     1       3.223   4.206  17.506  0.00  0.00    +0.000 C 
BRANCH  20  21
ATOM     21  C   UNL     1       4.128   4.255  16.347  0.00  0.00    +0.000 C 
ATOM     22  C   UNL     1       4.865   4.263  15.393  0.00  0.00    +0.000 C 
BRANCH  22  23
ATOM     23  C   UNL     1       5.750   4.246  14.269  0.00  0.00    +0.000 A 
ATOM     24  C   UNL     1       6.911   5.021  14.286  0.00  0.00    +0.000 A 
ATOM     25  C   UNL     1       7.764   5.025  13.180  0.00  0.00    +0.000 A 
ATOM     26  C   UNL     1       7.456   4.254  12.059  0.00  0.00    +0.000 A 
ATOM     27  C   UNL     1       6.301   3.475  12.043  0.00  0.00    +0.000 A 
ATOM     28  C   UNL     1       5.446   3.474  13.147  0.00  0.00    +0.000 A 
ENDBRANCH  22  23
ENDBRANCH  20  21
ENDBRANCH  15  20
ENDBRANCH   3  15
TORSDOF 7
ENDMDL
