MODEL 1
REMARK VINA RESULT:      -6.7      0.000      0.000
REMARK  Name = 
REMARK  12 active torsions:
REMARK  status: ('A' for Active; 'I' for Inactive)
REMARK    1  A    between atoms: C_1  and  C_2
REMARK    2  A    between atoms: C_2  and  N_3
REMARK    3  A    between atoms: N_3  and  C_4
REMARK    4  A    between atoms: N_3  and  C_6
REMARK    5  A    between atoms: C_4  and  C_5
REMARK    6  A    between atoms: C_6  and  C_7
REMARK    7  A    between atoms: C_7  and  N_8
REMARK    8  A    between atoms: C_9  and  S_10
REMARK    9  A    between atoms: S_10  and  C_11
REMARK   10  A    between atoms: C_11  and  C_12
REMARK   11  A    between atoms: N_14  and  C_15
REMARK   12  A    between atoms: C_15  and  C_16
REMARK                            x       y       z     vdW  Elec       q    Type
REMARK                         _______ _______ _______ _____ _____    ______ ____
ROOT
ATOM      1  N   UNL     1       1.360   8.332  19.814  0.00  0.00    +0.000 N 
ATOM      2  C   UNL     1       1.644   8.852  18.541  0.00  0.00    +0.000 A 
ATOM      3  N   UNL     1       2.486   8.356  17.674  0.00  0.00    +0.000 NA
ATOM      4  C   UNL     1       3.166   7.195  18.100  0.00  0.00    +0.000 A 
ATOM      5  C   UNL     1       2.874   6.600  19.287  0.00  0.00    +0.000 A 
ATOM      6  S   UNL     1       3.808   5.233  19.605  0.00  0.00    +0.000 S 
ATOM      7  C   UNL     1       4.594   5.350  18.078  0.00  0.00    +0.000 A 
ATOM      8  C   UNL     1       5.546   4.445  17.571  0.00  0.00    +0.000 A 
ATOM      9  C   UNL     1       6.085   4.670  16.308  0.00  0.00    +0.000 A 
ATOM     10  C   UNL     1       5.695   5.779  15.570  0.00  0.00    +0.000 A 
ATOM     11  C   UNL     1       4.748   6.681  16.078  0.00  0.00    +0.000 A 
ATOM     12  C   UNL     1       4.167   6.477  17.355  0.00  0.00    +0.000 A 
ATOM     13  C   UNL     1       1.881   7.091  20.186  0.00  0.00    +0.000 A 
ATOM     14  O   UNL     1       1.507   6.475  21.179  0.00  0.00    +0.000 OA
ENDROOT
BRANCH   1  15
ATOM     15  C   UNL     1       0.410   8.909  20.792  0.00  0.00    +0.000 C 
BRANCH  15  16
ATOM     16  C   UNL     1       1.073   9.840  21.848  0.00  0.00    +0.000 C 
BRANCH  16  17
ATOM     17  N   UNL     1       0.242  10.984  22.293  0.00  0.00    +0.000 NA
BRANCH  17  19
ATOM     18  C   UNL     1       0.757  13.164  21.116  0.00  0.00    +0.000 C 
ATOM     19  C   UNL     1      -0.050  11.868  21.148  0.00  0.00    +0.000 C 
ENDBRANCH  17  19
BRANCH  17  20
ATOM     20  C   UNL     1      -0.944  10.603  23.071  0.00  0.00    +0.000 C 
ATOM     21  C   UNL     1      -2.061  11.638  23.126  0.00  0.00    +0.000 C 
ENDBRANCH  17  20
ENDBRANCH  16  17
ENDBRANCH  15  16
ENDBRANCH   1  15
BRANCH   2  22
ATOM     22  S   UNL     1       0.789  10.331  18.105  0.00  0.00    +0.000 S 
BRANCH  22  23
ATOM     23  C   UNL     1      -0.866   9.811  17.618  0.00  0.00    +0.000 C 
BRANCH  23  24
ATOM     24  C   UNL     1      -1.869  10.948  17.573  0.00  0.00    +0.000 C 
ATOM     25  O   UNL     1      -1.553  12.110  17.813  0.00  0.00    +0.000 OA
ATOM     26  N   UNL     1      -3.137  10.595  17.183  0.00  0.00    +0.000 N 
ATOM     27  H   UNL     1      -3.374   9.617  17.031  0.00  0.00    +0.000 HD
BRANCH  26  28
ATOM     28  C   UNL     1      -4.176  11.585  17.063  0.00  0.00    +0.000 C 
BRANCH  28  29
ATOM     29  C   UNL     1      -5.062  11.574  18.256  0.00  0.00    +0.000 A 
ATOM     30  C   UNL     1      -5.063  12.314  19.421  0.00  0.00    +0.000 A 
ATOM     31  C   UNL     1      -6.135  11.829  20.208  0.00  0.00    +0.000 A 
ATOM     32  C   UNL     1      -6.713  10.821  19.477  0.00  0.00    +0.000 A 
ATOM     33  O   UNL     1      -6.070  10.655  18.292  0.00  0.00    +0.000 OA
ENDBRANCH  28  29
ENDBRANCH  26  28
ENDBRANCH  23  24
ENDBRANCH  22  23
ENDBRANCH   2  22
TORSDOF 10
ENDMDL
MODEL 2
REMARK VINA RESULT:      -6.6      3.104      8.115
REMARK  Name = 
REMARK  12 active torsions:
REMARK  status: ('A' for Active; 'I' for Inactive)
REMARK    1  A    between atoms: C_1  and  C_2
REMARK    2  A    between atoms: C_2  and  N_3
REMARK    3  A    between atoms: N_3  and  C_4
REMARK    4  A    between atoms: N_3  and  C_6
REMARK    5  A    between atoms: C_4  and  C_5
REMARK    6  A    between atoms: C_6  and  C_7
REMARK    7  A    between atoms: C_7  and  N_8
REMARK    8  A    between atoms: C_9  and  S_10
REMARK    9  A    between atoms: S_10  and  C_11
REMARK   10  A    between atoms: C_11  and  C_12
REMARK   11  A    between atoms: N_14  and  C_15
REMARK   12  A    between atoms: C_15  and  C_16
REMARK                            x       y       z     vdW  Elec       q    Type
REMARK                         _______ _______ _______ _____ _____    ______ ____
ROOT
ATOM      1  N   UNL     1      -0.033  11.174  18.640  0.00  0.00    +0.000 N 
ATOM      2  C   UNL     1       1.308  10.846  18.382  0.00  0.00    +0.000 A 
ATOM      3  N   UNL     1       2.307  11.685  18.304  0.00  0.00    +0.000 NA
ATOM      4  C   UNL     1       1.963  13.042  18.486  0.00  0.00    +0.000 A 
ATOM      5  C   UNL     1       0.697  13.412  18.819  0.00  0.00    +0.000 A 
ATOM      6  S   UNL     1       0.502  15.078  18.980  0.00  0.00    +0.000 S 
ATOM      7  C   UNL     1       2.176  15.356  18.686  0.00  0.00    +0.000 A 
ATOM      8  C   UNL     1       2.819  16.608  18.718  0.00  0.00    +0.000 A 
ATOM      9  C   UNL     1       4.187  16.669  18.469  0.00  0.00    +0.000 A 
ATOM     10  C   UNL     1       4.897  15.511  18.185  0.00  0.00    +0.000 A 
ATOM     11  C   UNL     1       4.253  14.265  18.152  0.00  0.00    +0.000 A 
ATOM     12  C   UNL     1       2.864  14.162  18.413  0.00  0.00    +0.000 A 
ATOM     13  C   UNL     1      -0.369  12.481  19.002  0.00  0.00    +0.000 A 
ATOM     14  O   UNL     1      -1.467  12.794  19.451  0.00  0.00    +0.000 OA
ENDROOT
BRANCH   1  15
ATOM     15  C   UNL     1      -1.159  10.216  18.718  0.00  0.00    +0.000 C 
BRANCH  15  16
ATOM     16  C   UNL     1      -1.820   9.902  17.345  0.00  0.00    +0.000 C 
BRANCH  16  17
ATOM     17  N   UNL     1      -2.865  10.861  16.912  0.00  0.00    +0.000 NA
BRANCH  17  19
ATOM     18  C   UNL     1      -3.853  10.074  14.719  0.00  0.00    +0.000 C 
ATOM     19  C   UNL     1      -2.858  10.980  15.441  0.00  0.00    +0.000 C 
ENDBRANCH  17  19
BRANCH  17  20
ATOM     20  C   UNL     1      -4.193  10.608  17.485  0.00  0.00    +0.000 C 
ATOM     21  C   UNL     1      -4.843  11.789  18.196  0.00  0.00    +0.000 C 
ENDBRANCH  17  20
ENDBRANCH  16  17
ENDBRANCH  15  16
ENDBRANCH   1  15
BRANCH   2  22
ATOM     22  S   UNL     1       1.646   9.137  18.117  0.00  0.00    +0.000 S 
BRANCH  22  23
ATOM     23  C   UNL     1       1.591   8.371  19.748  0.00  0.00    +0.000 C 
BRANCH  23  24
ATOM     24  C   UNL     1       2.314   7.039  19.816  0.00  0.00    +0.000 C 
ATOM     25  O   UNL     1       3.303   6.795  19.130  0.00  0.00    +0.000 OA
ATOM     26  N   UNL     1       1.822   6.153  20.741  0.00  0.00    +0.000 N 
ATOM     27  H   UNL     1       0.976   6.372  21.263  0.00  0.00    +0.000 HD
BRANCH  26  28
ATOM     28  C   UNL     1       2.439   4.866  20.933  0.00  0.00    +0.000 C 
BRANCH  28  29
ATOM     29  C   UNL     1       2.033   3.916  19.865  0.00  0.00    +0.000 A 
ATOM     30  C   UNL     1       2.706   3.394  18.779  0.00  0.00    +0.000 A 
ATOM     31  C   UNL     1       1.787   2.564  18.094  0.00  0.00    +0.000 A 
ATOM     32  C   UNL     1       0.612   2.638  18.801  0.00  0.00    +0.000 A 
ATOM     33  O   UNL     1       0.748   3.458  19.876  0.00  0.00    +0.000 OA
ENDBRANCH  28  29
ENDBRANCH  26  28
ENDBRANCH  23  24
ENDBRANCH  22  23
ENDBRANCH   2  22
TORSDOF 10
ENDMDL
MODEL 3
REMARK VINA RESULT:      -6.5      3.736      9.362
REMARK  Name = 
REMARK  12 active torsions:
REMARK  status: ('A' for Active; 'I' for Inactive)
REMARK    1  A    between atoms: C_1  and  C_2
REMARK    2  A    between atoms: C_2  and  N_3
REMARK    3  A    between atoms: N_3  and  C_4
REMARK    4  A    between atoms: N_3  and  C_6
REMARK    5  A    between atoms: C_4  and  C_5
REMARK    6  A    between atoms: C_6  and  C_7
REMARK    7  A    between atoms: C_7  and  N_8
REMARK    8  A    between atoms: C_9  and  S_10
REMARK    9  A    between atoms: S_10  and  C_11
REMARK   10  A    between atoms: C_11  and  C_12
REMARK   11  A    between atoms: N_14  and  C_15
REMARK   12  A    between atoms: C_15  and  C_16
REMARK                            x       y       z     vdW  Elec       q    Type
REMARK                         _______ _______ _______ _____ _____    ______ ____
ROOT
ATOM      1  N   UNL     1       2.536   6.782  19.056  0.00  0.00    +0.000 N 
ATOM      2  C   UNL     1       2.935   7.694  18.066  0.00  0.00    +0.000 A 
ATOM      3  N   UNL     1       2.567   8.945  17.973  0.00  0.00    +0.000 NA
ATOM      4  C   UNL     1       1.670   9.378  18.974  0.00  0.00    +0.000 A 
ATOM      5  C   UNL     1       1.314   8.565  20.004  0.00  0.00    +0.000 A 
ATOM      6  S   UNL     1       0.230   9.276  21.081  0.00  0.00    +0.000 S 
ATOM      7  C   UNL     1       0.275  10.769  20.224  0.00  0.00    +0.000 A 
ATOM      8  C   UNL     1      -0.395  11.951  20.594  0.00  0.00    +0.000 A 
ATOM      9  C   UNL     1      -0.250  13.084  19.801  0.00  0.00    +0.000 A 
ATOM     10  C   UNL     1       0.536  13.040  18.657  0.00  0.00    +0.000 A 
ATOM     11  C   UNL     1       1.200  11.861  18.288  0.00  0.00    +0.000 A 
ATOM     12  C   UNL     1       1.087  10.690  19.080  0.00  0.00    +0.000 A 
ATOM     13  C   UNL     1       1.799   7.231  20.154  0.00  0.00    +0.000 A 
ATOM     14  O   UNL     1       1.604   6.552  21.157  0.00  0.00    +0.000 OA
ENDROOT
BRANCH   1  15
ATOM     15  C   UNL     1       2.953   5.365  19.145  0.00  0.00    +0.000 C 
BRANCH  15  16
ATOM     16  C   UNL     1       1.918   4.361  18.562  0.00  0.00    +0.000 C 
BRANCH  16  17
ATOM     17  N   UNL     1       1.580   3.217  19.442  0.00  0.00    +0.000 NA
BRANCH  17  19
ATOM     18  C   UNL     1       3.116   1.902  17.919  0.00  0.00    +0.000 C 
ATOM     19  C   UNL     1       1.822   1.947  18.730  0.00  0.00    +0.000 C 
ENDBRANCH  17  19
BRANCH  17  20
ATOM     20  C   UNL     1       2.190   3.280  20.777  0.00  0.00    +0.000 C 
ATOM     21  C   UNL     1       1.455   2.524  21.877  0.00  0.00    +0.000 C 
ENDBRANCH  17  20
ENDBRANCH  16  17
ENDBRANCH  15  16
ENDBRANCH   1  15
BRANCH   2  22
ATOM     22  S   UNL     1       4.015   7.061  16.825  0.00  0.00    +0.000 S 
BRANCH  22  23
ATOM     23  C   UNL     1       5.663   7.092  17.552  0.00  0.00    +0.000 C 
BRANCH  23  24
ATOM     24  C   UNL     1       6.740   6.543  16.636  0.00  0.00    +0.000 C 
ATOM     25  O   UNL     1       7.913   6.895  16.720  0.00  0.00    +0.000 OA
ATOM     26  N   UNL     1       6.322   5.579  15.753  0.00  0.00    +0.000 N 
ATOM     27  H   UNL     1       5.335   5.341  15.682  0.00  0.00    +0.000 HD
BRANCH  26  28
ATOM     28  C   UNL     1       7.251   4.948  14.851  0.00  0.00    +0.000 C 
BRANCH  28  29
ATOM     29  C   UNL     1       6.536   4.264  13.743  0.00  0.00    +0.000 A 
ATOM     30  C   UNL     1       6.960   3.780  12.521  0.00  0.00    +0.000 A 
ATOM     31  C   UNL     1       5.814   3.259  11.873  0.00  0.00    +0.000 A 
ATOM     32  C   UNL     1       4.766   3.466  12.736  0.00  0.00    +0.000 A 
ATOM     33  O   UNL     1       5.191   4.077  13.872  0.00  0.00    +0.000 OA
ENDBRANCH  28  29
ENDBRANCH  26  28
ENDBRANCH  23  24
ENDBRANCH  22  23
ENDBRANCH   2  22
TORSDOF 10
ENDMDL
MODEL 4
REMARK VINA RESULT:      -6.5      3.128      8.145
REMARK  Name = 
REMARK  12 active torsions:
REMARK  status: ('A' for Active; 'I' for Inactive)
REMARK    1  A    between atoms: C_1  and  C_2
REMARK    2  A    between atoms: C_2  and  N_3
REMARK    3  A    between atoms: N_3  and  C_4
REMARK    4  A    between atoms: N_3  and  C_6
REMARK    5  A    between atoms: C_4  and  C_5
REMARK    6  A    between atoms: C_6  and  C_7
REMARK    7  A    between atoms: C_7  and  N_8
REMARK    8  A    between atoms: C_9  and  S_10
REMARK    9  A    between atoms: S_10  and  C_11
REMARK   10  A    between atoms: C_11  and  C_12
REMARK   11  A    between atoms: N_14  and  C_15
REMARK   12  A    between atoms: C_15  and  C_16
REMARK                            x       y       z     vdW  Elec       q    Type
REMARK                         _______ _______ _______ _____ _____    ______ ____
ROOT
ATOM      1  N   UNL     1      -0.418  11.607  19.187  0.00  0.00    +0.000 N 
ATOM      2  C   UNL     1       0.907  11.150  19.105  0.00  0.00    +0.000 A 
ATOM      3  N   UNL     1       1.971  11.890  18.936  0.00  0.00    +0.000 NA
ATOM      4  C   UNL     1       1.721  13.274  18.812  0.00  0.00    +0.000 A 
ATOM      5  C   UNL     1       0.469  13.783  18.965  0.00  0.00    +0.000 A 
ATOM      6  S   UNL     1       0.391  15.455  18.770  0.00  0.00    +0.000 S 
ATOM      7  C   UNL     1       2.097  15.562  18.556  0.00  0.00    +0.000 A 
ATOM      8  C   UNL     1       2.831  16.751  18.382  0.00  0.00    +0.000 A 
ATOM      9  C   UNL     1       4.212  16.675  18.233  0.00  0.00    +0.000 A 
ATOM     10  C   UNL     1       4.848  15.441  18.245  0.00  0.00    +0.000 A 
ATOM     11  C   UNL     1       4.115  14.257  18.415  0.00  0.00    +0.000 A 
ATOM     12  C   UNL     1       2.707  14.297  18.583  0.00  0.00    +0.000 A 
ATOM     13  C   UNL     1      -0.675  12.978  19.250  0.00  0.00    +0.000 A 
ATOM     14  O   UNL     1      -1.772  13.445  19.540  0.00  0.00    +0.000 OA
ENDROOT
BRANCH   1  15
ATOM     15  C   UNL     1      -1.617  10.757  19.370  0.00  0.00    +0.000 C 
BRANCH  15  16
ATOM     16  C   UNL     1      -2.165  10.141  18.051  0.00  0.00    +0.000 C 
BRANCH  16  17
ATOM     17  N   UNL     1      -3.218  10.934  17.372  0.00  0.00    +0.000 NA
BRANCH  17  19
ATOM     18  C   UNL     1      -2.902  10.405  14.918  0.00  0.00    +0.000 C 
ATOM     19  C   UNL     1      -3.717  10.200  16.193  0.00  0.00    +0.000 C 
ENDBRANCH  17  19
BRANCH  17  20
ATOM     20  C   UNL     1      -4.277  11.422  18.265  0.00  0.00    +0.000 C 
ATOM     21  C   UNL     1      -5.439  12.135  17.586  0.00  0.00    +0.000 C 
ENDBRANCH  17  20
ENDBRANCH  16  17
ENDBRANCH  15  16
ENDBRANCH   1  15
BRANCH   2  22
ATOM     22  S   UNL     1       1.129   9.405  19.219  0.00  0.00    +0.000 S 
BRANCH  22  23
ATOM     23  C   UNL     1       2.021   8.929  17.727  0.00  0.00    +0.000 C 
BRANCH  23  24
ATOM     24  C   UNL     1       2.953   7.749  17.929  0.00  0.00    +0.000 C 
ATOM     25  O   UNL     1       3.929   7.556  17.210  0.00  0.00    +0.000 OA
ATOM     26  N   UNL     1       2.664   6.953  19.008  0.00  0.00    +0.000 N 
ATOM     27  H   UNL     1       1.824   7.118  19.559  0.00  0.00    +0.000 HD
BRANCH  26  28
ATOM     28  C   UNL     1       3.492   5.820  19.335  0.00  0.00    +0.000 C 
BRANCH  28  29
ATOM     29  C   UNL     1       2.693   4.744  19.976  0.00  0.00    +0.000 A 
ATOM     30  C   UNL     1       1.396   4.703  20.446  0.00  0.00    +0.000 A 
ATOM     31  C   UNL     1       1.203   3.410  20.989  0.00  0.00    +0.000 A 
ATOM     32  C   UNL     1       2.395   2.749  20.822  0.00  0.00    +0.000 A 
ATOM     33  O   UNL     1       3.308   3.549  20.212  0.00  0.00    +0.000 OA
ENDBRANCH  28  29
ENDBRANCH  26  28
ENDBRANCH  23  24
ENDBRANCH  22  23
ENDBRANCH   2  22
TORSDOF 10
ENDMDL
MODEL 5
REMARK VINA RESULT:      -6.4      3.544      9.450
REMARK  Name = 
REMARK  12 active torsions:
REMARK  status: ('A' for Active; 'I' for Inactive)
REMARK    1  A    between atoms: C_1  and  C_2
REMARK    2  A    between atoms: C_2  and  N_3
REMARK    3  A    between atoms: N_3  and  C_4
REMARK    4  A    between atoms: N_3  and  C_6
REMARK    5  A    between atoms: C_4  and  C_5
REMARK    6  A    between atoms: C_6  and  C_7
REMARK    7  A    between atoms: C_7  and  N_8
REMARK    8  A    between atoms: C_9  and  S_10
REMARK    9  A    between atoms: S_10  and  C_11
REMARK   10  A    between atoms: C_11  and  C_12
REMARK   11  A    between atoms: N_14  and  C_15
REMARK   12  A    between atoms: C_15  and  C_16
REMARK                            x       y       z     vdW  Elec       q    Type
REMARK                         _______ _______ _______ _____ _____    ______ ____
ROOT
ATOM      1  N   UNL     1       2.242   7.164  19.473  0.00  0.00    +0.000 N 
ATOM      2  C   UNL     1       2.606   7.976  18.386  0.00  0.00    +0.000 A 
ATOM      3  N   UNL     1       2.200   9.198  18.164  0.00  0.00    +0.000 NA
ATOM      4  C   UNL     1       1.297   9.709  19.121  0.00  0.00    +0.000 A 
ATOM      5  C   UNL     1       0.972   9.002  20.236  0.00  0.00    +0.000 A 
ATOM      6  S   UNL     1      -0.126   9.792  21.240  0.00  0.00    +0.000 S 
ATOM      7  C   UNL     1      -0.132  11.185  20.227  0.00  0.00    +0.000 A 
ATOM      8  C   UNL     1      -0.835  12.379  20.475  0.00  0.00    +0.000 A 
ATOM      9  C   UNL     1      -0.729  13.425  19.563  0.00  0.00    +0.000 A 
ATOM     10  C   UNL     1       0.051  13.281  18.423  0.00  0.00    +0.000 A 
ATOM     11  C   UNL     1       0.748  12.089  18.177  0.00  0.00    +0.000 A 
ATOM     12  C   UNL     1       0.675  11.007  19.091  0.00  0.00    +0.000 A 
ATOM     13  C   UNL     1       1.498   7.707  20.523  0.00  0.00    +0.000 A 
ATOM     14  O   UNL     1       1.329   7.134  21.594  0.00  0.00    +0.000 OA
ENDROOT
BRANCH   1  15
ATOM     15  C   UNL     1       2.702   5.777  19.710  0.00  0.00    +0.000 C 
BRANCH  15  16
ATOM     16  C   UNL     1       1.630   4.692  19.403  0.00  0.00    +0.000 C 
BRANCH  16  17
ATOM     17  N   UNL     1       2.158   3.324  19.186  0.00  0.00    +0.000 NA
BRANCH  17  19
ATOM     18  C   UNL     1       3.762   2.025  17.721  0.00  0.00    +0.000 C 
ATOM     19  C   UNL     1       3.327   3.375  18.287  0.00  0.00    +0.000 C 
ENDBRANCH  17  19
BRANCH  17  20
ATOM     20  C   UNL     1       2.386   2.560  20.420  0.00  0.00    +0.000 C 
ATOM     21  C   UNL     1       1.451   2.880  21.579  0.00  0.00    +0.000 C 
ENDBRANCH  17  20
ENDBRANCH  16  17
ENDBRANCH  15  16
ENDBRANCH   1  15
BRANCH   2  22
ATOM     22  S   UNL     1       3.698   7.245  17.211  0.00  0.00    +0.000 S 
BRANCH  22  23
ATOM     23  C   UNL     1       5.361   7.645  17.775  0.00  0.00    +0.000 C 
BRANCH  23  24
ATOM     24  C   UNL     1       6.438   6.783  17.145  0.00  0.00    +0.000 C 
ATOM     25  O   UNL     1       7.555   7.221  16.880  0.00  0.00    +0.000 OA
ATOM     26  N   UNL     1       6.099   5.468  16.953  0.00  0.00    +0.000 N 
ATOM     27  H   UNL     1       5.152   5.149  17.146  0.00  0.00    +0.000 HD
BRANCH  26  28
ATOM     28  C   UNL     1       7.043   4.533  16.397  0.00  0.00    +0.000 C 
BRANCH  28  29
ATOM     29  C   UNL     1       6.945   4.495  14.915  0.00  0.00    +0.000 A 
ATOM     30  C   UNL     1       6.143   3.775  14.054  0.00  0.00    +0.000 A 
ATOM     31  C   UNL     1       6.531   4.135  12.742  0.00  0.00    +0.000 A 
ATOM     32  C   UNL     1       7.549   5.045  12.887  0.00  0.00    +0.000 A 
ATOM     33  O   UNL     1       7.812   5.270  14.200  0.00  0.00    +0.000 OA
ENDBRANCH  28  29
ENDBRANCH  26  28
ENDBRANCH  23  24
ENDBRANCH  22  23
ENDBRANCH   2  22
TORSDOF 10
ENDMDL
MODEL 6
REMARK VINA RESULT:      -6.4      3.456      9.313
REMARK  Name = 
REMARK  12 active torsions:
REMARK  status: ('A' for Active; 'I' for Inactive)
REMARK    1  A    between atoms: C_1  and  C_2
REMARK    2  A    between atoms: C_2  and  N_3
REMARK    3  A    between atoms: N_3  and  C_4
REMARK    4  A    between atoms: N_3  and  C_6
REMARK    5  A    between atoms: C_4  and  C_5
REMARK    6  A    between atoms: C_6  and  C_7
REMARK    7  A    between atoms: C_7  and  N_8
REMARK    8  A    between atoms: C_9  and  S_10
REMARK    9  A    between atoms: S_10  and  C_11
REMARK   10  A    between atoms: C_11  and  C_12
REMARK   11  A    between atoms: N_14  and  C_15
REMARK   12  A    between atoms: C_15  and  C_16
REMARK                            x       y       z     vdW  Elec       q    Type
REMARK                         _______ _______ _______ _____ _____    ______ ____
ROOT
ATOM      1  N   UNL     1       2.601   7.457  18.712  0.00  0.00    +0.000 N 
ATOM      2  C   UNL     1       2.206   6.871  19.925  0.00  0.00    +0.000 A 
ATOM      3  N   UNL     1       1.466   7.426  20.848  0.00  0.00    +0.000 NA
ATOM      4  C   UNL     1       1.056   8.748  20.567  0.00  0.00    +0.000 A 
ATOM      5  C   UNL     1       1.338   9.338  19.375  0.00  0.00    +0.000 A 
ATOM      6  S   UNL     1       0.764  10.917  19.251  0.00  0.00    +0.000 S 
ATOM      7  C   UNL     1       0.023  10.826  20.803  0.00  0.00    +0.000 A 
ATOM      8  C   UNL     1      -0.754  11.835  21.404  0.00  0.00    +0.000 A 
ATOM      9  C   UNL     1      -1.298  11.606  22.664  0.00  0.00    +0.000 A 
ATOM     10  C   UNL     1      -1.066  10.403  23.317  0.00  0.00    +0.000 A 
ATOM     11  C   UNL     1      -0.290   9.400  22.717  0.00  0.00    +0.000 A 
ATOM     12  C   UNL     1       0.270   9.593  21.428  0.00  0.00    +0.000 A 
ATOM     13  C   UNL     1       2.062   8.688  18.331  0.00  0.00    +0.000 A 
ATOM     14  O   UNL     1       2.184   9.156  17.203  0.00  0.00    +0.000 OA
ENDROOT
BRANCH   1  15
ATOM     15  C   UNL     1       3.448   6.820  17.678  0.00  0.00    +0.000 C 
BRANCH  15  16
ATOM     16  C   UNL     1       4.820   7.522  17.462  0.00  0.00    +0.000 C 
BRANCH  16  17
ATOM     17  N   UNL     1       6.005   6.639  17.570  0.00  0.00    +0.000 NA
BRANCH  17  19
ATOM     18  C   UNL     1       8.025   8.097  18.016  0.00  0.00    +0.000 C 
ATOM     19  C   UNL     1       7.188   7.316  17.005  0.00  0.00    +0.000 C 
ENDBRANCH  17  19
BRANCH  17  20
ATOM     20  C   UNL     1       6.221   6.076  18.909  0.00  0.00    +0.000 C 
ATOM     21  C   UNL     1       7.119   4.847  18.975  0.00  0.00    +0.000 C 
ENDBRANCH  17  20
ENDBRANCH  16  17
ENDBRANCH  15  16
ENDBRANCH   1  15
BRANCH   2  22
ATOM     22  S   UNL     1       2.801   5.238  20.221  0.00  0.00    +0.000 S 
BRANCH  22  23
ATOM     23  C   UNL     1       1.737   4.149  19.257  0.00  0.00    +0.000 C 
BRANCH  23  24
ATOM     24  C   UNL     1       2.501   3.183  18.373  0.00  0.00    +0.000 C 
ATOM     25  O   UNL     1       2.044   2.089  18.050  0.00  0.00    +0.000 OA
ATOM     26  N   UNL     1       3.707   3.642  17.908  0.00  0.00    +0.000 N 
ATOM     27  H   UNL     1       4.075   4.536  18.228  0.00  0.00    +0.000 HD
BRANCH  26  28
ATOM     28  C   UNL     1       4.517   2.838  17.029  0.00  0.00    +0.000 C 
BRANCH  28  29
ATOM     29  C   UNL     1       5.204   3.682  16.017  0.00  0.00    +0.000 A 
ATOM     30  C   UNL     1       4.730   4.541  15.046  0.00  0.00    +0.000 A 
ATOM     31  C   UNL     1       5.863   5.037  14.357  0.00  0.00    +0.000 A 
ATOM     32  C   UNL     1       6.952   4.443  14.946  0.00  0.00    +0.000 A 
ATOM     33  O   UNL     1       6.566   3.617  15.952  0.00  0.00    +0.000 OA
ENDBRANCH  28  29
ENDBRANCH  26  28
ENDBRANCH  23  24
ENDBRANCH  22  23
ENDBRANCH   2  22
TORSDOF 10
ENDMDL
MODEL 7
REMARK VINA RESULT:      -6.4      4.281      9.237
REMARK  Name = 
REMARK  12 active torsions:
REMARK  status: ('A' for Active; 'I' for Inactive)
REMARK    1  A    between atoms: C_1  and  C_2
REMARK    2  A    between atoms: C_2  and  N_3
REMARK    3  A    between atoms: N_3  and  C_4
REMARK    4  A    between atoms: N_3  and  C_6
REMARK    5  A    between atoms: C_4  and  C_5
REMARK    6  A    between atoms: C_6  and  C_7
REMARK    7  A    between atoms: C_7  and  N_8
REMARK    8  A    between atoms: C_9  and  S_10
REMARK    9  A    between atoms: S_10  and  C_11
REMARK   10  A    between atoms: C_11  and  C_12
REMARK   11  A    between atoms: N_14  and  C_15
REMARK   12  A    between atoms: C_15  and  C_16
REMARK                            x       y       z     vdW  Elec       q    Type
REMARK                         _______ _______ _______ _____ _____    ______ ____
ROOT
ATOM      1  N   UNL     1       3.632   5.460  18.940  0.00  0.00    +0.000 N 
ATOM      2  C   UNL     1       3.872   6.362  17.890  0.00  0.00    +0.000 A 
ATOM      3  N   UNL     1       3.341   7.548  17.753  0.00  0.00    +0.000 NA
ATOM      4  C   UNL     1       2.431   7.915  18.768  0.00  0.00    +0.000 A 
ATOM      5  C   UNL     1       2.220   7.118  19.851  0.00  0.00    +0.000 A 
ATOM      6  S   UNL     1       1.091   7.740  20.936  0.00  0.00    +0.000 S 
ATOM      7  C   UNL     1       0.911   9.179  20.006  0.00  0.00    +0.000 A 
ATOM      8  C   UNL     1       0.105  10.282  20.346  0.00  0.00    +0.000 A 
ATOM      9  C   UNL     1       0.073  11.381  19.494  0.00  0.00    +0.000 A 
ATOM     10  C   UNL     1       0.817  11.378  18.322  0.00  0.00    +0.000 A 
ATOM     11  C   UNL     1       1.616  10.276  17.983  0.00  0.00    +0.000 A 
ATOM     12  C   UNL     1       1.685   9.144  18.835  0.00  0.00    +0.000 A 
ATOM     13  C   UNL     1       2.881   5.868  20.044  0.00  0.00    +0.000 A 
ATOM     14  O   UNL     1       2.811   5.224  21.086  0.00  0.00    +0.000 OA
ENDROOT
BRANCH   1  15
ATOM     15  C   UNL     1       4.233   4.115  19.080  0.00  0.00    +0.000 C 
BRANCH  15  16
ATOM     16  C   UNL     1       3.464   2.994  18.323  0.00  0.00    +0.000 C 
BRANCH  16  17
ATOM     17  N   UNL     1       2.679   2.075  19.182  0.00  0.00    +0.000 NA
BRANCH  17  19
ATOM     18  C   UNL     1       2.039   2.288  21.622  0.00  0.00    +0.000 C 
ATOM     19  C   UNL     1       3.148   2.170  20.578  0.00  0.00    +0.000 C 
ENDBRANCH  17  19
BRANCH  17  20
ATOM     20  C   UNL     1       1.224   2.201  19.031  0.00  0.00    +0.000 C 
ATOM     21  C   UNL     1       0.739   3.439  18.287  0.00  0.00    +0.000 C 
ENDBRANCH  17  20
ENDBRANCH  16  17
ENDBRANCH  15  16
ENDBRANCH   1  15
BRANCH   2  22
ATOM     22  S   UNL     1       4.982   5.808  16.638  0.00  0.00    +0.000 S 
BRANCH  22  23
ATOM     23  C   UNL     1       6.175   7.140  16.419  0.00  0.00    +0.000 C 
BRANCH  23  24
ATOM     24  C   UNL     1       7.183   7.242  17.548  0.00  0.00    +0.000 C 
ATOM     25  O   UNL     1       7.489   6.276  18.241  0.00  0.00    +0.000 OA
ATOM     26  N   UNL     1       7.773   8.472  17.696  0.00  0.00    +0.000 N 
ATOM     27  H   UNL     1       7.466   9.261  17.131  0.00  0.00    +0.000 HD
BRANCH  26  28
ATOM     28  C   UNL     1       8.775   8.695  18.707  0.00  0.00    +0.000 C 
BRANCH  28  29
ATOM     29  C   UNL     1       9.036  10.147  18.887  0.00  0.00    +0.000 A 
ATOM     30  C   UNL     1       9.207  11.179  17.987  0.00  0.00    +0.000 A 
ATOM     31  C   UNL     1       9.463  12.343  18.751  0.00  0.00    +0.000 A 
ATOM     32  C   UNL     1       9.438  11.945  20.065  0.00  0.00    +0.000 A 
ATOM     33  O   UNL     1       9.183  10.614  20.160  0.00  0.00    +0.000 OA
ENDBRANCH  28  29
ENDBRANCH  26  28
ENDBRANCH  23  24
ENDBRANCH  22  23
ENDBRANCH   2  22
TORSDOF 10
ENDMDL
MODEL 8
REMARK VINA RESULT:      -6.4      3.276      8.266
REMARK  Name = 
REMARK  12 active torsions:
REMARK  status: ('A' for Active; 'I' for Inactive)
REMARK    1  A    between atoms: C_1  and  C_2
REMARK    2  A    between atoms: C_2  and  N_3
REMARK    3  A    between atoms: N_3  and  C_4
REMARK    4  A    between atoms: N_3  and  C_6
REMARK    5  A    between atoms: C_4  and  C_5
REMARK    6  A    between atoms: C_6  and  C_7
REMARK    7  A    between atoms: C_7  and  N_8
REMARK    8  A    between atoms: C_9  and  S_10
REMARK    9  A    between atoms: S_10  and  C_11
REMARK   10  A    between atoms: C_11  and  C_12
REMARK   11  A    between atoms: N_14  and  C_15
REMARK   12  A    between atoms: C_15  and  C_16
REMARK                            x       y       z     vdW  Elec       q    Type
REMARK                         _______ _______ _______ _____ _____    ______ ____
ROOT
ATOM      1  N   UNL     1      -0.341  12.184  19.138  0.00  0.00    +0.000 N 
ATOM      2  C   UNL     1       0.834  11.615  18.620  0.00  0.00    +0.000 A 
ATOM      3  N   UNL     1       1.975  12.227  18.441  0.00  0.00    +0.000 NA
ATOM      4  C   UNL     1       1.981  13.592  18.800  0.00  0.00    +0.000 A 
ATOM      5  C   UNL     1       0.900  14.177  19.381  0.00  0.00    +0.000 A 
ATOM      6  S   UNL     1       1.117  15.813  19.719  0.00  0.00    +0.000 S 
ATOM      7  C   UNL     1       2.746  15.767  19.162  0.00  0.00    +0.000 A 
ATOM      8  C   UNL     1       3.656  16.841  19.189  0.00  0.00    +0.000 A 
ATOM      9  C   UNL     1       4.947  16.642  18.710  0.00  0.00    +0.000 A 
ATOM     10  C   UNL     1       5.322  15.405  18.205  0.00  0.00    +0.000 A 
ATOM     11  C   UNL     1       4.413  14.337  18.176  0.00  0.00    +0.000 A 
ATOM     12  C   UNL     1       3.093  14.498  18.668  0.00  0.00    +0.000 A 
ATOM     13  C   UNL     1      -0.310  13.476  19.666  0.00  0.00    +0.000 A 
ATOM     14  O   UNL     1      -1.226  13.955  20.326  0.00  0.00    +0.000 OA
ENDROOT
BRANCH   1  15
ATOM     15  C   UNL     1      -1.631  11.482  19.328  0.00  0.00    +0.000 C 
BRANCH  15  16
ATOM     16  C   UNL     1      -2.628  11.657  18.146  0.00  0.00    +0.000 C 
BRANCH  16  17
ATOM     17  N   UNL     1      -3.476  10.476  17.855  0.00  0.00    +0.000 NA
BRANCH  17  19
ATOM     18  C   UNL     1      -5.365  12.055  17.267  0.00  0.00    +0.000 C 
ATOM     19  C   UNL     1      -4.899  10.823  18.040  0.00  0.00    +0.000 C 
ENDBRANCH  17  19
BRANCH  17  20
ATOM     20  C   UNL     1      -3.182   9.821  16.574  0.00  0.00    +0.000 C 
ATOM     21  C   UNL     1      -2.645  10.728  15.474  0.00  0.00    +0.000 C 
ENDBRANCH  17  20
ENDBRANCH  16  17
ENDBRANCH  15  16
ENDBRANCH   1  15
BRANCH   2  22
ATOM     22  S   UNL     1       0.727   9.919  18.152  0.00  0.00    +0.000 S 
BRANCH  22  23
ATOM     23  C   UNL     1       1.460   8.991  19.511  0.00  0.00    +0.000 C 
BRANCH  23  24
ATOM     24  C   UNL     1       2.228   7.763  19.061  0.00  0.00    +0.000 C 
ATOM     25  O   UNL     1       2.614   7.619  17.904  0.00  0.00    +0.000 OA
ATOM     26  N   UNL     1       2.515   6.857  20.051  0.00  0.00    +0.000 N 
ATOM     27  H   UNL     1       2.144   6.987  20.990  0.00  0.00    +0.000 HD
BRANCH  26  28
ATOM     28  C   UNL     1       3.270   5.664  19.766  0.00  0.00    +0.000 C 
BRANCH  28  29
ATOM     29  C   UNL     1       2.556   4.453  20.247  0.00  0.00    +0.000 A 
ATOM     30  C   UNL     1       1.237   4.223  20.582  0.00  0.00    +0.000 A 
ATOM     31  C   UNL     1       1.157   2.876  21.009  0.00  0.00    +0.000 A 
ATOM     32  C   UNL     1       2.431   2.374  20.915  0.00  0.00    +0.000 A 
ATOM     33  O   UNL     1       3.290   3.322  20.456  0.00  0.00    +0.000 OA
ENDBRANCH  28  29
ENDBRANCH  26  28
ENDBRANCH  23  24
ENDBRANCH  22  23
ENDBRANCH   2  22
TORSDOF 10
ENDMDL
MODEL 9
REMARK VINA RESULT:      -6.3      2.959      5.092
REMARK  Name = 
REMARK  12 active torsions:
REMARK  status: ('A' for Active; 'I' for Inactive)
REMARK    1  A    between atoms: C_1  and  C_2
REMARK    2  A    between atoms: C_2  and  N_3
REMARK    3  A    between atoms: N_3  and  C_4
REMARK    4  A    between atoms: N_3  and  C_6
REMARK    5  A    between atoms: C_4  and  C_5
REMARK    6  A    between atoms: C_6  and  C_7
REMARK    7  A    between atoms: C_7  and  N_8
REMARK    8  A    between atoms: C_9  and  S_10
REMARK    9  A    between atoms: S_10  and  C_11
REMARK   10  A    between atoms: C_11  and  C_12
REMARK   11  A    between atoms: N_14  and  C_15
REMARK   12  A    between atoms: C_15  and  C_16
REMARK                            x       y       z     vdW  Elec       q    Type
REMARK                         _______ _______ _______ _____ _____    ______ ____
ROOT
ATOM      1  N   UNL     1      -1.428  11.957  22.290  0.00  0.00    +0.000 N 
ATOM      2  C   UNL     1      -1.548  12.244  20.921  0.00  0.00    +0.000 A 
ATOM      3  N   UNL     1      -0.960  11.607  19.943  0.00  0.00    +0.000 NA
ATOM      4  C   UNL     1      -0.119  10.546  20.343  0.00  0.00    +0.000 A 
ATOM      5  C   UNL     1      -0.026  10.170  21.646  0.00  0.00    +0.000 A 
ATOM      6  S   UNL     1       1.039   8.890  21.905  0.00  0.00    +0.000 S 
ATOM      7  C   UNL     1       1.350   8.738  20.218  0.00  0.00    +0.000 A 
ATOM      8  C   UNL     1       2.170   7.764  19.617  0.00  0.00    +0.000 A 
ATOM      9  C   UNL     1       2.314   7.765  18.233  0.00  0.00    +0.000 A 
ATOM     10  C   UNL     1       1.665   8.721  17.464  0.00  0.00    +0.000 A 
ATOM     11  C   UNL     1       0.850   9.692  18.065  0.00  0.00    +0.000 A 
ATOM     12  C   UNL     1       0.669   9.714  19.471  0.00  0.00    +0.000 A 
ATOM     13  C   UNL     1      -0.750  10.806  22.699  0.00  0.00    +0.000 A 
ATOM     14  O   UNL     1      -0.789  10.374  23.846  0.00  0.00    +0.000 OA
ENDROOT
BRANCH   1  15
ATOM     15  C   UNL     1      -2.093  12.691  23.390  0.00  0.00    +0.000 C 
BRANCH  15  16
ATOM     16  C   UNL     1      -1.348  13.984  23.831  0.00  0.00    +0.000 C 
BRANCH  16  17
ATOM     17  N   UNL     1      -2.164  15.222  23.809  0.00  0.00    +0.000 NA
BRANCH  17  19
ATOM     18  C   UNL     1      -4.688  15.206  23.983  0.00  0.00    +0.000 C 
ATOM     19  C   UNL     1      -3.340  15.063  24.686  0.00  0.00    +0.000 C 
ENDBRANCH  17  19
BRANCH  17  20
ATOM     20  C   UNL     1      -1.401  16.454  24.049  0.00  0.00    +0.000 C 
ATOM     21  C   UNL     1      -1.900  17.330  25.191  0.00  0.00    +0.000 C 
ENDBRANCH  17  20
ENDBRANCH  16  17
ENDBRANCH  15  16
ENDBRANCH   1  15
BRANCH   2  22
ATOM     22  S   UNL     1      -2.578  13.614  20.509  0.00  0.00    +0.000 S 
BRANCH  22  23
ATOM     23  C   UNL     1      -4.268  13.054  20.784  0.00  0.00    +0.000 C 
BRANCH  23  24
ATOM     24  C   UNL     1      -5.017  12.737  19.504  0.00  0.00    +0.000 C 
ATOM     25  O   UNL     1      -6.169  13.114  19.309  0.00  0.00    +0.000 OA
ATOM     26  N   UNL     1      -4.296  12.055  18.557  0.00  0.00    +0.000 N 
ATOM     27  H   UNL     1      -3.357  11.722  18.767  0.00  0.00    +0.000 HD
BRANCH  26  28
ATOM     28  C   UNL     1      -4.876  11.723  17.281  0.00  0.00    +0.000 C 
BRANCH  28  29
ATOM     29  C   UNL     1      -3.950  10.885  16.476  0.00  0.00    +0.000 A 
ATOM     30  C   UNL     1      -2.901  10.059  16.826  0.00  0.00    +0.000 A 
ATOM     31  C   UNL     1      -2.366   9.551  15.619  0.00  0.00    +0.000 A 
ATOM     32  C   UNL     1      -3.117  10.104  14.611  0.00  0.00    +0.000 A 
ATOM     33  O   UNL     1      -4.079  10.918  15.118  0.00  0.00    +0.000 OA
ENDBRANCH  28  29
ENDBRANCH  26  28
ENDBRANCH  23  24
ENDBRANCH  22  23
ENDBRANCH   2  22
TORSDOF 10
ENDMDL
