MODEL 1
REMARK VINA RESULT:      -8.2      0.000      0.000
REMARK  Name = 
REMARK  6 active torsions:
REMARK  status: ('A' for Active; 'I' for Inactive)
REMARK    1  A    between atoms: C_1  and  N_2
REMARK    2  A    between atoms: N_2  and  C_3
REMARK    3  A    between atoms: C_6  and  N_7
REMARK    4  A    between atoms: C_9  and  C_10
REMARK    5  A    between atoms: N_14  and  C_15
REMARK    6  A    between atoms: C_23  and  C_24
REMARK                            x       y       z     vdW  Elec       q    Type
REMARK                         _______ _______ _______ _____ _____    ______ ____
ROOT
ATOM      1  N   UNL     1       2.160   7.173  19.858  0.00  0.00    +0.000 N 
ATOM      2  C   UNL     1       1.415   6.310  20.599  0.00  0.00    +0.000 A 
ATOM      3  C   UNL     1       2.079   5.092  20.547  0.00  0.00    +0.000 A 
ATOM      4  C   UNL     1       3.202   5.331  19.703  0.00  0.00    +0.000 A 
ATOM      5  N   UNL     1       4.126   4.402  19.349  0.00  0.00    +0.000 N 
ATOM      6  N   UNL     1       3.210   6.595  19.276  0.00  0.00    +0.000 NA
ATOM      7  H   UNL     1       4.188   3.540  19.884  0.00  0.00    +0.000 HD
ENDROOT
BRANCH   5   8
ATOM      8  C   UNL     1       4.915   4.410  18.176  0.00  0.00    +0.000 A 
ATOM      9  C   UNL     1       6.269   4.758  18.233  0.00  0.00    +0.000 A 
ATOM     10  C   UNL     1       7.032   4.858  17.061  0.00  0.00    +0.000 A 
ATOM     11  C   UNL     1       6.444   4.606  15.822  0.00  0.00    +0.000 A 
ATOM     12 CL   UNL     1       7.375   4.730  14.381  0.00  0.00    +0.000 Cl
ATOM     13  C   UNL     1       5.102   4.262  15.742  0.00  0.00    +0.000 A 
ATOM     14  C   UNL     1       4.347   4.176  16.911  0.00  0.00    +0.000 A 
ENDBRANCH   5   8
BRANCH   1  18
ATOM     15  C   UNL     1      -0.059  10.661  18.700  0.00  0.00    +0.000 C 
ATOM     16  C   UNL     1       1.102  10.222  17.788  0.00  0.00    +0.000 C 
ATOM     17  C   UNL     1       1.594   8.807  18.101  0.00  0.00    +0.000 C 
ATOM     18  C   UNL     1       1.910   8.590  19.595  0.00  0.00    +0.000 C 
ATOM     19  C   UNL     1       0.803   9.130  20.528  0.00  0.00    +0.000 C 
ATOM     20  C   UNL     1       0.430  10.573  20.150  0.00  0.00    +0.000 C 
BRANCH  15  22
ATOM     21  C   UNL     1      -1.864  10.003  17.170  0.00  0.00    +0.000 C 
ATOM     22  N   UNL     1      -1.221   9.800  18.462  0.00  0.00    +0.000 NA
ATOM     23  H   UNL     1      -0.955   8.818  18.548  0.00  0.00    +0.000 HD
ENDBRANCH  15  22
BRANCH  19  24
ATOM     24  C   UNL     1       1.254   9.097  21.926  0.00  0.00    +0.000 C 
ATOM     25  N   UNL     1       1.620   9.100  23.029  0.00  0.00    +0.000 NA
ENDBRANCH  19  24
ENDBRANCH   1  18
BRANCH   3  26
ATOM     26  C   UNL     1       1.688   3.857  21.189  0.00  0.00    +0.000 C 
ATOM     27  N   UNL     1       0.668   3.180  20.576  0.00  0.00    +0.000 N 
ATOM     28  O   UNL     1       2.241   3.409  22.186  0.00  0.00    +0.000 OA
ATOM     29  H   UNL     1       0.429   3.379  19.614  0.00  0.00    +0.000 HD
ATOM     30  H   UNL     1       0.471   2.253  20.927  0.00  0.00    +0.000 HD
ENDBRANCH   3  26
TORSDOF 5
ENDMDL
MODEL 2
REMARK VINA RESULT:      -7.7      3.249      5.607
REMARK  Name = 
REMARK  6 active torsions:
REMARK  status: ('A' for Active; 'I' for Inactive)
REMARK    1  A    between atoms: C_1  and  N_2
REMARK    2  A    between atoms: N_2  and  C_3
REMARK    3  A    between atoms: C_6  and  N_7
REMARK    4  A    between atoms: C_9  and  C_10
REMARK    5  A    between atoms: N_14  and  C_15
REMARK    6  A    between atoms: C_23  and  C_24
REMARK                            x       y       z     vdW  Elec       q    Type
REMARK                         _______ _______ _______ _____ _____    ______ ____
ROOT
ATOM      1  N   UNL     1       4.299   5.054  18.046  0.00  0.00    +0.000 N 
ATOM      2  C   UNL     1       5.201   5.407  18.999  0.00  0.00    +0.000 A 
ATOM      3  C   UNL     1       6.360   5.751  18.318  0.00  0.00    +0.000 A 
ATOM      4  C   UNL     1       6.051   5.526  16.946  0.00  0.00    +0.000 A 
ATOM      5  N   UNL     1       6.909   5.710  15.910  0.00  0.00    +0.000 N 
ATOM      6  N   UNL     1       4.802   5.075  16.812  0.00  0.00    +0.000 NA
ATOM      7  H   UNL     1       7.748   6.263  16.059  0.00  0.00    +0.000 HD
ENDROOT
BRANCH   5   8
ATOM      8  C   UNL     1       6.866   5.051  14.660  0.00  0.00    +0.000 A 
ATOM      9  C   UNL     1       6.038   3.938  14.472  0.00  0.00    +0.000 A 
ATOM     10  C   UNL     1       6.062   3.226  13.265  0.00  0.00    +0.000 A 
ATOM     11  C   UNL     1       6.914   3.623  12.235  0.00  0.00    +0.000 A 
ATOM     12 CL   UNL     1       6.949   2.749  10.754  0.00  0.00    +0.000 Cl
ATOM     13  C   UNL     1       7.746   4.721  12.402  0.00  0.00    +0.000 A 
ATOM     14  C   UNL     1       7.725   5.419  13.610  0.00  0.00    +0.000 A 
ENDBRANCH   5   8
BRANCH   1  18
ATOM     15  C   UNL     1       1.015   2.897  19.774  0.00  0.00    +0.000 C 
ATOM     16  C   UNL     1       1.430   2.528  18.337  0.00  0.00    +0.000 C 
ATOM     17  C   UNL     1       2.795   3.103  17.953  0.00  0.00    +0.000 C 
ATOM     18  C   UNL     1       2.915   4.617  18.226  0.00  0.00    +0.000 C 
ATOM     19  C   UNL     1       2.395   5.018  19.624  0.00  0.00    +0.000 C 
ATOM     20  C   UNL     1       0.998   4.426  19.875  0.00  0.00    +0.000 C 
BRANCH  15  22
ATOM     21  C   UNL     1       1.652   2.572  22.124  0.00  0.00    +0.000 C 
ATOM     22  N   UNL     1       1.955   2.296  20.725  0.00  0.00    +0.000 NA
ATOM     23  H   UNL     1       1.995   1.285  20.589  0.00  0.00    +0.000 HD
ENDBRANCH  15  22
BRANCH  19  24
ATOM     24  C   UNL     1       2.328   6.481  19.743  0.00  0.00    +0.000 C 
ATOM     25  N   UNL     1       2.246   7.637  19.830  0.00  0.00    +0.000 NA
ENDBRANCH  19  24
ENDBRANCH   1  18
BRANCH   3  26
ATOM     26  C   UNL     1       7.606   6.208  18.892  0.00  0.00    +0.000 C 
ATOM     27  N   UNL     1       8.095   5.437  19.912  0.00  0.00    +0.000 N 
ATOM     28  O   UNL     1       8.219   7.187  18.485  0.00  0.00    +0.000 OA
ATOM     29  H   UNL     1       7.767   4.488  20.037  0.00  0.00    +0.000 HD
ATOM     30  H   UNL     1       9.027   5.657  20.235  0.00  0.00    +0.000 HD
ENDBRANCH   3  26
TORSDOF 5
ENDMDL
MODEL 3
REMARK VINA RESULT:      -7.4      3.358      5.827
REMARK  Name = 
REMARK  6 active torsions:
REMARK  status: ('A' for Active; 'I' for Inactive)
REMARK    1  A    between atoms: C_1  and  N_2
REMARK    2  A    between atoms: N_2  and  C_3
REMARK    3  A    between atoms: C_6  and  N_7
REMARK    4  A    between atoms: C_9  and  C_10
REMARK    5  A    between atoms: N_14  and  C_15
REMARK    6  A    between atoms: C_23  and  C_24
REMARK                            x       y       z     vdW  Elec       q    Type
REMARK                         _______ _______ _______ _____ _____    ______ ____
ROOT
ATOM      1  N   UNL     1       4.288   5.334  17.478  0.00  0.00    +0.000 N 
ATOM      2  C   UNL     1       5.154   6.009  18.279  0.00  0.00    +0.000 A 
ATOM      3  C   UNL     1       6.249   6.315  17.483  0.00  0.00    +0.000 A 
ATOM      4  C   UNL     1       5.947   5.733  16.218  0.00  0.00    +0.000 A 
ATOM      5  N   UNL     1       6.757   5.763  15.129  0.00  0.00    +0.000 N 
ATOM      6  N   UNL     1       4.763   5.119  16.253  0.00  0.00    +0.000 NA
ATOM      7  H   UNL     1       7.522   6.431  15.104  0.00  0.00    +0.000 HD
ENDROOT
BRANCH   5   8
ATOM      8  C   UNL     1       6.776   4.824  14.072  0.00  0.00    +0.000 A 
ATOM      9  C   UNL     1       7.568   5.047  12.940  0.00  0.00    +0.000 A 
ATOM     10  C   UNL     1       7.519   4.165  11.850  0.00  0.00    +0.000 A 
ATOM     11  C   UNL     1       6.679   3.053  11.887  0.00  0.00    +0.000 A 
ATOM     12 CL   UNL     1       6.614   1.972  10.551  0.00  0.00    +0.000 Cl
ATOM     13  C   UNL     1       5.883   2.816  12.999  0.00  0.00    +0.000 A 
ATOM     14  C   UNL     1       5.928   3.703  14.075  0.00  0.00    +0.000 A 
ENDBRANCH   5   8
BRANCH   1  18
ATOM     15  C   UNL     1       1.398   3.001  19.632  0.00  0.00    +0.000 C 
ATOM     16  C   UNL     1       1.698   2.594  18.177  0.00  0.00    +0.000 C 
ATOM     17  C   UNL     1       2.961   3.261  17.627  0.00  0.00    +0.000 C 
ATOM     18  C   UNL     1       2.973   4.792  17.822  0.00  0.00    +0.000 C 
ATOM     19  C   UNL     1       2.563   5.220  19.248  0.00  0.00    +0.000 C 
ATOM     20  C   UNL     1       1.256   4.527  19.669  0.00  0.00    +0.000 C 
BRANCH  15  22
ATOM     21  C   UNL     1       2.273   2.813  21.919  0.00  0.00    +0.000 C 
ATOM     22  N   UNL     1       2.479   2.531  20.504  0.00  0.00    +0.000 NA
ATOM     23  H   UNL     1       2.616   1.526  20.384  0.00  0.00    +0.000 HD
ENDBRANCH  15  22
BRANCH  19  24
ATOM     24  C   UNL     1       2.379   6.676  19.310  0.00  0.00    +0.000 C 
ATOM     25  N   UNL     1       2.225   7.828  19.329  0.00  0.00    +0.000 NA
ENDBRANCH  19  24
ENDBRANCH   1  18
BRANCH   3  26
ATOM     26  C   UNL     1       7.437   7.040  17.874  0.00  0.00    +0.000 C 
ATOM     27  N   UNL     1       8.073   6.558  18.987  0.00  0.00    +0.000 N 
ATOM     28  O   UNL     1       7.884   7.993  17.248  0.00  0.00    +0.000 OA
ATOM     29  H   UNL     1       7.892   5.618  19.311  0.00  0.00    +0.000 HD
ATOM     30  H   UNL     1       8.976   6.962  19.198  0.00  0.00    +0.000 HD
ENDBRANCH   3  26
TORSDOF 5
ENDMDL
MODEL 4
REMARK VINA RESULT:      -7.4      0.655      1.150
REMARK  Name = 
REMARK  6 active torsions:
REMARK  status: ('A' for Active; 'I' for Inactive)
REMARK    1  A    between atoms: C_1  and  N_2
REMARK    2  A    between atoms: N_2  and  C_3
REMARK    3  A    between atoms: C_6  and  N_7
REMARK    4  A    between atoms: C_9  and  C_10
REMARK    5  A    between atoms: N_14  and  C_15
REMARK    6  A    between atoms: C_23  and  C_24
REMARK                            x       y       z     vdW  Elec       q    Type
REMARK                         _______ _______ _______ _____ _____    ______ ____
ROOT
ATOM      1  N   UNL     1       2.080   7.289  19.833  0.00  0.00    +0.000 N 
ATOM      2  C   UNL     1       1.344   6.384  20.531  0.00  0.00    +0.000 A 
ATOM      3  C   UNL     1       2.024   5.179  20.427  0.00  0.00    +0.000 A 
ATOM      4  C   UNL     1       3.147   5.470  19.600  0.00  0.00    +0.000 A 
ATOM      5  N   UNL     1       4.085   4.571  19.208  0.00  0.00    +0.000 N 
ATOM      6  N   UNL     1       3.140   6.753  19.230  0.00  0.00    +0.000 NA
ATOM      7  H   UNL     1       4.156   3.687  19.703  0.00  0.00    +0.000 HD
ENDROOT
BRANCH   5   8
ATOM      8  C   UNL     1       4.877   4.642  18.039  0.00  0.00    +0.000 A 
ATOM      9  C   UNL     1       4.327   4.335  16.789  0.00  0.00    +0.000 A 
ATOM     10  C   UNL     1       5.131   4.313  15.641  0.00  0.00    +0.000 A 
ATOM     11  C   UNL     1       6.492   4.601  15.735  0.00  0.00    +0.000 A 
ATOM     12 CL   UNL     1       7.483   4.572  14.329  0.00  0.00    +0.000 Cl
ATOM     13  C   UNL     1       7.059   4.905  16.965  0.00  0.00    +0.000 A 
ATOM     14  C   UNL     1       6.255   4.914  18.105  0.00  0.00    +0.000 A 
ENDBRANCH   5   8
BRANCH   1  18
ATOM     15  C   UNL     1      -0.200  10.802  18.889  0.00  0.00    +0.000 C 
ATOM     16  C   UNL     1       0.930  10.408  17.921  0.00  0.00    +0.000 C 
ATOM     17  C   UNL     1       1.442   8.985  18.161  0.00  0.00    +0.000 C 
ATOM     18  C   UNL     1       1.812   8.714  19.634  0.00  0.00    +0.000 C 
ATOM     19  C   UNL     1       0.736   9.209  20.626  0.00  0.00    +0.000 C 
ATOM     20  C   UNL     1       0.341  10.663  20.317  0.00  0.00    +0.000 C 
BRANCH  15  22
ATOM     21  C   UNL     1      -1.969  10.090  17.342  0.00  0.00    +0.000 C 
ATOM     22  N   UNL     1      -1.365   9.942  18.660  0.00  0.00    +0.000 NA
ATOM     23  H   UNL     1      -1.112   8.963  18.799  0.00  0.00    +0.000 HD
ENDBRANCH  15  22
BRANCH  19  24
ATOM     24  C   UNL     1       1.236   9.126  22.004  0.00  0.00    +0.000 C 
ATOM     25  N   UNL     1       1.605   9.073  23.105  0.00  0.00    +0.000 NA
ENDBRANCH  19  24
ENDBRANCH   1  18
BRANCH   3  26
ATOM     26  C   UNL     1       1.648   3.911  21.011  0.00  0.00    +0.000 C 
ATOM     27  N   UNL     1       2.369   3.542  22.115  0.00  0.00    +0.000 N 
ATOM     28  O   UNL     1       0.728   3.220  20.592  0.00  0.00    +0.000 OA
ATOM     29  H   UNL     1       2.899   4.231  22.632  0.00  0.00    +0.000 HD
ATOM     30  H   UNL     1       2.036   2.731  22.619  0.00  0.00    +0.000 HD
ENDBRANCH   3  26
TORSDOF 5
ENDMDL
MODEL 5
REMARK VINA RESULT:      -7.0      3.400      6.013
REMARK  Name = 
REMARK  6 active torsions:
REMARK  status: ('A' for Active; 'I' for Inactive)
REMARK    1  A    between atoms: C_1  and  N_2
REMARK    2  A    between atoms: N_2  and  C_3
REMARK    3  A    between atoms: C_6  and  N_7
REMARK    4  A    between atoms: C_9  and  C_10
REMARK    5  A    between atoms: N_14  and  C_15
REMARK    6  A    between atoms: C_23  and  C_24
REMARK                            x       y       z     vdW  Elec       q    Type
REMARK                         _______ _______ _______ _____ _____    ______ ____
ROOT
ATOM      1  N   UNL     1       4.451   5.164  17.891  0.00  0.00    +0.000 N 
ATOM      2  C   UNL     1       5.381   5.864  18.594  0.00  0.00    +0.000 A 
ATOM      3  C   UNL     1       6.324   6.282  17.666  0.00  0.00    +0.000 A 
ATOM      4  C   UNL     1       5.878   5.735  16.428  0.00  0.00    +0.000 A 
ATOM      5  N   UNL     1       6.514   5.871  15.238  0.00  0.00    +0.000 N 
ATOM      6  N   UNL     1       4.754   5.036  16.600  0.00  0.00    +0.000 NA
ATOM      7  H   UNL     1       7.223   6.593  15.138  0.00  0.00    +0.000 HD
ENDROOT
BRANCH   5   8
ATOM      8  C   UNL     1       6.439   4.982  14.140  0.00  0.00    +0.000 A 
ATOM      9  C   UNL     1       5.402   4.045  14.056  0.00  0.00    +0.000 A 
ATOM     10  C   UNL     1       5.375   3.101  13.020  0.00  0.00    +0.000 A 
ATOM     11  C   UNL     1       6.386   3.089  12.059  0.00  0.00    +0.000 A 
ATOM     12 CL   UNL     1       6.358   1.930  10.788  0.00  0.00    +0.000 Cl
ATOM     13  C   UNL     1       7.425   4.007  12.126  0.00  0.00    +0.000 A 
ATOM     14  C   UNL     1       7.451   4.936  13.166  0.00  0.00    +0.000 A 
ENDBRANCH   5   8
BRANCH   1  18
ATOM     15  C   UNL     1       2.000   2.846  20.546  0.00  0.00    +0.000 C 
ATOM     16  C   UNL     1       2.301   2.252  19.157  0.00  0.00    +0.000 C 
ATOM     17  C   UNL     1       3.436   2.984  18.438  0.00  0.00    +0.000 C 
ATOM     18  C   UNL     1       3.240   4.513  18.391  0.00  0.00    +0.000 C 
ATOM     19  C   UNL     1       2.825   5.109  19.755  0.00  0.00    +0.000 C 
ATOM     20  C   UNL     1       1.645   4.324  20.353  0.00  0.00    +0.000 C 
BRANCH  15  22
ATOM     21  C   UNL     1       4.201   1.805  20.867  0.00  0.00    +0.000 C 
ATOM     22  N   UNL     1       3.167   2.672  21.417  0.00  0.00    +0.000 NA
ATOM     23  H   UNL     1       3.579   3.579  21.637  0.00  0.00    +0.000 HD
ENDBRANCH  15  22
BRANCH  19  24
ATOM     24  C   UNL     1       2.440   6.518  19.600  0.00  0.00    +0.000 C 
ATOM     25  N   UNL     1       2.148   7.639  19.506  0.00  0.00    +0.000 NA
ENDBRANCH  19  24
ENDBRANCH   1  18
BRANCH   3  26
ATOM     26  C   UNL     1       7.507   7.073  17.920  0.00  0.00    +0.000 C 
ATOM     27  N   UNL     1       8.235   6.696  19.017  0.00  0.00    +0.000 N 
ATOM     28  O   UNL     1       7.874   7.992  17.199  0.00  0.00    +0.000 OA
ATOM     29  H   UNL     1       8.113   5.776  19.419  0.00  0.00    +0.000 HD
ATOM     30  H   UNL     1       9.134   7.144  19.135  0.00  0.00    +0.000 HD
ENDBRANCH   3  26
TORSDOF 5
ENDMDL
MODEL 6
REMARK VINA RESULT:      -6.8      4.446      7.376
REMARK  Name = 
REMARK  6 active torsions:
REMARK  status: ('A' for Active; 'I' for Inactive)
REMARK    1  A    between atoms: C_1  and  N_2
REMARK    2  A    between atoms: N_2  and  C_3
REMARK    3  A    between atoms: C_6  and  N_7
REMARK    4  A    between atoms: C_9  and  C_10
REMARK    5  A    between atoms: N_14  and  C_15
REMARK    6  A    between atoms: C_23  and  C_24
REMARK                            x       y       z     vdW  Elec       q    Type
REMARK                         _______ _______ _______ _____ _____    ______ ____
ROOT
ATOM      1  N   UNL     1      -1.964  11.798  18.630  0.00  0.00    +0.000 N 
ATOM      2  C   UNL     1      -1.396  13.031  18.704  0.00  0.00    +0.000 A 
ATOM      3  C   UNL     1      -0.029  12.828  18.578  0.00  0.00    +0.000 A 
ATOM      4  C   UNL     1       0.117  11.415  18.474  0.00  0.00    +0.000 A 
ATOM      5  N   UNL     1       1.298  10.756  18.358  0.00  0.00    +0.000 N 
ATOM      6  N   UNL     1      -1.072  10.812  18.538  0.00  0.00    +0.000 NA
ATOM      7  H   UNL     1       2.128  11.278  18.089  0.00  0.00    +0.000 HD
ENDROOT
BRANCH   5   8
ATOM      8  C   UNL     1       1.559   9.425  18.759  0.00  0.00    +0.000 A 
ATOM      9  C   UNL     1       1.316   9.021  20.076  0.00  0.00    +0.000 A 
ATOM     10  C   UNL     1       1.660   7.730  20.502  0.00  0.00    +0.000 A 
ATOM     11  C   UNL     1       2.248   6.833  19.610  0.00  0.00    +0.000 A 
ATOM     12 CL   UNL     1       2.675   5.250  20.130  0.00  0.00    +0.000 Cl
ATOM     13  C   UNL     1       2.502   7.216  18.300  0.00  0.00    +0.000 A 
ATOM     14  C   UNL     1       2.167   8.505  17.887  0.00  0.00    +0.000 A 
ENDBRANCH   5   8
BRANCH   1  18
ATOM     15  C   UNL     1      -6.209  12.379  18.362  0.00  0.00    +0.000 C 
ATOM     16  C   UNL     1      -5.611  12.148  19.762  0.00  0.00    +0.000 C 
ATOM     17  C   UNL     1      -4.087  12.291  19.782  0.00  0.00    +0.000 C 
ATOM     18  C   UNL     1      -3.383  11.449  18.698  0.00  0.00    +0.000 C 
ATOM     19  C   UNL     1      -4.044  11.583  17.309  0.00  0.00    +0.000 C 
ATOM     20  C   UNL     1      -5.563  11.368  17.407  0.00  0.00    +0.000 C 
BRANCH  15  22
ATOM     21  C   UNL     1      -6.790  14.215  16.837  0.00  0.00    +0.000 C 
ATOM     22  N   UNL     1      -5.958  13.763  17.944  0.00  0.00    +0.000 NA
ATOM     23  H   UNL     1      -6.086  14.396  18.734  0.00  0.00    +0.000 HD
ENDBRANCH  15  22
BRANCH  19  24
ATOM     24  C   UNL     1      -3.476  10.600  16.377  0.00  0.00    +0.000 C 
ATOM     25  N   UNL     1      -3.055   9.817  15.628  0.00  0.00    +0.000 NA
ENDBRANCH  19  24
ENDBRANCH   1  18
BRANCH   3  26
ATOM     26  C   UNL     1       1.007  13.837  18.582  0.00  0.00    +0.000 C 
ATOM     27  N   UNL     1       0.657  15.028  19.162  0.00  0.00    +0.000 N 
ATOM     28  O   UNL     1       2.134  13.651  18.142  0.00  0.00    +0.000 OA
ATOM     29  H   UNL     1      -0.139  15.078  19.783  0.00  0.00    +0.000 HD
ATOM     30  H   UNL     1       1.403  15.697  19.298  0.00  0.00    +0.000 HD
ENDBRANCH   3  26
TORSDOF 5
ENDMDL
MODEL 7
REMARK VINA RESULT:      -6.8      3.017      6.823
REMARK  Name = 
REMARK  6 active torsions:
REMARK  status: ('A' for Active; 'I' for Inactive)
REMARK    1  A    between atoms: C_1  and  N_2
REMARK    2  A    between atoms: N_2  and  C_3
REMARK    3  A    between atoms: C_6  and  N_7
REMARK    4  A    between atoms: C_9  and  C_10
REMARK    5  A    between atoms: N_14  and  C_15
REMARK    6  A    between atoms: C_23  and  C_24
REMARK                            x       y       z     vdW  Elec       q    Type
REMARK                         _______ _______ _______ _____ _____    ______ ____
ROOT
ATOM      1  N   UNL     1       4.108   5.394  19.300  0.00  0.00    +0.000 N 
ATOM      2  C   UNL     1       3.768   4.226  19.907  0.00  0.00    +0.000 A 
ATOM      3  C   UNL     1       2.535   4.452  20.504  0.00  0.00    +0.000 A 
ATOM      4  C   UNL     1       2.245   5.818  20.222  0.00  0.00    +0.000 A 
ATOM      5  N   UNL     1       1.138   6.484  20.637  0.00  0.00    +0.000 N 
ATOM      6  N   UNL     1       3.231   6.373  19.514  0.00  0.00    +0.000 NA
ATOM      7  H   UNL     1       0.337   5.952  20.966  0.00  0.00    +0.000 HD
ENDROOT
BRANCH   5   8
ATOM      8  C   UNL     1       1.028   7.879  20.846  0.00  0.00    +0.000 A 
ATOM      9  C   UNL     1       0.713   8.383  22.113  0.00  0.00    +0.000 A 
ATOM     10  C   UNL     1       0.511   9.757  22.305  0.00  0.00    +0.000 A 
ATOM     11  C   UNL     1       0.625  10.637  21.230  0.00  0.00    +0.000 A 
ATOM     12 CL   UNL     1       0.375  12.323  21.460  0.00  0.00    +0.000 Cl
ATOM     13  C   UNL     1       0.932  10.158  19.964  0.00  0.00    +0.000 A 
ATOM     14  C   UNL     1       1.121   8.788  19.778  0.00  0.00    +0.000 A 
ENDBRANCH   5   8
BRANCH   1  18
ATOM     15  C   UNL     1       7.080   4.894  16.242  0.00  0.00    +0.000 C 
ATOM     16  C   UNL     1       7.520   4.679  17.702  0.00  0.00    +0.000 C 
ATOM     17  C   UNL     1       6.334   4.548  18.661  0.00  0.00    +0.000 C 
ATOM     18  C   UNL     1       5.310   5.693  18.521  0.00  0.00    +0.000 C 
ATOM     19  C   UNL     1       4.945   5.997  17.051  0.00  0.00    +0.000 C 
ATOM     20  C   UNL     1       6.214   6.158  16.199  0.00  0.00    +0.000 C 
BRANCH  15  22
ATOM     21  C   UNL     1       6.069   3.711  14.342  0.00  0.00    +0.000 C 
ATOM     22  N   UNL     1       6.347   3.713  15.772  0.00  0.00    +0.000 NA
ATOM     23  H   UNL     1       6.861   2.864  16.010  0.00  0.00    +0.000 HD
ENDBRANCH  15  22
BRANCH  19  24
ATOM     24  C   UNL     1       4.147   7.227  16.968  0.00  0.00    +0.000 C 
ATOM     25  N   UNL     1       3.498   8.190  16.926  0.00  0.00    +0.000 NA
ENDBRANCH  19  24
ENDBRANCH   1  18
BRANCH   3  26
ATOM     26  C   UNL     1       1.747   3.507  21.263  0.00  0.00    +0.000 C 
ATOM     27  N   UNL     1       0.619   3.053  20.634  0.00  0.00    +0.000 N 
ATOM     28  O   UNL     1       2.066   3.098  22.372  0.00  0.00    +0.000 OA
ATOM     29  H   UNL     1       0.521   3.145  19.632  0.00  0.00    +0.000 HD
ATOM     30  H   UNL     1       0.128   2.294  21.086  0.00  0.00    +0.000 HD
ENDBRANCH   3  26
TORSDOF 5
ENDMDL
MODEL 8
REMARK VINA RESULT:      -6.6      6.846      9.758
REMARK  Name = 
REMARK  6 active torsions:
REMARK  status: ('A' for Active; 'I' for Inactive)
REMARK    1  A    between atoms: C_1  and  N_2
REMARK    2  A    between atoms: N_2  and  C_3
REMARK    3  A    between atoms: C_6  and  N_7
REMARK    4  A    between atoms: C_9  and  C_10
REMARK    5  A    between atoms: N_14  and  C_15
REMARK    6  A    between atoms: C_23  and  C_24
REMARK                            x       y       z     vdW  Elec       q    Type
REMARK                         _______ _______ _______ _____ _____    ______ ____
ROOT
ATOM      1  N   UNL     1      -4.775  13.477  21.866  0.00  0.00    +0.000 N 
ATOM      2  C   UNL     1      -4.726  14.303  22.945  0.00  0.00    +0.000 A 
ATOM      3  C   UNL     1      -3.430  14.215  23.432  0.00  0.00    +0.000 A 
ATOM      4  C   UNL     1      -2.790  13.266  22.585  0.00  0.00    +0.000 A 
ATOM      5  N   UNL     1      -1.505  12.847  22.708  0.00  0.00    +0.000 N 
ATOM      6  N   UNL     1      -3.640  12.812  21.660  0.00  0.00    +0.000 NA
ATOM      7  H   UNL     1      -0.862  13.393  23.275  0.00  0.00    +0.000 HD
ENDROOT
BRANCH   5   8
ATOM      8  C   UNL     1      -0.983  11.605  22.278  0.00  0.00    +0.000 A 
ATOM      9  C   UNL     1      -0.952  10.510  23.149  0.00  0.00    +0.000 A 
ATOM     10  C   UNL     1      -0.351   9.304  22.759  0.00  0.00    +0.000 A 
ATOM     11  C   UNL     1       0.221   9.186  21.492  0.00  0.00    +0.000 A 
ATOM     12 CL   UNL     1       0.962   7.710  21.012  0.00  0.00    +0.000 Cl
ATOM     13  C   UNL     1       0.204  10.262  20.615  0.00  0.00    +0.000 A 
ATOM     14  C   UNL     1      -0.385  11.461  21.014  0.00  0.00    +0.000 A 
ENDBRANCH   5   8
BRANCH   1  18
ATOM     15  C   UNL     1      -7.261  11.247  19.169  0.00  0.00    +0.000 C 
ATOM     16  C   UNL     1      -6.518  12.471  18.602  0.00  0.00    +0.000 C 
ATOM     17  C   UNL     1      -5.419  12.978  19.539  0.00  0.00    +0.000 C 
ATOM     18  C   UNL     1      -5.910  13.208  20.983  0.00  0.00    +0.000 C 
ATOM     19  C   UNL     1      -6.756  12.035  21.525  0.00  0.00    +0.000 C 
ATOM     20  C   UNL     1      -7.856  11.650  20.522  0.00  0.00    +0.000 C 
BRANCH  15  22
ATOM     21  C   UNL     1      -6.963   8.850  19.617  0.00  0.00    +0.000 C 
ATOM     22  N   UNL     1      -6.329  10.122  19.294  0.00  0.00    +0.000 NA
ATOM     23  H   UNL     1      -5.791  10.014  18.433  0.00  0.00    +0.000 HD
ENDBRANCH  15  22
BRANCH  19  24
ATOM     24  C   UNL     1      -7.375  12.401  22.806  0.00  0.00    +0.000 C 
ATOM     25  N   UNL     1      -7.837  12.700  23.829  0.00  0.00    +0.000 NA
ENDBRANCH  19  24
ENDBRANCH   1  18
BRANCH   3  26
ATOM     26  C   UNL     1      -2.875  14.918  24.568  0.00  0.00    +0.000 C 
ATOM     27  N   UNL     1      -3.781  15.621  25.316  0.00  0.00    +0.000 N 
ATOM     28  O   UNL     1      -1.692  14.871  24.880  0.00  0.00    +0.000 OA
ATOM     29  H   UNL     1      -4.768  15.415  25.247  0.00  0.00    +0.000 HD
ATOM     30  H   UNL     1      -3.441  16.006  26.187  0.00  0.00    +0.000 HD
ENDBRANCH   3  26
TORSDOF 5
ENDMDL
MODEL 9
REMARK VINA RESULT:      -6.6      2.769      6.314
REMARK  Name = 
REMARK  6 active torsions:
REMARK  status: ('A' for Active; 'I' for Inactive)
REMARK    1  A    between atoms: C_1  and  N_2
REMARK    2  A    between atoms: N_2  and  C_3
REMARK    3  A    between atoms: C_6  and  N_7
REMARK    4  A    between atoms: C_9  and  C_10
REMARK    5  A    between atoms: N_14  and  C_15
REMARK    6  A    between atoms: C_23  and  C_24
REMARK                            x       y       z     vdW  Elec       q    Type
REMARK                         _______ _______ _______ _____ _____    ______ ____
ROOT
ATOM      1  N   UNL     1       4.365   3.963  18.707  0.00  0.00    +0.000 N 
ATOM      2  C   UNL     1       4.044   3.032  19.644  0.00  0.00    +0.000 A 
ATOM      3  C   UNL     1       2.917   3.517  20.293  0.00  0.00    +0.000 A 
ATOM      4  C   UNL     1       2.669   4.782  19.685  0.00  0.00    +0.000 A 
ATOM      5  N   UNL     1       1.667   5.630  20.026  0.00  0.00    +0.000 N 
ATOM      6  N   UNL     1       3.581   5.040  18.745  0.00  0.00    +0.000 NA
ATOM      7  H   UNL     1       0.889   5.278  20.577  0.00  0.00    +0.000 HD
ENDROOT
BRANCH   5   8
ATOM      8  C   UNL     1       1.664   7.035  19.859  0.00  0.00    +0.000 A 
ATOM      9  C   UNL     1       1.227   7.871  20.893  0.00  0.00    +0.000 A 
ATOM     10  C   UNL     1       1.135   9.257  20.699  0.00  0.00    +0.000 A 
ATOM     11  C   UNL     1       1.482   9.816  19.470  0.00  0.00    +0.000 A 
ATOM     12 CL   UNL     1       1.366  11.515  19.227  0.00  0.00    +0.000 Cl
ATOM     13  C   UNL     1       1.913   9.004  18.430  0.00  0.00    +0.000 A 
ATOM     14  C   UNL     1       1.993   7.625  18.626  0.00  0.00    +0.000 A 
ENDBRANCH   5   8
BRANCH   1  18
ATOM     15  C   UNL     1       6.683   5.161  15.299  0.00  0.00    +0.000 C 
ATOM     16  C   UNL     1       5.986   3.790  15.237  0.00  0.00    +0.000 C 
ATOM     17  C   UNL     1       4.933   3.615  16.333  0.00  0.00    +0.000 C 
ATOM     18  C   UNL     1       5.466   3.937  17.745  0.00  0.00    +0.000 C 
ATOM     19  C   UNL     1       6.268   5.256  17.798  0.00  0.00    +0.000 C 
ATOM     20  C   UNL     1       7.327   5.294  16.684  0.00  0.00    +0.000 C 
BRANCH  15  22
ATOM     21  C   UNL     1       5.479   7.112  16.180  0.00  0.00    +0.000 C 
ATOM     22  N   UNL     1       5.702   6.222  15.047  0.00  0.00    +0.000 NA
ATOM     23  H   UNL     1       5.986   6.778  14.240  0.00  0.00    +0.000 HD
ENDBRANCH  15  22
BRANCH  19  24
ATOM     24  C   UNL     1       6.931   5.397  19.101  0.00  0.00    +0.000 C 
ATOM     25  N   UNL     1       7.469   5.481  20.128  0.00  0.00    +0.000 NA
ENDBRANCH  19  24
ENDBRANCH   1  18
BRANCH   3  26
ATOM     26  C   UNL     1       2.186   2.881  21.366  0.00  0.00    +0.000 C 
ATOM     27  N   UNL     1       0.831   2.807  21.183  0.00  0.00    +0.000 N 
ATOM     28  O   UNL     1       2.721   2.399  22.356  0.00  0.00    +0.000 OA
ATOM     29  H   UNL     1       0.434   2.917  20.260  0.00  0.00    +0.000 HD
ATOM     30  H   UNL     1       0.318   2.248  21.851  0.00  0.00    +0.000 HD
ENDBRANCH   3  26
TORSDOF 5
ENDMDL
