MODEL 1
REMARK VINA RESULT:      -8.6      0.000      0.000
REMARK  Name = 
REMARK  3 active torsions:
REMARK  status: ('A' for Active; 'I' for Inactive)
REMARK    1  A    between atoms: C_2  and  C_18
REMARK    2  A    between atoms: N_3  and  S_4
REMARK    3  A    between atoms: S_4  and  C_7
REMARK                            x       y       z     vdW  Elec       q    Type
REMARK                         _______ _______ _______ _____ _____    ______ ____
ROOT
ATOM      1  S   UNL     1       7.056   5.159  16.520  0.00  0.00    +0.000 S 
ATOM      2  O   UNL     1       7.996   4.206  17.061  0.00  0.00    +0.000 OA
ATOM      3  O   UNL     1       7.433   6.547  16.336  0.00  0.00    +0.000 OA
ENDROOT
BRANCH   1   4
ATOM      4  C   UNL     1       5.569   5.132  17.495  0.00  0.00    +0.000 A 
ATOM      5  C   UNL     1       4.655   6.177  17.343  0.00  0.00    +0.000 A 
ATOM      6  C   UNL     1       3.492   6.195  18.107  0.00  0.00    +0.000 A 
ATOM      7  C   UNL     1       3.217   5.161  19.003  0.00  0.00    +0.000 A 
ATOM      8  C   UNL     1       4.091   4.065  19.091  0.00  0.00    +0.000 A 
ATOM      9  C   UNL     1       5.285   4.065  18.355  0.00  0.00    +0.000 A 
ATOM     10  O   UNL     1       3.876   2.953  19.868  0.00  0.00    +0.000 OA
ATOM     11  C   UNL     1       2.500   2.557  19.919  0.00  0.00    +0.000 C 
ATOM     12  C   UNL     1       1.746   3.300  21.011  0.00  0.00    +0.000 C 
ATOM     13  C   UNL     1       2.096   4.777  21.033  0.00  0.00    +0.000 C 
ATOM     14  O   UNL     1       2.058   5.328  19.718  0.00  0.00    +0.000 OA
ENDBRANCH   1   4
BRANCH   1  17
ATOM     15  O   UNL     1       8.276   5.532  13.802  0.00  0.00    +0.000 OA
ATOM     16  C   UNL     1       7.210   4.923  13.826  0.00  0.00    +0.000 C 
ATOM     17  N   UNL     1       6.536   4.638  15.023  0.00  0.00    +0.000 N 
ATOM     18  H   UNL     1       5.651   4.148  15.048  0.00  0.00    +0.000 HD
BRANCH  16  19
ATOM     19  C   UNL     1       6.505   4.360  12.567  0.00  0.00    +0.000 C 
ATOM     20  C   UNL     1       7.095   3.057  11.950  0.00  0.00    +0.000 C 
ATOM     21  C   UNL     1       5.650   2.608  11.671  0.00  0.00    +0.000 C 
ATOM     22  C   UNL     1       5.212   3.536  12.817  0.00  0.00    +0.000 C 
ENDBRANCH  16  19
ENDBRANCH   1  17
TORSDOF 3
ENDMDL
MODEL 2
REMARK VINA RESULT:      -8.5      1.231      1.586
REMARK  Name = 
REMARK  3 active torsions:
REMARK  status: ('A' for Active; 'I' for Inactive)
REMARK    1  A    between atoms: C_2  and  C_18
REMARK    2  A    between atoms: N_3  and  S_4
REMARK    3  A    between atoms: S_4  and  C_7
REMARK                            x       y       z     vdW  Elec       q    Type
REMARK                         _______ _______ _______ _____ _____    ______ ____
ROOT
ATOM      1  S   UNL     1       6.922   5.031  16.396  0.00  0.00    +0.000 S 
ATOM      2  O   UNL     1       8.108   4.303  16.775  0.00  0.00    +0.000 OA
ATOM      3  O   UNL     1       6.938   6.479  16.308  0.00  0.00    +0.000 OA
ENDROOT
BRANCH   1   4
ATOM      4  C   UNL     1       5.585   4.576  17.477  0.00  0.00    +0.000 A 
ATOM      5  C   UNL     1       5.707   4.856  18.841  0.00  0.00    +0.000 A 
ATOM      6  C   UNL     1       4.687   4.493  19.715  0.00  0.00    +0.000 A 
ATOM      7  C   UNL     1       3.529   3.878  19.236  0.00  0.00    +0.000 A 
ATOM      8  C   UNL     1       3.366   3.680  17.855  0.00  0.00    +0.000 A 
ATOM      9  C   UNL     1       4.410   4.004  16.976  0.00  0.00    +0.000 A 
ATOM     10  O   UNL     1       2.234   3.169  17.266  0.00  0.00    +0.000 OA
ATOM     11  C   UNL     1       1.025   3.601  17.900  0.00  0.00    +0.000 C 
ATOM     12  C   UNL     1       0.657   2.703  19.071  0.00  0.00    +0.000 C 
ATOM     13  C   UNL     1       1.865   2.368  19.926  0.00  0.00    +0.000 C 
ATOM     14  O   UNL     1       2.626   3.540  20.212  0.00  0.00    +0.000 OA
ENDBRANCH   1   4
BRANCH   1  17
ATOM     15  O   UNL     1       8.105   5.437  13.667  0.00  0.00    +0.000 OA
ATOM     16  C   UNL     1       7.053   4.804  13.701  0.00  0.00    +0.000 C 
ATOM     17  N   UNL     1       6.398   4.502  14.903  0.00  0.00    +0.000 N 
ATOM     18  H   UNL     1       5.524   3.992  14.936  0.00  0.00    +0.000 HD
BRANCH  16  19
ATOM     19  C   UNL     1       6.348   4.228  12.448  0.00  0.00    +0.000 C 
ATOM     20  C   UNL     1       6.881   2.873  11.897  0.00  0.00    +0.000 C 
ATOM     21  C   UNL     1       5.422   2.488  11.600  0.00  0.00    +0.000 C 
ATOM     22  C   UNL     1       5.007   3.483  12.698  0.00  0.00    +0.000 C 
ENDBRANCH  16  19
ENDBRANCH   1  17
TORSDOF 3
ENDMDL
MODEL 3
REMARK VINA RESULT:      -8.5      1.140      1.320
REMARK  Name = 
REMARK  3 active torsions:
REMARK  status: ('A' for Active; 'I' for Inactive)
REMARK    1  A    between atoms: C_2  and  C_18
REMARK    2  A    between atoms: N_3  and  S_4
REMARK    3  A    between atoms: S_4  and  C_7
REMARK                            x       y       z     vdW  Elec       q    Type
REMARK                         _______ _______ _______ _____ _____    ______ ____
ROOT
ATOM      1  S   UNL     1       7.266   5.525  17.524  0.00  0.00    +0.000 S 
ATOM      2  O   UNL     1       8.042   4.360  17.874  0.00  0.00    +0.000 OA
ATOM      3  O   UNL     1       7.713   6.852  17.901  0.00  0.00    +0.000 OA
ENDROOT
BRANCH   1   4
ATOM      4  C   UNL     1       5.606   5.326  18.131  0.00  0.00    +0.000 A 
ATOM      5  C   UNL     1       4.639   6.256  17.741  0.00  0.00    +0.000 A 
ATOM      6  C   UNL     1       3.336   6.139  18.216  0.00  0.00    +0.000 A 
ATOM      7  C   UNL     1       2.981   5.083  19.056  0.00  0.00    +0.000 A 
ATOM      8  C   UNL     1       3.930   4.097  19.375  0.00  0.00    +0.000 A 
ATOM      9  C   UNL     1       5.254   4.235  18.934  0.00  0.00    +0.000 A 
ATOM     10  O   UNL     1       3.667   2.969  20.115  0.00  0.00    +0.000 OA
ATOM     11  C   UNL     1       2.372   2.415  19.859  0.00  0.00    +0.000 C 
ATOM     12  C   UNL     1       1.304   3.067  20.725  0.00  0.00    +0.000 C 
ATOM     13  C   UNL     1       1.470   4.575  20.783  0.00  0.00    +0.000 C 
ATOM     14  O   UNL     1       1.676   5.114  19.479  0.00  0.00    +0.000 OA
ENDBRANCH   1   4
BRANCH   1  17
ATOM     15  O   UNL     1       6.114   3.490  15.642  0.00  0.00    +0.000 OA
ATOM     16  C   UNL     1       6.528   4.521  15.120  0.00  0.00    +0.000 C 
ATOM     17  N   UNL     1       7.060   5.579  15.870  0.00  0.00    +0.000 N 
ATOM     18  H   UNL     1       7.414   6.427  15.444  0.00  0.00    +0.000 HD
BRANCH  16  19
ATOM     19  C   UNL     1       6.475   4.803  13.598  0.00  0.00    +0.000 C 
ATOM     20  C   UNL     1       7.834   5.051  12.878  0.00  0.00    +0.000 C 
ATOM     21  C   UNL     1       7.276   4.258  11.683  0.00  0.00    +0.000 C 
ATOM     22  C   UNL     1       6.328   3.562  12.675  0.00  0.00    +0.000 C 
ENDBRANCH  16  19
ENDBRANCH   1  17
TORSDOF 3
ENDMDL
MODEL 4
REMARK VINA RESULT:      -8.4      0.854      1.076
REMARK  Name = 
REMARK  3 active torsions:
REMARK  status: ('A' for Active; 'I' for Inactive)
REMARK    1  A    between atoms: C_2  and  C_18
REMARK    2  A    between atoms: N_3  and  S_4
REMARK    3  A    between atoms: S_4  and  C_7
REMARK                            x       y       z     vdW  Elec       q    Type
REMARK                         _______ _______ _______ _____ _____    ______ ____
ROOT
ATOM      1  S   UNL     1       7.220   5.083  17.249  0.00  0.00    +0.000 S 
ATOM      2  O   UNL     1       8.144   4.416  18.135  0.00  0.00    +0.000 OA
ATOM      3  O   UNL     1       7.483   6.431  16.784  0.00  0.00    +0.000 OA
ENDROOT
BRANCH   1   4
ATOM      4  C   UNL     1       5.599   5.076  17.981  0.00  0.00    +0.000 A 
ATOM      5  C   UNL     1       4.782   6.194  17.799  0.00  0.00    +0.000 A 
ATOM      6  C   UNL     1       3.516   6.227  18.377  0.00  0.00    +0.000 A 
ATOM      7  C   UNL     1       3.045   5.138  19.112  0.00  0.00    +0.000 A 
ATOM      8  C   UNL     1       3.829   3.977  19.218  0.00  0.00    +0.000 A 
ATOM      9  C   UNL     1       5.122   3.958  18.675  0.00  0.00    +0.000 A 
ATOM     10  O   UNL     1       3.430   2.818  19.838  0.00  0.00    +0.000 OA
ATOM     11  C   UNL     1       2.043   2.521  19.640  0.00  0.00    +0.000 C 
ATOM     12  C   UNL     1       1.170   3.214  20.674  0.00  0.00    +0.000 C 
ATOM     13  C   UNL     1       1.597   4.653  20.899  0.00  0.00    +0.000 C 
ATOM     14  O   UNL     1       1.799   5.323  19.657  0.00  0.00    +0.000 OA
ENDBRANCH   1   4
BRANCH   1  17
ATOM     15  O   UNL     1       5.943   5.787  14.625  0.00  0.00    +0.000 OA
ATOM     16  C   UNL     1       6.364   4.637  14.719  0.00  0.00    +0.000 C 
ATOM     17  N   UNL     1       7.016   4.170  15.869  0.00  0.00    +0.000 N 
ATOM     18  H   UNL     1       7.353   3.219  15.957  0.00  0.00    +0.000 HD
BRANCH  16  19
ATOM     19  C   UNL     1       6.270   3.585  13.586  0.00  0.00    +0.000 C 
ATOM     20  C   UNL     1       4.932   3.518  12.792  0.00  0.00    +0.000 C 
ATOM     21  C   UNL     1       5.767   3.266  11.525  0.00  0.00    +0.000 C 
ATOM     22  C   UNL     1       6.935   3.971  12.236  0.00  0.00    +0.000 C 
ENDBRANCH  16  19
ENDBRANCH   1  17
TORSDOF 3
ENDMDL
MODEL 5
REMARK VINA RESULT:      -8.3      1.068      1.396
REMARK  Name = 
REMARK  3 active torsions:
REMARK  status: ('A' for Active; 'I' for Inactive)
REMARK    1  A    between atoms: C_2  and  C_18
REMARK    2  A    between atoms: N_3  and  S_4
REMARK    3  A    between atoms: S_4  and  C_7
REMARK                            x       y       z     vdW  Elec       q    Type
REMARK                         _______ _______ _______ _____ _____    ______ ____
ROOT
ATOM      1  S   UNL     1       5.603   6.105  16.036  0.00  0.00    +0.000 S 
ATOM      2  O   UNL     1       6.929   6.194  16.597  0.00  0.00    +0.000 OA
ATOM      3  O   UNL     1       5.050   7.204  15.267  0.00  0.00    +0.000 OA
ENDROOT
BRANCH   1   4
ATOM      4  C   UNL     1       4.445   5.721  17.329  0.00  0.00    +0.000 A 
ATOM      5  C   UNL     1       3.684   6.760  17.872  0.00  0.00    +0.000 A 
ATOM      6  C   UNL     1       2.784   6.494  18.899  0.00  0.00    +0.000 A 
ATOM      7  C   UNL     1       2.614   5.192  19.373  0.00  0.00    +0.000 A 
ATOM      8  C   UNL     1       3.311   4.133  18.766  0.00  0.00    +0.000 A 
ATOM      9  C   UNL     1       4.250   4.404  17.760  0.00  0.00    +0.000 A 
ATOM     10  O   UNL     1       3.153   2.807  19.088  0.00  0.00    +0.000 OA
ATOM     11  C   UNL     1       1.799   2.459  19.400  0.00  0.00    +0.000 C 
ATOM     12  C   UNL     1       1.481   2.712  20.865  0.00  0.00    +0.000 C 
ATOM     13  C   UNL     1       2.034   4.043  21.340  0.00  0.00    +0.000 C 
ATOM     14  O   UNL     1       1.725   5.082  20.413  0.00  0.00    +0.000 OA
ENDBRANCH   1   4
BRANCH   1  17
ATOM     15  O   UNL     1       7.284   5.328  13.674  0.00  0.00    +0.000 OA
ATOM     16  C   UNL     1       6.361   4.565  13.941  0.00  0.00    +0.000 C 
ATOM     17  N   UNL     1       5.510   4.773  15.036  0.00  0.00    +0.000 N 
ATOM     18  H   UNL     1       4.739   4.154  15.254  0.00  0.00    +0.000 HD
BRANCH  16  19
ATOM     19  C   UNL     1       6.047   3.272  13.148  0.00  0.00    +0.000 C 
ATOM     20  C   UNL     1       4.805   3.303  12.209  0.00  0.00    +0.000 C 
ATOM     21  C   UNL     1       5.617   2.465  11.207  0.00  0.00    +0.000 C 
ATOM     22  C   UNL     1       6.887   3.037  11.862  0.00  0.00    +0.000 C 
ENDBRANCH  16  19
ENDBRANCH   1  17
TORSDOF 3
ENDMDL
MODEL 6
REMARK VINA RESULT:      -8.0      1.254      1.404
REMARK  Name = 
REMARK  3 active torsions:
REMARK  status: ('A' for Active; 'I' for Inactive)
REMARK    1  A    between atoms: C_2  and  C_18
REMARK    2  A    between atoms: N_3  and  S_4
REMARK    3  A    between atoms: S_4  and  C_7
REMARK                            x       y       z     vdW  Elec       q    Type
REMARK                         _______ _______ _______ _____ _____    ______ ____
ROOT
ATOM      1  S   UNL     1       6.234   4.966  16.419  0.00  0.00    +0.000 S 
ATOM      2  O   UNL     1       7.415   4.350  16.975  0.00  0.00    +0.000 OA
ATOM      3  O   UNL     1       6.118   6.410  16.345  0.00  0.00    +0.000 OA
ENDROOT
BRANCH   1   4
ATOM      4  C   UNL     1       4.799   4.357  17.274  0.00  0.00    +0.000 A 
ATOM      5  C   UNL     1       3.764   3.796  16.521  0.00  0.00    +0.000 A 
ATOM      6  C   UNL     1       2.619   3.329  17.160  0.00  0.00    +0.000 A 
ATOM      7  C   UNL     1       2.509   3.391  18.550  0.00  0.00    +0.000 A 
ATOM      8  C   UNL     1       3.586   3.871  19.314  0.00  0.00    +0.000 A 
ATOM      9  C   UNL     1       4.723   4.383  18.671  0.00  0.00    +0.000 A 
ATOM     10  O   UNL     1       3.622   3.893  20.687  0.00  0.00    +0.000 OA
ATOM     11  C   UNL     1       2.996   2.752  21.286  0.00  0.00    +0.000 C 
ATOM     12  C   UNL     1       1.500   2.962  21.458  0.00  0.00    +0.000 C 
ATOM     13  C   UNL     1       0.875   3.593  20.227  0.00  0.00    +0.000 C 
ATOM     14  O   UNL     1       1.311   2.934  19.041  0.00  0.00    +0.000 OA
ENDBRANCH   1   4
BRANCH   1  17
ATOM     15  O   UNL     1       7.892   5.386  13.952  0.00  0.00    +0.000 OA
ATOM     16  C   UNL     1       6.865   4.733  13.796  0.00  0.00    +0.000 C 
ATOM     17  N   UNL     1       6.005   4.422  14.859  0.00  0.00    +0.000 N 
ATOM     18  H   UNL     1       5.150   3.894  14.734  0.00  0.00    +0.000 HD
BRANCH  16  19
ATOM     19  C   UNL     1       6.414   4.138  12.438  0.00  0.00    +0.000 C 
ATOM     20  C   UNL     1       6.996   2.747  12.047  0.00  0.00    +0.000 C 
ATOM     21  C   UNL     1       5.616   2.402  11.461  0.00  0.00    +0.000 C 
ATOM     22  C   UNL     1       5.022   3.448  12.422  0.00  0.00    +0.000 C 
ENDBRANCH  16  19
ENDBRANCH   1  17
TORSDOF 3
ENDMDL
MODEL 7
REMARK VINA RESULT:      -7.9      1.184      1.817
REMARK  Name = 
REMARK  3 active torsions:
REMARK  status: ('A' for Active; 'I' for Inactive)
REMARK    1  A    between atoms: C_2  and  C_18
REMARK    2  A    between atoms: N_3  and  S_4
REMARK    3  A    between atoms: S_4  and  C_7
REMARK                            x       y       z     vdW  Elec       q    Type
REMARK                         _______ _______ _______ _____ _____    ______ ____
ROOT
ATOM      1  S   UNL     1       6.143   5.475  15.920  0.00  0.00    +0.000 S 
ATOM      2  O   UNL     1       7.458   5.214  16.457  0.00  0.00    +0.000 OA
ATOM      3  O   UNL     1       5.691   6.835  15.699  0.00  0.00    +0.000 OA
ENDROOT
BRANCH   1   4
ATOM      4  C   UNL     1       4.927   4.664  16.932  0.00  0.00    +0.000 A 
ATOM      5  C   UNL     1       4.783   3.279  16.819  0.00  0.00    +0.000 A 
ATOM      6  C   UNL     1       3.825   2.618  17.582  0.00  0.00    +0.000 A 
ATOM      7  C   UNL     1       3.026   3.325  18.482  0.00  0.00    +0.000 A 
ATOM      8  C   UNL     1       3.232   4.703  18.663  0.00  0.00    +0.000 A 
ATOM      9  C   UNL     1       4.166   5.379  17.864  0.00  0.00    +0.000 A 
ATOM     10  O   UNL     1       2.568   5.479  19.582  0.00  0.00    +0.000 OA
ATOM     11  C   UNL     1       2.318   4.800  20.818  0.00  0.00    +0.000 C 
ATOM     12  C   UNL     1       1.027   3.999  20.764  0.00  0.00    +0.000 C 
ATOM     13  C   UNL     1       0.889   3.239  19.458  0.00  0.00    +0.000 C 
ATOM     14  O   UNL     1       2.099   2.555  19.138  0.00  0.00    +0.000 OA
ENDBRANCH   1   4
BRANCH   1  17
ATOM     15  O   UNL     1       7.955   5.467  13.526  0.00  0.00    +0.000 OA
ATOM     16  C   UNL     1       6.913   4.829  13.405  0.00  0.00    +0.000 C 
ATOM     17  N   UNL     1       5.983   4.709  14.447  0.00  0.00    +0.000 N 
ATOM     18  H   UNL     1       5.116   4.194  14.349  0.00  0.00    +0.000 HD
BRANCH  16  19
ATOM     19  C   UNL     1       6.518   4.051  12.126  0.00  0.00    +0.000 C 
ATOM     20  C   UNL     1       7.197   2.667  11.902  0.00  0.00    +0.000 C 
ATOM     21  C   UNL     1       5.850   2.162  11.357  0.00  0.00    +0.000 C 
ATOM     22  C   UNL     1       5.176   3.269  12.187  0.00  0.00    +0.000 C 
ENDBRANCH  16  19
ENDBRANCH   1  17
TORSDOF 3
ENDMDL
MODEL 8
REMARK VINA RESULT:      -7.8      1.511      2.010
REMARK  Name = 
REMARK  3 active torsions:
REMARK  status: ('A' for Active; 'I' for Inactive)
REMARK    1  A    between atoms: C_2  and  C_18
REMARK    2  A    between atoms: N_3  and  S_4
REMARK    3  A    between atoms: S_4  and  C_7
REMARK                            x       y       z     vdW  Elec       q    Type
REMARK                         _______ _______ _______ _____ _____    ______ ____
ROOT
ATOM      1  S   UNL     1       6.907   5.324  17.762  0.00  0.00    +0.000 S 
ATOM      2  O   UNL     1       7.915   4.966  18.731  0.00  0.00    +0.000 OA
ATOM      3  O   UNL     1       6.583   6.715  17.510  0.00  0.00    +0.000 OA
ENDROOT
BRANCH   1   4
ATOM      4  C   UNL     1       5.390   4.484  18.157  0.00  0.00    +0.000 A 
ATOM      5  C   UNL     1       4.913   3.518  17.267  0.00  0.00    +0.000 A 
ATOM      6  C   UNL     1       3.718   2.859  17.539  0.00  0.00    +0.000 A 
ATOM      7  C   UNL     1       3.007   3.134  18.709  0.00  0.00    +0.000 A 
ATOM      8  C   UNL     1       3.533   4.038  19.647  0.00  0.00    +0.000 A 
ATOM      9  C   UNL     1       4.714   4.736  19.356  0.00  0.00    +0.000 A 
ATOM     10  O   UNL     1       2.967   4.315  20.868  0.00  0.00    +0.000 OA
ATOM     11  C   UNL     1       2.376   3.168  21.490  0.00  0.00    +0.000 C 
ATOM     12  C   UNL     1       0.943   2.957  21.026  0.00  0.00    +0.000 C 
ATOM     13  C   UNL     1       0.803   3.144  19.526  0.00  0.00    +0.000 C 
ATOM     14  O   UNL     1       1.828   2.441  18.828  0.00  0.00    +0.000 OA
ENDBRANCH   1   4
BRANCH   1  17
ATOM     15  O   UNL     1       5.880   5.983  15.018  0.00  0.00    +0.000 OA
ATOM     16  C   UNL     1       6.716   5.085  15.071  0.00  0.00    +0.000 C 
ATOM     17  N   UNL     1       7.315   4.688  16.275  0.00  0.00    +0.000 N 
ATOM     18  H   UNL     1       7.996   3.939  16.326  0.00  0.00    +0.000 HD
BRANCH  16  19
ATOM     19  C   UNL     1       7.242   4.317  13.832  0.00  0.00    +0.000 C 
ATOM     20  C   UNL     1       6.179   3.666  12.900  0.00  0.00    +0.000 C 
ATOM     21  C   UNL     1       7.059   4.078  11.708  0.00  0.00    +0.000 C 
ATOM     22  C   UNL     1       7.639   5.185  12.606  0.00  0.00    +0.000 C 
ENDBRANCH  16  19
ENDBRANCH   1  17
TORSDOF 3
ENDMDL
MODEL 9
REMARK VINA RESULT:      -7.7      1.435      2.274
REMARK  Name = 
REMARK  3 active torsions:
REMARK  status: ('A' for Active; 'I' for Inactive)
REMARK    1  A    between atoms: C_2  and  C_18
REMARK    2  A    between atoms: N_3  and  S_4
REMARK    3  A    between atoms: S_4  and  C_7
REMARK                            x       y       z     vdW  Elec       q    Type
REMARK                         _______ _______ _______ _____ _____    ______ ____
ROOT
ATOM      1  S   UNL     1       6.934   6.573  17.443  0.00  0.00    +0.000 S 
ATOM      2  O   UNL     1       8.061   6.689  18.337  0.00  0.00    +0.000 OA
ATOM      3  O   UNL     1       6.291   7.756  16.904  0.00  0.00    +0.000 OA
ENDROOT
BRANCH   1   4
ATOM      4  C   UNL     1       5.674   5.584  18.216  0.00  0.00    +0.000 A 
ATOM      5  C   UNL     1       5.995   4.281  18.603  0.00  0.00    +0.000 A 
ATOM      6  C   UNL     1       5.024   3.476  19.192  0.00  0.00    +0.000 A 
ATOM      7  C   UNL     1       3.740   3.971  19.426  0.00  0.00    +0.000 A 
ATOM      8  C   UNL     1       3.443   5.310  19.121  0.00  0.00    +0.000 A 
ATOM      9  C   UNL     1       4.406   6.110  18.487  0.00  0.00    +0.000 A 
ATOM     10  O   UNL     1       2.246   5.926  19.391  0.00  0.00    +0.000 OA
ATOM     11  C   UNL     1       1.663   5.509  20.631  0.00  0.00    +0.000 C 
ATOM     12  C   UNL     1       0.822   4.253  20.459  0.00  0.00    +0.000 C 
ATOM     13  C   UNL     1       1.516   3.228  19.580  0.00  0.00    +0.000 C 
ATOM     14  O   UNL     1       2.875   3.057  19.974  0.00  0.00    +0.000 OA
ENDBRANCH   1   4
BRANCH   1  17
ATOM     15  O   UNL     1       5.316   5.705  15.067  0.00  0.00    +0.000 OA
ATOM     16  C   UNL     1       6.479   5.310  15.090  0.00  0.00    +0.000 C 
ATOM     17  N   UNL     1       7.369   5.661  16.116  0.00  0.00    +0.000 N 
ATOM     18  H   UNL     1       8.325   5.328  16.146  0.00  0.00    +0.000 HD
BRANCH  16  19
ATOM     19  C   UNL     1       7.116   4.427  13.989  0.00  0.00    +0.000 C 
ATOM     20  C   UNL     1       6.142   3.662  13.045  0.00  0.00    +0.000 C 
ATOM     21  C   UNL     1       7.118   3.963  11.895  0.00  0.00    +0.000 C 
ATOM     22  C   UNL     1       7.607   5.169  12.715  0.00  0.00    +0.000 C 
ENDBRANCH  16  19
ENDBRANCH   1  17
TORSDOF 3
ENDMDL
