MODEL 1
REMARK VINA RESULT:      -7.7      0.000      0.000
REMARK  Name = 
REMARK  2 active torsions:
REMARK  status: ('A' for Active; 'I' for Inactive)
REMARK    1  A    between atoms: C_1  and  C_2
REMARK    2  A    between atoms: C_2  and  N_3
REMARK                            x       y       z     vdW  Elec       q    Type
REMARK                         _______ _______ _______ _____ _____    ______ ____
ROOT
ATOM      1  N   UNL     1       2.055   3.052  19.566  0.00  0.00    +0.000 N 
ATOM      2  C   UNL     1       2.586   1.962  18.954  0.00  0.00    +0.000 A 
ATOM      3  C   UNL     1       3.504   2.068  17.908  0.00  0.00    +0.000 A 
ATOM      4  C   UNL     1       3.881   3.350  17.490  0.00  0.00    +0.000 A 
ATOM      5  C   UNL     1       4.754   3.892  16.501  0.00  0.00    +0.000 A 
ATOM      6  C   UNL     1       5.601   3.314  15.534  0.00  0.00    +0.000 A 
ATOM      7  C   UNL     1       6.352   4.138  14.690  0.00  0.00    +0.000 A 
ATOM      8  C   UNL     1       6.271   5.521  14.797  0.00  0.00    +0.000 A 
ATOM      9  C   UNL     1       5.441   6.123  15.747  0.00  0.00    +0.000 A 
ATOM     10  C   UNL     1       4.687   5.292  16.593  0.00  0.00    +0.000 A 
ATOM     11  N   UNL     1       3.795   5.596  17.610  0.00  0.00    +0.000 N 
ATOM     12  C   UNL     1       3.371   6.839  18.106  0.00  0.00    +0.000 A 
ATOM     13  O   UNL     1       3.780   7.892  17.647  0.00  0.00    +0.000 OA
ATOM     14  C   UNL     1       2.389   6.741  19.234  0.00  0.00    +0.000 A 
ATOM     15  C   UNL     1       1.942   5.572  19.736  0.00  0.00    +0.000 A 
ATOM     16  C   UNL     1       2.406   4.299  19.182  0.00  0.00    +0.000 A 
ATOM     17  C   UNL     1       3.314   4.417  18.146  0.00  0.00    +0.000 A 
ENDROOT
BRANCH   1  19
ATOM     18  C   UNL     1       1.822   2.566  21.959  0.00  0.00    +0.000 C 
ATOM     19  C   UNL     1       1.079   2.823  20.663  0.00  0.00    +0.000 C 
ENDBRANCH   1  19
TORSDOF 1
ENDMDL
MODEL 2
REMARK VINA RESULT:      -7.6      2.066      3.804
REMARK  Name = 
REMARK  2 active torsions:
REMARK  status: ('A' for Active; 'I' for Inactive)
REMARK    1  A    between atoms: C_1  and  C_2
REMARK    2  A    between atoms: C_2  and  N_3
REMARK                            x       y       z     vdW  Elec       q    Type
REMARK                         _______ _______ _______ _____ _____    ______ ____
ROOT
ATOM      1  N   UNL     1       1.878   7.453  19.913  0.00  0.00    +0.000 N 
ATOM      2  C   UNL     1       2.215   8.349  18.950  0.00  0.00    +0.000 A 
ATOM      3  C   UNL     1       3.041   8.014  17.876  0.00  0.00    +0.000 A 
ATOM      4  C   UNL     1       3.529   6.703  17.806  0.00  0.00    +0.000 A 
ATOM      5  C   UNL     1       4.367   5.966  16.917  0.00  0.00    +0.000 A 
ATOM      6  C   UNL     1       5.045   6.296  15.726  0.00  0.00    +0.000 A 
ATOM      7  C   UNL     1       5.805   5.323  15.069  0.00  0.00    +0.000 A 
ATOM      8  C   UNL     1       5.896   4.034  15.580  0.00  0.00    +0.000 A 
ATOM      9  C   UNL     1       5.235   3.677  16.759  0.00  0.00    +0.000 A 
ATOM     10  C   UNL     1       4.472   4.657  17.417  0.00  0.00    +0.000 A 
ATOM     11  N   UNL     1       3.721   4.598  18.580  0.00  0.00    +0.000 N 
ATOM     12  C   UNL     1       3.493   3.529  19.462  0.00  0.00    +0.000 A 
ATOM     13  O   UNL     1       3.984   2.428  19.283  0.00  0.00    +0.000 OA
ATOM     14  C   UNL     1       2.602   3.874  20.617  0.00  0.00    +0.000 A 
ATOM     15  C   UNL     1       2.063   5.095  20.807  0.00  0.00    +0.000 A 
ATOM     16  C   UNL     1       2.335   6.182  19.865  0.00  0.00    +0.000 A 
ATOM     17  C   UNL     1       3.155   5.838  18.806  0.00  0.00    +0.000 A 
ENDROOT
BRANCH   1  19
ATOM     18  C   UNL     1       0.553   9.344  20.743  0.00  0.00    +0.000 C 
ATOM     19  C   UNL     1       0.999   7.921  21.016  0.00  0.00    +0.000 C 
ENDBRANCH   1  19
TORSDOF 1
ENDMDL
MODEL 3
REMARK VINA RESULT:      -7.0      2.032      5.453
REMARK  Name = 
REMARK  2 active torsions:
REMARK  status: ('A' for Active; 'I' for Inactive)
REMARK    1  A    between atoms: C_1  and  C_2
REMARK    2  A    between atoms: C_2  and  N_3
REMARK                            x       y       z     vdW  Elec       q    Type
REMARK                         _______ _______ _______ _____ _____    ______ ____
ROOT
ATOM      1  N   UNL     1       5.291   4.962  16.580  0.00  0.00    +0.000 N 
ATOM      2  C   UNL     1       5.203   6.118  15.871  0.00  0.00    +0.000 A 
ATOM      3  C   UNL     1       4.407   7.187  16.286  0.00  0.00    +0.000 A 
ATOM      4  C   UNL     1       3.682   7.046  17.475  0.00  0.00    +0.000 A 
ATOM      5  C   UNL     1       2.784   7.855  18.233  0.00  0.00    +0.000 A 
ATOM      6  C   UNL     1       2.270   9.156  18.058  0.00  0.00    +0.000 A 
ATOM      7  C   UNL     1       1.386   9.684  19.005  0.00  0.00    +0.000 A 
ATOM      8  C   UNL     1       1.012   8.937  20.116  0.00  0.00    +0.000 A 
ATOM      9  C   UNL     1       1.506   7.645  20.315  0.00  0.00    +0.000 A 
ATOM     10  C   UNL     1       2.393   7.117  19.362  0.00  0.00    +0.000 A 
ATOM     11  N   UNL     1       3.034   5.889  19.295  0.00  0.00    +0.000 N 
ATOM     12  C   UNL     1       2.988   4.791  20.167  0.00  0.00    +0.000 A 
ATOM     13  O   UNL     1       2.308   4.798  21.179  0.00  0.00    +0.000 OA
ATOM     14  C   UNL     1       3.842   3.637  19.738  0.00  0.00    +0.000 A 
ATOM     15  C   UNL     1       4.592   3.639  18.617  0.00  0.00    +0.000 A 
ATOM     16  C   UNL     1       4.603   4.805  17.732  0.00  0.00    +0.000 A 
ATOM     17  C   UNL     1       3.810   5.856  18.152  0.00  0.00    +0.000 A 
ENDROOT
BRANCH   1  19
ATOM     18  C   UNL     1       6.175   3.951  14.527  0.00  0.00    +0.000 C 
ATOM     19  C   UNL     1       6.162   3.886  16.042  0.00  0.00    +0.000 C 
ENDBRANCH   1  19
TORSDOF 1
ENDMDL
MODEL 4
REMARK VINA RESULT:      -6.9      1.856      5.584
REMARK  Name = 
REMARK  2 active torsions:
REMARK  status: ('A' for Active; 'I' for Inactive)
REMARK    1  A    between atoms: C_1  and  C_2
REMARK    2  A    between atoms: C_2  and  N_3
REMARK                            x       y       z     vdW  Elec       q    Type
REMARK                         _______ _______ _______ _____ _____    ______ ____
ROOT
ATOM      1  N   UNL     1       5.141   4.491  16.167  0.00  0.00    +0.000 N 
ATOM      2  C   UNL     1       5.177   5.840  16.013  0.00  0.00    +0.000 A 
ATOM      3  C   UNL     1       4.454   6.704  16.838  0.00  0.00    +0.000 A 
ATOM      4  C   UNL     1       3.670   6.143  17.853  0.00  0.00    +0.000 A 
ATOM      5  C   UNL     1       2.810   6.636  18.878  0.00  0.00    +0.000 A 
ATOM      6  C   UNL     1       2.411   7.931  19.268  0.00  0.00    +0.000 A 
ATOM      7  C   UNL     1       1.534   8.090  20.346  0.00  0.00    +0.000 A 
ATOM      8  C   UNL     1       1.053   6.983  21.035  0.00  0.00    +0.000 A 
ATOM      9  C   UNL     1       1.431   5.687  20.671  0.00  0.00    +0.000 A 
ATOM     10  C   UNL     1       2.312   5.531  19.588  0.00  0.00    +0.000 A 
ATOM     11  N   UNL     1       2.853   4.392  19.010  0.00  0.00    +0.000 N 
ATOM     12  C   UNL     1       2.680   3.038  19.336  0.00  0.00    +0.000 A 
ATOM     13  O   UNL     1       1.961   2.681  20.253  0.00  0.00    +0.000 OA
ATOM     14  C   UNL     1       3.456   2.099  18.463  0.00  0.00    +0.000 A 
ATOM     15  C   UNL     1       4.250   2.504  17.450  0.00  0.00    +0.000 A 
ATOM     16  C   UNL     1       4.394   3.927  17.142  0.00  0.00    +0.000 A 
ATOM     17  C   UNL     1       3.672   4.772  17.964  0.00  0.00    +0.000 A 
ENDROOT
BRANCH   1  19
ATOM     18  C   UNL     1       6.670   4.570  14.251  0.00  0.00    +0.000 C 
ATOM     19  C   UNL     1       5.943   3.666  15.228  0.00  0.00    +0.000 C 
ENDBRANCH   1  19
TORSDOF 1
ENDMDL
MODEL 5
REMARK VINA RESULT:      -6.8      1.232      5.001
REMARK  Name = 
REMARK  2 active torsions:
REMARK  status: ('A' for Active; 'I' for Inactive)
REMARK    1  A    between atoms: C_1  and  C_2
REMARK    2  A    between atoms: C_2  and  N_3
REMARK                            x       y       z     vdW  Elec       q    Type
REMARK                         _______ _______ _______ _____ _____    ______ ____
ROOT
ATOM      1  N   UNL     1       5.377   4.835  15.982  0.00  0.00    +0.000 N 
ATOM      2  C   UNL     1       5.391   3.489  16.157  0.00  0.00    +0.000 A 
ATOM      3  C   UNL     1       4.628   2.858  17.141  0.00  0.00    +0.000 A 
ATOM      4  C   UNL     1       3.827   3.656  17.966  0.00  0.00    +0.000 A 
ATOM      5  C   UNL     1       2.928   3.434  19.051  0.00  0.00    +0.000 A 
ATOM      6  C   UNL     1       2.492   2.276  19.727  0.00  0.00    +0.000 A 
ATOM      7  C   UNL     1       1.577   2.391  20.778  0.00  0.00    +0.000 A 
ATOM      8  C   UNL     1       1.094   3.636  21.162  0.00  0.00    +0.000 A 
ATOM      9  C   UNL     1       1.509   4.802  20.511  0.00  0.00    +0.000 A 
ATOM     10  C   UNL     1       2.428   4.683  19.455  0.00  0.00    +0.000 A 
ATOM     11  N   UNL     1       3.008   5.643  18.639  0.00  0.00    +0.000 N 
ATOM     12  C   UNL     1       2.850   7.037  18.622  0.00  0.00    +0.000 A 
ATOM     13  O   UNL     1       2.114   7.613  19.405  0.00  0.00    +0.000 OA
ATOM     14  C   UNL     1       3.658   7.728  17.566  0.00  0.00    +0.000 A 
ATOM     15  C   UNL     1       4.470   7.082  16.704  0.00  0.00    +0.000 A 
ATOM     16  C   UNL     1       4.609   5.626  16.764  0.00  0.00    +0.000 A 
ATOM     17  C   UNL     1       3.851   5.013  17.743  0.00  0.00    +0.000 A 
ENDROOT
BRANCH   1  19
ATOM     18  C   UNL     1       6.521   4.336  13.870  0.00  0.00    +0.000 C 
ATOM     19  C   UNL     1       6.234   5.402  14.909  0.00  0.00    +0.000 C 
ENDBRANCH   1  19
TORSDOF 1
ENDMDL
MODEL 6
REMARK VINA RESULT:      -6.7      2.288      5.369
REMARK  Name = 
REMARK  2 active torsions:
REMARK  status: ('A' for Active; 'I' for Inactive)
REMARK    1  A    between atoms: C_1  and  C_2
REMARK    2  A    between atoms: C_2  and  N_3
REMARK                            x       y       z     vdW  Elec       q    Type
REMARK                         _______ _______ _______ _____ _____    ______ ____
ROOT
ATOM      1  N   UNL     1       1.415   8.810  19.610  0.00  0.00    +0.000 N 
ATOM      2  C   UNL     1       0.819   8.364  20.746  0.00  0.00    +0.000 A 
ATOM      3  C   UNL     1       1.016   7.071  21.232  0.00  0.00    +0.000 A 
ATOM      4  C   UNL     1       1.862   6.218  20.512  0.00  0.00    +0.000 A 
ATOM      5  C   UNL     1       2.323   4.875  20.646  0.00  0.00    +0.000 A 
ATOM      6  C   UNL     1       2.088   3.860  21.597  0.00  0.00    +0.000 A 
ATOM      7  C   UNL     1       2.707   2.615  21.448  0.00  0.00    +0.000 A 
ATOM      8  C   UNL     1       3.551   2.370  20.371  0.00  0.00    +0.000 A 
ATOM      9  C   UNL     1       3.802   3.356  19.413  0.00  0.00    +0.000 A 
ATOM     10  C   UNL     1       3.179   4.607  19.566  0.00  0.00    +0.000 A 
ATOM     11  N   UNL     1       3.238   5.755  18.791  0.00  0.00    +0.000 N 
ATOM     12  C   UNL     1       3.945   6.018  17.607  0.00  0.00    +0.000 A 
ATOM     13  O   UNL     1       4.653   5.178  17.078  0.00  0.00    +0.000 OA
ATOM     14  C   UNL     1       3.748   7.405  17.077  0.00  0.00    +0.000 A 
ATOM     15  C   UNL     1       2.963   8.328  17.670  0.00  0.00    +0.000 A 
ATOM     16  C   UNL     1       2.238   8.006  18.900  0.00  0.00    +0.000 A 
ATOM     17  C   UNL     1       2.440   6.723  19.371  0.00  0.00    +0.000 A 
ENDROOT
BRANCH   1  19
ATOM     18  C   UNL     1      -0.222  10.254  18.491  0.00  0.00    +0.000 C 
ATOM     19  C   UNL     1       1.128  10.202  19.179  0.00  0.00    +0.000 C 
ENDBRANCH   1  19
TORSDOF 1
ENDMDL
MODEL 7
REMARK VINA RESULT:      -6.5      1.672      4.318
REMARK  Name = 
REMARK  2 active torsions:
REMARK  status: ('A' for Active; 'I' for Inactive)
REMARK    1  A    between atoms: C_1  and  C_2
REMARK    2  A    between atoms: C_2  and  N_3
REMARK                            x       y       z     vdW  Elec       q    Type
REMARK                         _______ _______ _______ _____ _____    ______ ____
ROOT
ATOM      1  N   UNL     1       3.780   3.424  19.642  0.00  0.00    +0.000 N 
ATOM      2  C   UNL     1       2.874   3.780  20.589  0.00  0.00    +0.000 A 
ATOM      3  C   UNL     1       2.262   5.035  20.600  0.00  0.00    +0.000 A 
ATOM      4  C   UNL     1       2.606   5.944  19.593  0.00  0.00    +0.000 A 
ATOM      5  C   UNL     1       2.238   7.276  19.242  0.00  0.00    +0.000 A 
ATOM      6  C   UNL     1       1.349   8.216  19.803  0.00  0.00    +0.000 A 
ATOM      7  C   UNL     1       1.202   9.473  19.208  0.00  0.00    +0.000 A 
ATOM      8  C   UNL     1       1.925   9.803  18.067  0.00  0.00    +0.000 A 
ATOM      9  C   UNL     1       2.813   8.892  17.488  0.00  0.00    +0.000 A 
ATOM     10  C   UNL     1       2.959   7.630  18.089  0.00  0.00    +0.000 A 
ATOM     11  N   UNL     1       3.748   6.543  17.746  0.00  0.00    +0.000 N 
ATOM     12  C   UNL     1       4.651   6.374  16.685  0.00  0.00    +0.000 A 
ATOM     13  O   UNL     1       4.861   7.255  15.870  0.00  0.00    +0.000 OA
ATOM     14  C   UNL     1       5.310   5.029  16.657  0.00  0.00    +0.000 A 
ATOM     15  C   UNL     1       5.070   4.059  17.563  0.00  0.00    +0.000 A 
ATOM     16  C   UNL     1       4.126   4.284  18.659  0.00  0.00    +0.000 A 
ATOM     17  C   UNL     1       3.528   5.530  18.660  0.00  0.00    +0.000 A 
ENDROOT
BRANCH   1  19
ATOM     18  C   UNL     1       3.695   1.146  18.737  0.00  0.00    +0.000 C 
ATOM     19  C   UNL     1       4.375   2.066  19.732  0.00  0.00    +0.000 C 
ENDBRANCH   1  19
TORSDOF 1
ENDMDL
MODEL 8
REMARK VINA RESULT:      -6.4      1.947      4.981
REMARK  Name = 
REMARK  2 active torsions:
REMARK  status: ('A' for Active; 'I' for Inactive)
REMARK    1  A    between atoms: C_1  and  C_2
REMARK    2  A    between atoms: C_2  and  N_3
REMARK                            x       y       z     vdW  Elec       q    Type
REMARK                         _______ _______ _______ _____ _____    ______ ____
ROOT
ATOM      1  N   UNL     1       3.488   3.614  19.699  0.00  0.00    +0.000 N 
ATOM      2  C   UNL     1       2.717   3.559  20.815  0.00  0.00    +0.000 A 
ATOM      3  C   UNL     1       1.960   4.647  21.253  0.00  0.00    +0.000 A 
ATOM      4  C   UNL     1       2.008   5.828  20.502  0.00  0.00    +0.000 A 
ATOM      5  C   UNL     1       1.417   7.123  20.586  0.00  0.00    +0.000 A 
ATOM      6  C   UNL     1       0.523   7.723  21.496  0.00  0.00    +0.000 A 
ATOM      7  C   UNL     1       0.118   9.047  21.297  0.00  0.00    +0.000 A 
ATOM      8  C   UNL     1       0.588   9.774  20.210  0.00  0.00    +0.000 A 
ATOM      9  C   UNL     1       1.475   9.206  19.291  0.00  0.00    +0.000 A 
ATOM     10  C   UNL     1       1.881   7.876  19.494  0.00  0.00    +0.000 A 
ATOM     11  N   UNL     1       2.734   7.062  18.764  0.00  0.00    +0.000 N 
ATOM     12  C   UNL     1       3.458   7.324  17.591  0.00  0.00    +0.000 A 
ATOM     13  O   UNL     1       3.412   8.407  17.032  0.00  0.00    +0.000 OA
ATOM     14  C   UNL     1       4.271   6.162  17.106  0.00  0.00    +0.000 A 
ATOM     15  C   UNL     1       4.315   4.967  17.730  0.00  0.00    +0.000 A 
ATOM     16  C   UNL     1       3.548   4.742  18.957  0.00  0.00    +0.000 A 
ATOM     17  C   UNL     1       2.804   5.827  19.381  0.00  0.00    +0.000 A 
ENDROOT
BRANCH   1  19
ATOM     18  C   UNL     1       3.421   1.521  18.422  0.00  0.00    +0.000 C 
ATOM     19  C   UNL     1       4.259   2.400  19.330  0.00  0.00    +0.000 C 
ENDBRANCH   1  19
TORSDOF 1
ENDMDL
MODEL 9
REMARK VINA RESULT:      -6.2      3.940      7.104
REMARK  Name = 
REMARK  2 active torsions:
REMARK  status: ('A' for Active; 'I' for Inactive)
REMARK    1  A    between atoms: C_1  and  C_2
REMARK    2  A    between atoms: C_2  and  N_3
REMARK                            x       y       z     vdW  Elec       q    Type
REMARK                         _______ _______ _______ _____ _____    ______ ____
ROOT
ATOM      1  N   UNL     1       2.427   6.619  19.113  0.00  0.00    +0.000 N 
ATOM      2  C   UNL     1       1.993   6.030  20.257  0.00  0.00    +0.000 A 
ATOM      3  C   UNL     1       1.258   6.724  21.220  0.00  0.00    +0.000 A 
ATOM      4  C   UNL     1       0.967   8.072  20.981  0.00  0.00    +0.000 A 
ATOM      5  C   UNL     1       0.273   9.111  21.670  0.00  0.00    +0.000 A 
ATOM      6  C   UNL     1      -0.410   9.168  22.902  0.00  0.00    +0.000 A 
ATOM      7  C   UNL     1      -1.005  10.367  23.308  0.00  0.00    +0.000 A 
ATOM      8  C   UNL     1      -0.929  11.501  22.507  0.00  0.00    +0.000 A 
ATOM      9  C   UNL     1      -0.259  11.473  21.281  0.00  0.00    +0.000 A 
ATOM     10  C   UNL     1       0.338  10.268  20.876  0.00  0.00    +0.000 A 
ATOM     11  N   UNL     1       1.055   9.944  19.734  0.00  0.00    +0.000 N 
ATOM     12  C   UNL     1       1.405  10.733  18.626  0.00  0.00    +0.000 A 
ATOM     13  O   UNL     1       1.086  11.907  18.543  0.00  0.00    +0.000 OA
ATOM     14  C   UNL     1       2.189   9.999  17.581  0.00  0.00    +0.000 A 
ATOM     15  C   UNL     1       2.536   8.700  17.682  0.00  0.00    +0.000 A 
ATOM     16  C   UNL     1       2.156   7.919  18.859  0.00  0.00    +0.000 A 
ATOM     17  C   UNL     1       1.430   8.617  19.806  0.00  0.00    +0.000 A 
ENDROOT
BRANCH   1  19
ATOM     18  C   UNL     1       2.461   4.500  17.877  0.00  0.00    +0.000 C 
ATOM     19  C   UNL     1       3.208   5.789  18.161  0.00  0.00    +0.000 C 
ENDBRANCH   1  19
TORSDOF 1
ENDMDL
