MODEL 1
REMARK VINA RESULT:      -7.3      0.000      0.000
REMARK  Name = 
REMARK  15 active torsions:
REMARK  status: ('A' for Active; 'I' for Inactive)
REMARK    1  A    between atoms: C_1  and  C_2
REMARK    2  A    between atoms: C_2  and  N_3
REMARK    3  A    between atoms: N_3  and  C_4
REMARK    4  A    between atoms: N_3  and  C_6
REMARK    5  A    between atoms: C_4  and  C_5
REMARK    6  A    between atoms: C_6  and  C_7
REMARK    7  A    between atoms: C_7  and  C_8
REMARK    8  A    between atoms: C_8  and  N_9
REMARK    9  A    between atoms: N_9  and  C_10
REMARK   10  A    between atoms: C_10  and  N_12
REMARK   11  A    between atoms: N_12  and  C_13
REMARK   12  A    between atoms: N_12  and  C_27
REMARK   13  A    between atoms: C_13  and  C_14
REMARK   14  A    between atoms: C_19  and  O_20
REMARK   15  A    between atoms: O_20  and  C_21
REMARK                            x       y       z     vdW  Elec       q    Type
REMARK                         _______ _______ _______ _____ _____    ______ ____
ROOT
ATOM      1  N   UNL     1       4.654   4.189  18.043  0.00  0.00    +0.000 N 
ENDROOT
BRANCH   1   2
ATOM      2  C   UNL     1       3.865   3.097  17.383  0.00  0.00    +0.000 C 
ATOM      3  C   UNL     1       3.637   1.850  18.282  0.00  0.00    +0.000 C 
ATOM      4  C   UNL     1       2.521   2.014  19.315  0.00  0.00    +0.000 C 
ATOM      5  C   UNL     1       1.204   2.445  18.685  0.00  0.00    +0.000 C 
ATOM      6  C   UNL     1       1.378   3.677  17.808  0.00  0.00    +0.000 C 
ATOM      7  C   UNL     1       2.495   3.492  16.777  0.00  0.00    +0.000 C 
ENDBRANCH   1   2
BRANCH   1   8
ATOM      8  C   UNL     1       5.809   4.706  17.427  0.00  0.00    +0.000 C 
ATOM      9  S   UNL     1       7.311   4.735  18.173  0.00  0.00    +0.000 S 
BRANCH   8  10
ATOM     10  N   UNL     1       5.565   5.172  16.149  0.00  0.00    +0.000 N 
ATOM     11  H   UNL     1       4.618   5.472  15.975  0.00  0.00    +0.000 HD
BRANCH  10  12
ATOM     12  C   UNL     1       6.420   4.970  14.972  0.00  0.00    +0.000 C 
BRANCH  12  13
ATOM     13  C   UNL     1       5.596   4.585  13.743  0.00  0.00    +0.000 C 
BRANCH  13  14
ATOM     14  C   UNL     1       6.118   3.337  13.005  0.00  0.00    +0.000 C 
BRANCH  14  15
ATOM     15  N   UNL     1       5.160   2.672  12.101  0.00  0.00    +0.000 NA
BRANCH  15  17
ATOM     16  C   UNL     1       3.302   3.001  10.422  0.00  0.00    +0.000 C 
ATOM     17  C   UNL     1       4.263   3.628  11.429  0.00  0.00    +0.000 C 
ENDBRANCH  15  17
BRANCH  15  18
ATOM     18  C   UNL     1       5.842   1.747  11.175  0.00  0.00    +0.000 C 
ATOM     19  C   UNL     1       7.363   1.863  11.083  0.00  0.00    +0.000 C 
ENDBRANCH  15  18
ENDBRANCH  14  15
ENDBRANCH  13  14
ENDBRANCH  12  13
ENDBRANCH  10  12
ENDBRANCH   8  10
ENDBRANCH   1   8
BRANCH   1  20
ATOM     20  C   UNL     1       4.335   4.631  19.418  0.00  0.00    +0.000 C 
BRANCH  20  21
ATOM     21  C   UNL     1       3.351   5.776  19.486  0.00  0.00    +0.000 A 
ATOM     22  C   UNL     1       3.240   6.792  18.608  0.00  0.00    +0.000 A 
ATOM     23  C   UNL     1       2.300   7.898  18.838  0.00  0.00    +0.000 A 
ATOM     24  C   UNL     1       2.201   8.983  17.967  0.00  0.00    +0.000 A 
ATOM     25  C   UNL     1       1.340  10.045  18.266  0.00  0.00    +0.000 A 
ATOM     26  C   UNL     1       0.562  10.037  19.431  0.00  0.00    +0.000 A 
ATOM     27  C   UNL     1       0.632   8.940  20.287  0.00  0.00    +0.000 A 
ATOM     28  C   UNL     1       1.502   7.886  19.987  0.00  0.00    +0.000 A 
ATOM     29  N   UNL     1       1.595   6.801  20.863  0.00  0.00    +0.000 N 
ATOM     30  C   UNL     1       2.459   5.751  20.687  0.00  0.00    +0.000 A 
ATOM     31  O   UNL     1       2.481   4.834  21.502  0.00  0.00    +0.000 OA
ATOM     32  H   UNL     1       1.011   6.756  21.688  0.00  0.00    +0.000 HD
BRANCH  26  33
ATOM     33  O   UNL     1      -0.204  11.156  19.618  0.00  0.00    +0.000 OA
ATOM     34  C   UNL     1      -0.920  11.650  18.490  0.00  0.00    +0.000 C 
ENDBRANCH  26  33
ENDBRANCH  20  21
ENDBRANCH   1  20
TORSDOF 12
ENDMDL
MODEL 2
REMARK VINA RESULT:      -7.2      0.754      1.345
REMARK  Name = 
REMARK  15 active torsions:
REMARK  status: ('A' for Active; 'I' for Inactive)
REMARK    1  A    between atoms: C_1  and  C_2
REMARK    2  A    between atoms: C_2  and  N_3
REMARK    3  A    between atoms: N_3  and  C_4
REMARK    4  A    between atoms: N_3  and  C_6
REMARK    5  A    between atoms: C_4  and  C_5
REMARK    6  A    between atoms: C_6  and  C_7
REMARK    7  A    between atoms: C_7  and  C_8
REMARK    8  A    between atoms: C_8  and  N_9
REMARK    9  A    between atoms: N_9  and  C_10
REMARK   10  A    between atoms: C_10  and  N_12
REMARK   11  A    between atoms: N_12  and  C_13
REMARK   12  A    between atoms: N_12  and  C_27
REMARK   13  A    between atoms: C_13  and  C_14
REMARK   14  A    between atoms: C_19  and  O_20
REMARK   15  A    between atoms: O_20  and  C_21
REMARK                            x       y       z     vdW  Elec       q    Type
REMARK                         _______ _______ _______ _____ _____    ______ ____
ROOT
ATOM      1  N   UNL     1       4.468   3.885  18.258  0.00  0.00    +0.000 N 
ENDROOT
BRANCH   1   2
ATOM      2  C   UNL     1       3.597   2.803  17.690  0.00  0.00    +0.000 C 
ATOM      3  C   UNL     1       3.238   1.684  18.706  0.00  0.00    +0.000 C 
ATOM      4  C   UNL     1       2.120   2.053  19.682  0.00  0.00    +0.000 C 
ATOM      5  C   UNL     1       0.861   2.530  18.971  0.00  0.00    +0.000 C 
ATOM      6  C   UNL     1       1.165   3.642  17.977  0.00  0.00    +0.000 C 
ATOM      7  C   UNL     1       2.282   3.252  17.005  0.00  0.00    +0.000 C 
ENDBRANCH   1   2
BRANCH   1   8
ATOM      8  C   UNL     1       5.653   4.264  17.601  0.00  0.00    +0.000 C 
ATOM      9  S   UNL     1       6.851   5.185  18.330  0.00  0.00    +0.000 S 
BRANCH   8  10
ATOM     10  N   UNL     1       5.718   3.787  16.305  0.00  0.00    +0.000 N 
ATOM     11  H   UNL     1       6.431   3.093  16.139  0.00  0.00    +0.000 HD
BRANCH  10  12
ATOM     12  C   UNL     1       5.108   4.404  15.120  0.00  0.00    +0.000 C 
BRANCH  12  13
ATOM     13  C   UNL     1       6.166   4.793  14.087  0.00  0.00    +0.000 C 
BRANCH  13  14
ATOM     14  C   UNL     1       6.777   3.593  13.336  0.00  0.00    +0.000 C 
BRANCH  14  15
ATOM     15  N   UNL     1       6.247   3.340  11.981  0.00  0.00    +0.000 NA
BRANCH  15  17
ATOM     16  C   UNL     1       6.496   1.017  11.023  0.00  0.00    +0.000 C 
ATOM     17  C   UNL     1       7.090   2.411  11.210  0.00  0.00    +0.000 C 
ENDBRANCH  15  17
BRANCH  15  18
ATOM     18  C   UNL     1       4.823   2.956  12.021  0.00  0.00    +0.000 C 
ATOM     19  C   UNL     1       3.894   3.652  11.027  0.00  0.00    +0.000 C 
ENDBRANCH  15  18
ENDBRANCH  14  15
ENDBRANCH  13  14
ENDBRANCH  12  13
ENDBRANCH  10  12
ENDBRANCH   8  10
ENDBRANCH   1   8
BRANCH   1  20
ATOM     20  C   UNL     1       4.191   4.460  19.592  0.00  0.00    +0.000 C 
BRANCH  20  21
ATOM     21  C   UNL     1       3.291   5.674  19.567  0.00  0.00    +0.000 A 
ATOM     22  C   UNL     1       3.268   6.637  18.625  0.00  0.00    +0.000 A 
ATOM     23  C   UNL     1       2.406   7.819  18.764  0.00  0.00    +0.000 A 
ATOM     24  C   UNL     1       2.401   8.850  17.825  0.00  0.00    +0.000 A 
ATOM     25  C   UNL     1       1.613   9.987  18.039  0.00  0.00    +0.000 A 
ATOM     26  C   UNL     1       0.816  10.109  19.184  0.00  0.00    +0.000 A 
ATOM     27  C   UNL     1       0.793   9.067  20.109  0.00  0.00    +0.000 A 
ATOM     28  C   UNL     1       1.590   7.937  19.895  0.00  0.00    +0.000 A 
ATOM     29  N   UNL     1       1.590   6.906  20.838  0.00  0.00    +0.000 N 
ATOM     30  C   UNL     1       2.379   5.789  20.747  0.00  0.00    +0.000 A 
ATOM     31  O   UNL     1       2.321   4.927  21.618  0.00  0.00    +0.000 OA
ATOM     32  H   UNL     1       0.990   6.955  21.652  0.00  0.00    +0.000 HD
BRANCH  26  33
ATOM     33  O   UNL     1       0.129  11.288  19.284  0.00  0.00    +0.000 OA
ATOM     34  C   UNL     1       0.794  12.376  19.918  0.00  0.00    +0.000 C 
ENDBRANCH  26  33
ENDBRANCH  20  21
ENDBRANCH   1  20
TORSDOF 12
ENDMDL
MODEL 3
REMARK VINA RESULT:      -6.7      2.786      4.287
REMARK  Name = 
REMARK  15 active torsions:
REMARK  status: ('A' for Active; 'I' for Inactive)
REMARK    1  A    between atoms: C_1  and  C_2
REMARK    2  A    between atoms: C_2  and  N_3
REMARK    3  A    between atoms: N_3  and  C_4
REMARK    4  A    between atoms: N_3  and  C_6
REMARK    5  A    between atoms: C_4  and  C_5
REMARK    6  A    between atoms: C_6  and  C_7
REMARK    7  A    between atoms: C_7  and  C_8
REMARK    8  A    between atoms: C_8  and  N_9
REMARK    9  A    between atoms: N_9  and  C_10
REMARK   10  A    between atoms: C_10  and  N_12
REMARK   11  A    between atoms: N_12  and  C_13
REMARK   12  A    between atoms: N_12  and  C_27
REMARK   13  A    between atoms: C_13  and  C_14
REMARK   14  A    between atoms: C_19  and  O_20
REMARK   15  A    between atoms: O_20  and  C_21
REMARK                            x       y       z     vdW  Elec       q    Type
REMARK                         _______ _______ _______ _____ _____    ______ ____
ROOT
ATOM      1  N   UNL     1       2.749   5.627  19.147  0.00  0.00    +0.000 N 
ENDROOT
BRANCH   1   2
ATOM      2  C   UNL     1       1.889   5.215  20.305  0.00  0.00    +0.000 C 
ATOM      3  C   UNL     1       0.615   4.426  19.897  0.00  0.00    +0.000 C 
ATOM      4  C   UNL     1       0.863   2.951  19.574  0.00  0.00    +0.000 C 
ATOM      5  C   UNL     1       1.584   2.224  20.701  0.00  0.00    +0.000 C 
ATOM      6  C   UNL     1       2.851   2.955  21.121  0.00  0.00    +0.000 C 
ATOM      7  C   UNL     1       2.582   4.427  21.445  0.00  0.00    +0.000 C 
ENDBRANCH   1   2
BRANCH   1   8
ATOM      8  C   UNL     1       3.908   4.897  18.825  0.00  0.00    +0.000 C 
ATOM      9  S   UNL     1       3.894   3.544  17.834  0.00  0.00    +0.000 S 
BRANCH   8  10
ATOM     10  N   UNL     1       5.046   5.424  19.407  0.00  0.00    +0.000 N 
ATOM     11  H   UNL     1       5.031   6.422  19.551  0.00  0.00    +0.000 HD
BRANCH  10  12
ATOM     12  C   UNL     1       6.351   4.761  19.522  0.00  0.00    +0.000 C 
BRANCH  12  13
ATOM     13  C   UNL     1       7.390   5.412  18.608  0.00  0.00    +0.000 C 
BRANCH  13  14
ATOM     14  C   UNL     1       7.462   4.791  17.199  0.00  0.00    +0.000 C 
BRANCH  14  15
ATOM     15  N   UNL     1       7.281   5.725  16.071  0.00  0.00    +0.000 NA
BRANCH  15  17
ATOM     16  C   UNL     1       6.252   3.686  14.993  0.00  0.00    +0.000 C 
ATOM     17  C   UNL     1       6.948   5.033  14.814  0.00  0.00    +0.000 C 
ENDBRANCH  15  17
BRANCH  15  18
ATOM     18  C   UNL     1       6.345   6.813  16.415  0.00  0.00    +0.000 C 
ATOM     19  C   UNL     1       4.958   6.754  15.779  0.00  0.00    +0.000 C 
ENDBRANCH  15  18
ENDBRANCH  14  15
ENDBRANCH  13  14
ENDBRANCH  12  13
ENDBRANCH  10  12
ENDBRANCH   8  10
ENDBRANCH   1   8
BRANCH   1  20
ATOM     20  C   UNL     1       2.493   6.891  18.422  0.00  0.00    +0.000 C 
BRANCH  20  21
ATOM     21  C   UNL     1       1.878   7.978  19.273  0.00  0.00    +0.000 A 
ATOM     22  C   UNL     1       1.505   7.872  20.564  0.00  0.00    +0.000 A 
ATOM     23  C   UNL     1       0.832   8.980  21.254  0.00  0.00    +0.000 A 
ATOM     24  C   UNL     1       0.394   8.877  22.575  0.00  0.00    +0.000 A 
ATOM     25  C   UNL     1      -0.304   9.937  23.166  0.00  0.00    +0.000 A 
ATOM     26  C   UNL     1      -0.568  11.114  22.455  0.00  0.00    +0.000 A 
ATOM     27  C   UNL     1      -0.104  11.234  21.146  0.00  0.00    +0.000 A 
ATOM     28  C   UNL     1       0.585  10.168  20.558  0.00  0.00    +0.000 A 
ATOM     29  N   UNL     1       1.022  10.279  19.235  0.00  0.00    +0.000 N 
ATOM     30  C   UNL     1       1.651   9.270  18.554  0.00  0.00    +0.000 A 
ATOM     31  O   UNL     1       2.006   9.444  17.392  0.00  0.00    +0.000 OA
ATOM     32  H   UNL     1       0.879  11.136  18.717  0.00  0.00    +0.000 HD
BRANCH  26  33
ATOM     33  O   UNL     1      -1.293  12.050  23.141  0.00  0.00    +0.000 OA
ATOM     34  C   UNL     1      -1.102  13.414  22.779  0.00  0.00    +0.000 C 
ENDBRANCH  26  33
ENDBRANCH  20  21
ENDBRANCH   1  20
TORSDOF 12
ENDMDL
MODEL 4
REMARK VINA RESULT:      -6.7      2.768      4.384
REMARK  Name = 
REMARK  15 active torsions:
REMARK  status: ('A' for Active; 'I' for Inactive)
REMARK    1  A    between atoms: C_1  and  C_2
REMARK    2  A    between atoms: C_2  and  N_3
REMARK    3  A    between atoms: N_3  and  C_4
REMARK    4  A    between atoms: N_3  and  C_6
REMARK    5  A    between atoms: C_4  and  C_5
REMARK    6  A    between atoms: C_6  and  C_7
REMARK    7  A    between atoms: C_7  and  C_8
REMARK    8  A    between atoms: C_8  and  N_9
REMARK    9  A    between atoms: N_9  and  C_10
REMARK   10  A    between atoms: C_10  and  N_12
REMARK   11  A    between atoms: N_12  and  C_13
REMARK   12  A    between atoms: N_12  and  C_27
REMARK   13  A    between atoms: C_13  and  C_14
REMARK   14  A    between atoms: C_19  and  O_20
REMARK   15  A    between atoms: O_20  and  C_21
REMARK                            x       y       z     vdW  Elec       q    Type
REMARK                         _______ _______ _______ _____ _____    ______ ____
ROOT
ATOM      1  N   UNL     1       2.941   5.065  18.905  0.00  0.00    +0.000 N 
ENDROOT
BRANCH   1   2
ATOM      2  C   UNL     1       1.540   4.593  19.161  0.00  0.00    +0.000 C 
ATOM      3  C   UNL     1       1.182   3.260  18.446  0.00  0.00    +0.000 C 
ATOM      4  C   UNL     1       1.718   2.008  19.141  0.00  0.00    +0.000 C 
ATOM      5  C   UNL     1       1.306   1.936  20.605  0.00  0.00    +0.000 C 
ATOM      6  C   UNL     1       1.655   3.216  21.350  0.00  0.00    +0.000 C 
ATOM      7  C   UNL     1       1.107   4.458  20.643  0.00  0.00    +0.000 C 
ENDBRANCH   1   2
BRANCH   1   8
ATOM      8  C   UNL     1       3.840   4.267  18.174  0.00  0.00    +0.000 C 
ATOM      9  S   UNL     1       4.780   3.067  18.875  0.00  0.00    +0.000 S 
BRANCH   8  10
ATOM     10  N   UNL     1       3.851   4.577  16.828  0.00  0.00    +0.000 N 
ATOM     11  H   UNL     1       2.953   4.818  16.436  0.00  0.00    +0.000 HD
BRANCH  10  12
ATOM     12  C   UNL     1       4.928   4.277  15.875  0.00  0.00    +0.000 C 
BRANCH  12  13
ATOM     13  C   UNL     1       5.962   5.402  15.831  0.00  0.00    +0.000 C 
BRANCH  13  14
ATOM     14  C   UNL     1       7.234   5.116  16.654  0.00  0.00    +0.000 C 
BRANCH  14  15
ATOM     15  N   UNL     1       7.600   6.138  17.654  0.00  0.00    +0.000 NA
BRANCH  15  17
ATOM     16  C   UNL     1       8.004   8.626  17.813  0.00  0.00    +0.000 C 
ATOM     17  C   UNL     1       7.142   7.486  17.276  0.00  0.00    +0.000 C 
ENDBRANCH  15  17
BRANCH  15  18
ATOM     18  C   UNL     1       7.194   5.734  19.014  0.00  0.00    +0.000 C 
ATOM     19  C   UNL     1       8.315   5.498  20.025  0.00  0.00    +0.000 C 
ENDBRANCH  15  18
ENDBRANCH  14  15
ENDBRANCH  13  14
ENDBRANCH  12  13
ENDBRANCH  10  12
ENDBRANCH   8  10
ENDBRANCH   1   8
BRANCH   1  20
ATOM     20  C   UNL     1       3.456   6.294  19.547  0.00  0.00    +0.000 C 
BRANCH  20  21
ATOM     21  C   UNL     1       2.541   7.490  19.420  0.00  0.00    +0.000 A 
ATOM     22  C   UNL     1       1.778   8.024  20.394  0.00  0.00    +0.000 A 
ATOM     23  C   UNL     1       0.857   9.134  20.117  0.00  0.00    +0.000 A 
ATOM     24  C   UNL     1       0.024   9.672  21.098  0.00  0.00    +0.000 A 
ATOM     25  C   UNL     1      -0.885  10.683  20.767  0.00  0.00    +0.000 A 
ATOM     26  C   UNL     1      -0.972  11.177  19.460  0.00  0.00    +0.000 A 
ATOM     27  C   UNL     1      -0.120  10.665  18.483  0.00  0.00    +0.000 A 
ATOM     28  C   UNL     1       0.781   9.649  18.818  0.00  0.00    +0.000 A 
ATOM     29  N   UNL     1       1.614   9.115  17.831  0.00  0.00    +0.000 N 
ATOM     30  C   UNL     1       2.485   8.079  18.046  0.00  0.00    +0.000 A 
ATOM     31  O   UNL     1       3.184   7.666  17.126  0.00  0.00    +0.000 OA
ATOM     32  H   UNL     1       1.597   9.486  16.889  0.00  0.00    +0.000 HD
BRANCH  26  33
ATOM     33  O   UNL     1      -1.931  12.134  19.269  0.00  0.00    +0.000 OA
ATOM     34  C   UNL     1      -2.967  11.842  18.337  0.00  0.00    +0.000 C 
ENDBRANCH  26  33
ENDBRANCH  20  21
ENDBRANCH   1  20
TORSDOF 12
ENDMDL
MODEL 5
REMARK VINA RESULT:      -6.5      2.969      8.741
REMARK  Name = 
REMARK  15 active torsions:
REMARK  status: ('A' for Active; 'I' for Inactive)
REMARK    1  A    between atoms: C_1  and  C_2
REMARK    2  A    between atoms: C_2  and  N_3
REMARK    3  A    between atoms: N_3  and  C_4
REMARK    4  A    between atoms: N_3  and  C_6
REMARK    5  A    between atoms: C_4  and  C_5
REMARK    6  A    between atoms: C_6  and  C_7
REMARK    7  A    between atoms: C_7  and  C_8
REMARK    8  A    between atoms: C_8  and  N_9
REMARK    9  A    between atoms: N_9  and  C_10
REMARK   10  A    between atoms: C_10  and  N_12
REMARK   11  A    between atoms: N_12  and  C_13
REMARK   12  A    between atoms: N_12  and  C_27
REMARK   13  A    between atoms: C_13  and  C_14
REMARK   14  A    between atoms: C_19  and  O_20
REMARK   15  A    between atoms: O_20  and  C_21
REMARK                            x       y       z     vdW  Elec       q    Type
REMARK                         _______ _______ _______ _____ _____    ______ ____
ROOT
ATOM      1  N   UNL     1       3.878   4.980  19.600  0.00  0.00    +0.000 N 
ENDROOT
BRANCH   1   2
ATOM      2  C   UNL     1       3.501   3.597  20.044  0.00  0.00    +0.000 C 
ATOM      3  C   UNL     1       2.192   3.537  20.879  0.00  0.00    +0.000 C 
ATOM      4  C   UNL     1       0.910   3.606  20.048  0.00  0.00    +0.000 C 
ATOM      5  C   UNL     1       0.872   2.552  18.949  0.00  0.00    +0.000 C 
ATOM      6  C   UNL     1       2.130   2.588  18.094  0.00  0.00    +0.000 C 
ATOM      7  C   UNL     1       3.402   2.512  18.942  0.00  0.00    +0.000 C 
ENDBRANCH   1   2
BRANCH   1   8
ATOM      8  C   UNL     1       2.884   5.922  19.280  0.00  0.00    +0.000 C 
ATOM      9  S   UNL     1       2.121   5.978  17.786  0.00  0.00    +0.000 S 
BRANCH   8  10
ATOM     10  N   UNL     1       2.605   6.777  20.329  0.00  0.00    +0.000 N 
ATOM     11  H   UNL     1       2.796   6.406  21.247  0.00  0.00    +0.000 HD
BRANCH  10  12
ATOM     12  C   UNL     1       1.780   7.991  20.266  0.00  0.00    +0.000 C 
BRANCH  12  13
ATOM     13  C   UNL     1       1.092   8.268  21.603  0.00  0.00    +0.000 C 
BRANCH  13  14
ATOM     14  C   UNL     1       0.840   9.763  21.879  0.00  0.00    +0.000 C 
BRANCH  14  15
ATOM     15  N   UNL     1      -0.557  10.220  21.739  0.00  0.00    +0.000 NA
BRANCH  15  17
ATOM     16  C   UNL     1      -0.920  12.517  22.723  0.00  0.00    +0.000 C 
ATOM     17  C   UNL     1      -1.013  11.003  22.900  0.00  0.00    +0.000 C 
ENDBRANCH  15  17
BRANCH  15  18
ATOM     18  C   UNL     1      -0.779  10.893  20.444  0.00  0.00    +0.000 C 
ATOM     19  C   UNL     1       0.464  11.371  19.696  0.00  0.00    +0.000 C 
ENDBRANCH  15  18
ENDBRANCH  14  15
ENDBRANCH  13  14
ENDBRANCH  12  13
ENDBRANCH  10  12
ENDBRANCH   8  10
ENDBRANCH   1   8
BRANCH   1  20
ATOM     20  C   UNL     1       5.291   5.333  19.335  0.00  0.00    +0.000 C 
BRANCH  20  21
ATOM     21  C   UNL     1       5.690   5.234  17.881  0.00  0.00    +0.000 A 
ATOM     22  C   UNL     1       5.055   4.536  16.920  0.00  0.00    +0.000 A 
ATOM     23  C   UNL     1       5.599   4.445  15.558  0.00  0.00    +0.000 A 
ATOM     24  C   UNL     1       4.984   3.690  14.560  0.00  0.00    +0.000 A 
ATOM     25  C   UNL     1       5.579   3.580  13.298  0.00  0.00    +0.000 A 
ATOM     26  C   UNL     1       6.788   4.224  13.011  0.00  0.00    +0.000 A 
ATOM     27  C   UNL     1       7.390   5.007  13.995  0.00  0.00    +0.000 A 
ATOM     28  C   UNL     1       6.795   5.106  15.257  0.00  0.00    +0.000 A 
ATOM     29  N   UNL     1       7.416   5.865  16.253  0.00  0.00    +0.000 N 
ATOM     30  C   UNL     1       6.943   5.974  17.534  0.00  0.00    +0.000 A 
ATOM     31  O   UNL     1       7.546   6.662  18.353  0.00  0.00    +0.000 OA
ATOM     32  H   UNL     1       8.268   6.373  16.054  0.00  0.00    +0.000 HD
BRANCH  26  33
ATOM     33  O   UNL     1       7.277   3.998  11.753  0.00  0.00    +0.000 OA
ATOM     34  C   UNL     1       7.299   2.650  11.297  0.00  0.00    +0.000 C 
ENDBRANCH  26  33
ENDBRANCH  20  21
ENDBRANCH   1  20
TORSDOF 12
ENDMDL
MODEL 6
REMARK VINA RESULT:      -6.5      3.190      5.307
REMARK  Name = 
REMARK  15 active torsions:
REMARK  status: ('A' for Active; 'I' for Inactive)
REMARK    1  A    between atoms: C_1  and  C_2
REMARK    2  A    between atoms: C_2  and  N_3
REMARK    3  A    between atoms: N_3  and  C_4
REMARK    4  A    between atoms: N_3  and  C_6
REMARK    5  A    between atoms: C_4  and  C_5
REMARK    6  A    between atoms: C_6  and  C_7
REMARK    7  A    between atoms: C_7  and  C_8
REMARK    8  A    between atoms: C_8  and  N_9
REMARK    9  A    between atoms: N_9  and  C_10
REMARK   10  A    between atoms: C_10  and  N_12
REMARK   11  A    between atoms: N_12  and  C_13
REMARK   12  A    between atoms: N_12  and  C_27
REMARK   13  A    between atoms: C_13  and  C_14
REMARK   14  A    between atoms: C_19  and  O_20
REMARK   15  A    between atoms: O_20  and  C_21
REMARK                            x       y       z     vdW  Elec       q    Type
REMARK                         _______ _______ _______ _____ _____    ______ ____
ROOT
ATOM      1  N   UNL     1       4.238   4.838  17.695  0.00  0.00    +0.000 N 
ENDROOT
BRANCH   1   2
ATOM      2  C   UNL     1       3.380   3.744  17.131  0.00  0.00    +0.000 C 
ATOM      3  C   UNL     1       3.787   2.319  17.595  0.00  0.00    +0.000 C 
ATOM      4  C   UNL     1       3.308   1.952  19.001  0.00  0.00    +0.000 C 
ATOM      5  C   UNL     1       1.807   2.143  19.171  0.00  0.00    +0.000 C 
ATOM      6  C   UNL     1       1.366   3.535  18.744  0.00  0.00    +0.000 C 
ATOM      7  C   UNL     1       1.849   3.882  17.334  0.00  0.00    +0.000 C 
ENDBRANCH   1   2
BRANCH   1   8
ATOM      8  C   UNL     1       5.305   5.365  16.944  0.00  0.00    +0.000 C 
ATOM      9  S   UNL     1       5.749   4.771  15.439  0.00  0.00    +0.000 S 
BRANCH   8  10
ATOM     10  N   UNL     1       5.930   6.421  17.579  0.00  0.00    +0.000 N 
ATOM     11  H   UNL     1       5.330   7.197  17.813  0.00  0.00    +0.000 HD
BRANCH  10  12
ATOM     12  C   UNL     1       7.378   6.664  17.644  0.00  0.00    +0.000 C 
BRANCH  12  13
ATOM     13  C   UNL     1       7.699   8.154  17.527  0.00  0.00    +0.000 C 
BRANCH  13  14
ATOM     14  C   UNL     1       8.648   8.677  18.624  0.00  0.00    +0.000 C 
BRANCH  14  15
ATOM     15  N   UNL     1       8.606  10.131  18.875  0.00  0.00    +0.000 NA
BRANCH  15  17
ATOM     16  C   UNL     1       9.472  11.234  20.976  0.00  0.00    +0.000 C 
ATOM     17  C   UNL     1       9.785  10.609  19.619  0.00  0.00    +0.000 C 
ENDBRANCH  15  17
BRANCH  15  18
ATOM     18  C   UNL     1       8.340  10.886  17.636  0.00  0.00    +0.000 C 
ATOM     19  C   UNL     1       8.368  12.411  17.740  0.00  0.00    +0.000 C 
ENDBRANCH  15  18
ENDBRANCH  14  15
ENDBRANCH  13  14
ENDBRANCH  12  13
ENDBRANCH  10  12
ENDBRANCH   8  10
ENDBRANCH   1   8
BRANCH   1  20
ATOM     20  C   UNL     1       4.089   5.271  19.101  0.00  0.00    +0.000 C 
BRANCH  20  21
ATOM     21  C   UNL     1       3.086   6.383  19.303  0.00  0.00    +0.000 A 
ATOM     22  C   UNL     1       2.849   7.412  18.465  0.00  0.00    +0.000 A 
ATOM     23  C   UNL     1       1.908   8.482  18.821  0.00  0.00    +0.000 A 
ATOM     24  C   UNL     1       1.683   9.581  17.991  0.00  0.00    +0.000 A 
ATOM     25  C   UNL     1       0.828  10.609  18.407  0.00  0.00    +0.000 A 
ATOM     26  C   UNL     1       0.183  10.554  19.649  0.00  0.00    +0.000 A 
ATOM     27  C   UNL     1       0.379   9.443  20.467  0.00  0.00    +0.000 A 
ATOM     28  C   UNL     1       1.241   8.423  20.050  0.00  0.00    +0.000 A 
ATOM     29  N   UNL     1       1.462   7.324  20.885  0.00  0.00    +0.000 N 
ATOM     30  C   UNL     1       2.331   6.306  20.592  0.00  0.00    +0.000 A 
ATOM     31  O   UNL     1       2.470   5.375  21.379  0.00  0.00    +0.000 OA
ATOM     32  H   UNL     1       0.973   7.245  21.768  0.00  0.00    +0.000 HD
BRANCH  26  33
ATOM     33  O   UNL     1      -0.590  11.643  19.944  0.00  0.00    +0.000 OA
ATOM     34  C   UNL     1      -1.853  11.741  19.292  0.00  0.00    +0.000 C 
ENDBRANCH  26  33
ENDBRANCH  20  21
ENDBRANCH   1  20
TORSDOF 12
ENDMDL
MODEL 7
REMARK VINA RESULT:      -6.5      2.920      8.633
REMARK  Name = 
REMARK  15 active torsions:
REMARK  status: ('A' for Active; 'I' for Inactive)
REMARK    1  A    between atoms: C_1  and  C_2
REMARK    2  A    between atoms: C_2  and  N_3
REMARK    3  A    between atoms: N_3  and  C_4
REMARK    4  A    between atoms: N_3  and  C_6
REMARK    5  A    between atoms: C_4  and  C_5
REMARK    6  A    between atoms: C_6  and  C_7
REMARK    7  A    between atoms: C_7  and  C_8
REMARK    8  A    between atoms: C_8  and  N_9
REMARK    9  A    between atoms: N_9  and  C_10
REMARK   10  A    between atoms: C_10  and  N_12
REMARK   11  A    between atoms: N_12  and  C_13
REMARK   12  A    between atoms: N_12  and  C_27
REMARK   13  A    between atoms: C_13  and  C_14
REMARK   14  A    between atoms: C_19  and  O_20
REMARK   15  A    between atoms: O_20  and  C_21
REMARK                            x       y       z     vdW  Elec       q    Type
REMARK                         _______ _______ _______ _____ _____    ______ ____
ROOT
ATOM      1  N   UNL     1       3.903   4.932  19.636  0.00  0.00    +0.000 N 
ENDROOT
BRANCH   1   2
ATOM      2  C   UNL     1       3.509   3.531  20.000  0.00  0.00    +0.000 C 
ATOM      3  C   UNL     1       2.210   3.440  20.848  0.00  0.00    +0.000 C 
ATOM      4  C   UNL     1       0.919   3.580  20.040  0.00  0.00    +0.000 C 
ATOM      5  C   UNL     1       0.849   2.596  18.880  0.00  0.00    +0.000 C 
ATOM      6  C   UNL     1       2.096   2.664  18.011  0.00  0.00    +0.000 C 
ATOM      7  C   UNL     1       3.378   2.517  18.835  0.00  0.00    +0.000 C 
ENDBRANCH   1   2
BRANCH   1   8
ATOM      8  C   UNL     1       2.920   5.908  19.393  0.00  0.00    +0.000 C 
ATOM      9  S   UNL     1       2.213   6.143  17.889  0.00  0.00    +0.000 S 
BRANCH   8  10
ATOM     10  N   UNL     1       2.602   6.636  20.524  0.00  0.00    +0.000 N 
ATOM     11  H   UNL     1       3.262   6.559  21.283  0.00  0.00    +0.000 HD
BRANCH  10  12
ATOM     12  C   UNL     1       1.292   7.216  20.846  0.00  0.00    +0.000 C 
BRANCH  12  13
ATOM     13  C   UNL     1       1.258   8.716  20.552  0.00  0.00    +0.000 C 
BRANCH  13  14
ATOM     14  C   UNL     1      -0.142   9.348  20.683  0.00  0.00    +0.000 C 
BRANCH  14  15
ATOM     15  N   UNL     1      -0.177  10.817  20.823  0.00  0.00    +0.000 NA
BRANCH  15  17
ATOM     16  C   UNL     1      -1.533  10.689  18.697  0.00  0.00    +0.000 C 
ATOM     17  C   UNL     1      -1.219  11.439  19.989  0.00  0.00    +0.000 C 
ENDBRANCH  15  17
BRANCH  15  18
ATOM     18  C   UNL     1      -0.231  11.224  22.241  0.00  0.00    +0.000 C 
ATOM     19  C   UNL     1      -1.618  11.448  22.840  0.00  0.00    +0.000 C 
ENDBRANCH  15  18
ENDBRANCH  14  15
ENDBRANCH  13  14
ENDBRANCH  12  13
ENDBRANCH  10  12
ENDBRANCH   8  10
ENDBRANCH   1   8
BRANCH   1  20
ATOM     20  C   UNL     1       5.316   5.278  19.368  0.00  0.00    +0.000 C 
BRANCH  20  21
ATOM     21  C   UNL     1       5.709   5.192  17.912  0.00  0.00    +0.000 A 
ATOM     22  C   UNL     1       5.050   4.530  16.941  0.00  0.00    +0.000 A 
ATOM     23  C   UNL     1       5.587   4.446  15.576  0.00  0.00    +0.000 A 
ATOM     24  C   UNL     1       4.947   3.727  14.567  0.00  0.00    +0.000 A 
ATOM     25  C   UNL     1       5.535   3.621  13.301  0.00  0.00    +0.000 A 
ATOM     26  C   UNL     1       6.762   4.234  13.022  0.00  0.00    +0.000 A 
ATOM     27  C   UNL     1       7.390   4.981  14.017  0.00  0.00    +0.000 A 
ATOM     28  C   UNL     1       6.802   5.076  15.282  0.00  0.00    +0.000 A 
ATOM     29  N   UNL     1       7.448   5.800  16.289  0.00  0.00    +0.000 N 
ATOM     30  C   UNL     1       6.982   5.901  17.573  0.00  0.00    +0.000 A 
ATOM     31  O   UNL     1       7.608   6.556  18.401  0.00  0.00    +0.000 OA
ATOM     32  H   UNL     1       8.314   6.285  16.096  0.00  0.00    +0.000 HD
BRANCH  26  33
ATOM     33  O   UNL     1       7.240   4.015  11.758  0.00  0.00    +0.000 OA
ATOM     34  C   UNL     1       7.288   2.666  11.305  0.00  0.00    +0.000 C 
ENDBRANCH  26  33
ENDBRANCH  20  21
ENDBRANCH   1  20
TORSDOF 12
ENDMDL
MODEL 8
REMARK VINA RESULT:      -6.4      1.914      2.919
REMARK  Name = 
REMARK  15 active torsions:
REMARK  status: ('A' for Active; 'I' for Inactive)
REMARK    1  A    between atoms: C_1  and  C_2
REMARK    2  A    between atoms: C_2  and  N_3
REMARK    3  A    between atoms: N_3  and  C_4
REMARK    4  A    between atoms: N_3  and  C_6
REMARK    5  A    between atoms: C_4  and  C_5
REMARK    6  A    between atoms: C_6  and  C_7
REMARK    7  A    between atoms: C_7  and  C_8
REMARK    8  A    between atoms: C_8  and  N_9
REMARK    9  A    between atoms: N_9  and  C_10
REMARK   10  A    between atoms: C_10  and  N_12
REMARK   11  A    between atoms: N_12  and  C_13
REMARK   12  A    between atoms: N_12  and  C_27
REMARK   13  A    between atoms: C_13  and  C_14
REMARK   14  A    between atoms: C_19  and  O_20
REMARK   15  A    between atoms: O_20  and  C_21
REMARK                            x       y       z     vdW  Elec       q    Type
REMARK                         _______ _______ _______ _____ _____    ______ ____
ROOT
ATOM      1  N   UNL     1       3.224   5.627  18.462  0.00  0.00    +0.000 N 
ENDROOT
BRANCH   1   2
ATOM      2  C   UNL     1       2.377   4.971  19.512  0.00  0.00    +0.000 C 
ATOM      3  C   UNL     1       1.108   4.269  18.952  0.00  0.00    +0.000 C 
ATOM      4  C   UNL     1       1.371   2.899  18.325  0.00  0.00    +0.000 C 
ATOM      5  C   UNL     1       2.107   1.959  19.270  0.00  0.00    +0.000 C 
ATOM      6  C   UNL     1       3.368   2.601  19.829  0.00  0.00    +0.000 C 
ATOM      7  C   UNL     1       3.086   3.968  20.457  0.00  0.00    +0.000 C 
ENDBRANCH   1   2
BRANCH   1   8
ATOM      8  C   UNL     1       4.492   5.108  18.143  0.00  0.00    +0.000 C 
ATOM      9  S   UNL     1       5.828   5.270  19.146  0.00  0.00    +0.000 S 
BRANCH   8  10
ATOM     10  N   UNL     1       4.506   4.451  16.927  0.00  0.00    +0.000 N 
ATOM     11  H   UNL     1       4.208   3.488  16.957  0.00  0.00    +0.000 HD
BRANCH  10  12
ATOM     12  C   UNL     1       5.201   4.889  15.710  0.00  0.00    +0.000 C 
BRANCH  12  13
ATOM     13  C   UNL     1       5.933   3.728  15.037  0.00  0.00    +0.000 C 
BRANCH  13  14
ATOM     14  C   UNL     1       6.443   4.048  13.617  0.00  0.00    +0.000 C 
BRANCH  14  15
ATOM     15  N   UNL     1       5.878   3.228  12.528  0.00  0.00    +0.000 NA
BRANCH  15  17
ATOM     16  C   UNL     1       3.792   3.003  11.121  0.00  0.00    +0.000 C 
ATOM     17  C   UNL     1       4.806   3.924  11.796  0.00  0.00    +0.000 C 
ENDBRANCH  15  17
BRANCH  15  18
ATOM     18  C   UNL     1       6.937   2.685  11.655  0.00  0.00    +0.000 C 
ATOM     19  C   UNL     1       6.695   1.298  11.061  0.00  0.00    +0.000 C 
ENDBRANCH  15  18
ENDBRANCH  14  15
ENDBRANCH  13  14
ENDBRANCH  12  13
ENDBRANCH  10  12
ENDBRANCH   8  10
ENDBRANCH   1   8
BRANCH   1  20
ATOM     20  C   UNL     1       2.821   6.917  17.859  0.00  0.00    +0.000 C 
BRANCH  20  21
ATOM     21  C   UNL     1       2.195   7.887  18.834  0.00  0.00    +0.000 A 
ATOM     22  C   UNL     1       1.924   7.656  20.133  0.00  0.00    +0.000 A 
ATOM     23  C   UNL     1       1.226   8.655  20.954  0.00  0.00    +0.000 A 
ATOM     24  C   UNL     1       0.893   8.419  22.288  0.00  0.00    +0.000 A 
ATOM     25  C   UNL     1       0.168   9.376  23.008  0.00  0.00    +0.000 A 
ATOM     26  C   UNL     1      -0.229  10.580  22.413  0.00  0.00    +0.000 A 
ATOM     27  C   UNL     1       0.130  10.834  21.090  0.00  0.00    +0.000 A 
ATOM     28  C   UNL     1       0.847   9.870  20.373  0.00  0.00    +0.000 A 
ATOM     29  N   UNL     1       1.179  10.113  19.038  0.00  0.00    +0.000 N 
ATOM     30  C   UNL     1       1.827   9.209  18.237  0.00  0.00    +0.000 A 
ATOM     31  O   UNL     1       2.084   9.496  17.072  0.00  0.00    +0.000 OA
ATOM     32  H   UNL     1       0.939  10.993  18.601  0.00  0.00    +0.000 HD
BRANCH  26  33
ATOM     33  O   UNL     1      -0.967  11.404  23.219  0.00  0.00    +0.000 OA
ATOM     34  C   UNL     1      -1.148  12.747  22.783  0.00  0.00    +0.000 C 
ENDBRANCH  26  33
ENDBRANCH  20  21
ENDBRANCH   1  20
TORSDOF 12
ENDMDL
MODEL 9
REMARK VINA RESULT:      -6.4      1.454      2.207
REMARK  Name = 
REMARK  15 active torsions:
REMARK  status: ('A' for Active; 'I' for Inactive)
REMARK    1  A    between atoms: C_1  and  C_2
REMARK    2  A    between atoms: C_2  and  N_3
REMARK    3  A    between atoms: N_3  and  C_4
REMARK    4  A    between atoms: N_3  and  C_6
REMARK    5  A    between atoms: C_4  and  C_5
REMARK    6  A    between atoms: C_6  and  C_7
REMARK    7  A    between atoms: C_7  and  C_8
REMARK    8  A    between atoms: C_8  and  N_9
REMARK    9  A    between atoms: N_9  and  C_10
REMARK   10  A    between atoms: C_10  and  N_12
REMARK   11  A    between atoms: N_12  and  C_13
REMARK   12  A    between atoms: N_12  and  C_27
REMARK   13  A    between atoms: C_13  and  C_14
REMARK   14  A    between atoms: C_19  and  O_20
REMARK   15  A    between atoms: O_20  and  C_21
REMARK                            x       y       z     vdW  Elec       q    Type
REMARK                         _______ _______ _______ _____ _____    ______ ____
ROOT
ATOM      1  N   UNL     1       3.991   4.938  18.360  0.00  0.00    +0.000 N 
ENDROOT
BRANCH   1   2
ATOM      2  C   UNL     1       2.968   4.110  17.640  0.00  0.00    +0.000 C 
ATOM      3  C   UNL     1       3.261   2.584  17.664  0.00  0.00    +0.000 C 
ATOM      4  C   UNL     1       2.882   1.890  18.973  0.00  0.00    +0.000 C 
ATOM      5  C   UNL     1       1.434   2.145  19.368  0.00  0.00    +0.000 C 
ATOM      6  C   UNL     1       1.108   3.632  19.375  0.00  0.00    +0.000 C 
ATOM      7  C   UNL     1       1.489   4.308  18.055  0.00  0.00    +0.000 C 
ENDBRANCH   1   2
BRANCH   1   8
ATOM      8  C   UNL     1       5.338   4.917  17.956  0.00  0.00    +0.000 C 
ATOM      9  S   UNL     1       6.605   5.350  18.968  0.00  0.00    +0.000 S 
BRANCH   8  10
ATOM     10  N   UNL     1       5.494   4.496  16.649  0.00  0.00    +0.000 N 
ATOM     11  H   UNL     1       5.028   3.632  16.419  0.00  0.00    +0.000 HD
BRANCH  10  12
ATOM     12  C   UNL     1       6.502   4.976  15.695  0.00  0.00    +0.000 C 
BRANCH  12  13
ATOM     13  C   UNL     1       5.968   4.956  14.263  0.00  0.00    +0.000 C 
BRANCH  13  14
ATOM     14  C   UNL     1       5.966   3.557  13.615  0.00  0.00    +0.000 C 
BRANCH  14  15
ATOM     15  N   UNL     1       5.820   3.525  12.147  0.00  0.00    +0.000 NA
BRANCH  15  17
ATOM     16  C   UNL     1       6.699   1.381  11.141  0.00  0.00    +0.000 C 
ATOM     17  C   UNL     1       6.948   2.848  11.483  0.00  0.00    +0.000 C 
ENDBRANCH  15  17
BRANCH  15  18
ATOM     18  C   UNL     1       4.498   3.006  11.745  0.00  0.00    +0.000 C 
ATOM     19  C   UNL     1       3.795   3.729  10.597  0.00  0.00    +0.000 C 
ENDBRANCH  15  18
ENDBRANCH  14  15
ENDBRANCH  13  14
ENDBRANCH  12  13
ENDBRANCH  10  12
ENDBRANCH   8  10
ENDBRANCH   1   8
BRANCH   1  20
ATOM     20  C   UNL     1       3.642   5.664  19.602  0.00  0.00    +0.000 C 
BRANCH  20  21
ATOM     21  C   UNL     1       2.854   6.934  19.375  0.00  0.00    +0.000 A 
ATOM     22  C   UNL     1       1.941   7.471  20.208  0.00  0.00    +0.000 A 
ATOM     23  C   UNL     1       1.174   8.665  19.829  0.00  0.00    +0.000 A 
ATOM     24  C   UNL     1       0.191   9.210  20.655  0.00  0.00    +0.000 A 
ATOM     25  C   UNL     1      -0.560  10.308  20.218  0.00  0.00    +0.000 A 
ATOM     26  C   UNL     1      -0.339  10.880  18.959  0.00  0.00    +0.000 A 
ATOM     27  C   UNL     1       0.664  10.358  18.144  0.00  0.00    +0.000 A 
ATOM     28  C   UNL     1       1.406   9.256  18.582  0.00  0.00    +0.000 A 
ATOM     29  N   UNL     1       2.390   8.715  17.751  0.00  0.00    +0.000 N 
ATOM     30  C   UNL     1       3.126   7.603  18.065  0.00  0.00    +0.000 A 
ATOM     31  O   UNL     1       3.974   7.188  17.281  0.00  0.00    +0.000 OA
ATOM     32  H   UNL     1       2.595   9.139  16.855  0.00  0.00    +0.000 HD
BRANCH  26  33
ATOM     33  O   UNL     1      -1.171  11.920  18.646  0.00  0.00    +0.000 OA
ATOM     34  C   UNL     1      -0.562  13.166  18.325  0.00  0.00    +0.000 C 
ENDBRANCH  26  33
ENDBRANCH  20  21
ENDBRANCH   1  20
TORSDOF 12
ENDMDL
