MODEL 1
REMARK VINA RESULT:      -8.3      0.000      0.000
REMARK  Name = 
REMARK  6 active torsions:
REMARK  status: ('A' for Active; 'I' for Inactive)
REMARK    1  A    between atoms: C_2  and  C_17
REMARK    2  A    between atoms: N_3  and  C_4
REMARK    3  A    between atoms: C_4  and  C_5
REMARK    4  A    between atoms: C_4  and  C_11
REMARK    5  A    between atoms: C_5  and  N_6
REMARK    6  A    between atoms: C_20  and  N_21
REMARK                            x       y       z     vdW  Elec       q    Type
REMARK                         _______ _______ _______ _____ _____    ______ ____
ROOT
ATOM      1  O   UNL     1       2.499   8.571  17.239  0.00  0.00    +0.000 OA
ATOM      2  C   UNL     1       2.156   8.245  18.361  0.00  0.00    +0.000 C 
ATOM      3  N   UNL     1       2.435   7.011  18.932  0.00  0.00    +0.000 N 
ATOM      4  H   UNL     1       1.910   6.735  19.747  0.00  0.00    +0.000 HD
ENDROOT
BRANCH   2   5
ATOM      5  C   UNL     1       1.415   9.207  19.222  0.00  0.00    +0.000 A 
ATOM      6  C   UNL     1       1.102  10.486  18.746  0.00  0.00    +0.000 A 
ATOM      7  C   UNL     1       0.527  11.428  19.606  0.00  0.00    +0.000 A 
ATOM      8  C   UNL     1       0.294  11.104  20.950  0.00  0.00    +0.000 A 
ATOM      9  C   UNL     1       0.571   9.810  21.413  0.00  0.00    +0.000 A 
ATOM     10  C   UNL     1       1.123   8.866  20.546  0.00  0.00    +0.000 A 
BRANCH   8  11
ATOM     11  N   UNL     1      -0.181  12.080  21.854  0.00  0.00    +0.000 N 
ATOM     12  C   UNL     1      -1.230  12.004  22.731  0.00  0.00    +0.000 A 
ATOM     13  N   UNL     1      -1.387  13.166  23.323  0.00  0.00    +0.000 NA
ATOM     14  N   UNL     1      -0.392  13.969  22.828  0.00  0.00    +0.000 NA
ATOM     15  N   UNL     1       0.357  13.317  21.950  0.00  0.00    +0.000 NA
ENDBRANCH   8  11
ENDBRANCH   2   5
BRANCH   3  16
ATOM     16  C   UNL     1       3.110   5.976  18.154  0.00  0.00    +0.000 C 
BRANCH  16  17
ATOM     17  C   UNL     1       2.464   4.629  18.435  0.00  0.00    +0.000 A 
ATOM     18  C   UNL     1       1.582   4.491  19.519  0.00  0.00    +0.000 A 
ATOM     19  C   UNL     1       0.990   3.259  19.798  0.00  0.00    +0.000 A 
ATOM     20  C   UNL     1       1.273   2.152  19.003  0.00  0.00    +0.000 A 
ATOM     21  C   UNL     1       2.148   2.274  17.926  0.00  0.00    +0.000 A 
ATOM     22  C   UNL     1       2.740   3.504  17.642  0.00  0.00    +0.000 A 
ENDBRANCH  16  17
BRANCH  16  23
ATOM     23  C   UNL     1       4.631   5.911  18.417  0.00  0.00    +0.000 C 
BRANCH  23  24
ATOM     24  N   UNL     1       5.419   5.694  17.219  0.00  0.00    +0.000 N 
ATOM     25  C   UNL     1       6.481   4.846  17.080  0.00  0.00    +0.000 A 
ATOM     26  C   UNL     1       6.784   4.880  15.738  0.00  0.00    +0.000 A 
ATOM     27  N   UNL     1       5.995   5.792  15.084  0.00  0.00    +0.000 NA
ATOM     28  C   UNL     1       5.195   6.278  16.005  0.00  0.00    +0.000 A 
ENDBRANCH  23  24
ENDBRANCH  16  23
ENDBRANCH   3  16
TORSDOF 6
ENDMDL
MODEL 2
REMARK VINA RESULT:      -8.3      0.873      1.298
REMARK  Name = 
REMARK  6 active torsions:
REMARK  status: ('A' for Active; 'I' for Inactive)
REMARK    1  A    between atoms: C_2  and  C_17
REMARK    2  A    between atoms: N_3  and  C_4
REMARK    3  A    between atoms: C_4  and  C_5
REMARK    4  A    between atoms: C_4  and  C_11
REMARK    5  A    between atoms: C_5  and  N_6
REMARK    6  A    between atoms: C_20  and  N_21
REMARK                            x       y       z     vdW  Elec       q    Type
REMARK                         _______ _______ _______ _____ _____    ______ ____
ROOT
ATOM      1  O   UNL     1       2.542   8.576  17.304  0.00  0.00    +0.000 OA
ATOM      2  C   UNL     1       2.171   8.184  18.396  0.00  0.00    +0.000 C 
ATOM      3  N   UNL     1       2.439   6.920  18.901  0.00  0.00    +0.000 N 
ATOM      4  H   UNL     1       1.894   6.596  19.684  0.00  0.00    +0.000 HD
ENDROOT
BRANCH   2   5
ATOM      5  C   UNL     1       1.401   9.092  19.289  0.00  0.00    +0.000 A 
ATOM      6  C   UNL     1       1.193   8.752  20.632  0.00  0.00    +0.000 A 
ATOM      7  C   UNL     1       0.356   9.541  21.428  0.00  0.00    +0.000 A 
ATOM      8  C   UNL     1      -0.299  10.651  20.877  0.00  0.00    +0.000 A 
ATOM      9  C   UNL     1      -0.056  11.012  19.544  0.00  0.00    +0.000 A 
ATOM     10  C   UNL     1       0.797  10.235  18.759  0.00  0.00    +0.000 A 
BRANCH   8  11
ATOM     11  N   UNL     1      -1.232  11.389  21.639  0.00  0.00    +0.000 N 
ATOM     12  C   UNL     1      -1.473  11.342  22.985  0.00  0.00    +0.000 A 
ATOM     13  N   UNL     1      -2.486  12.128  23.275  0.00  0.00    +0.000 NA
ATOM     14  N   UNL     1      -2.856  12.702  22.085  0.00  0.00    +0.000 NA
ATOM     15  N   UNL     1      -2.093  12.275  21.089  0.00  0.00    +0.000 NA
ENDBRANCH   8  11
ENDBRANCH   2   5
BRANCH   3  16
ATOM     16  C   UNL     1       3.142   5.934  18.085  0.00  0.00    +0.000 C 
BRANCH  16  17
ATOM     17  C   UNL     1       2.523   4.563  18.304  0.00  0.00    +0.000 A 
ATOM     18  C   UNL     1       1.589   4.376  19.335  0.00  0.00    +0.000 A 
ATOM     19  C   UNL     1       1.021   3.121  19.558  0.00  0.00    +0.000 A 
ATOM     20  C   UNL     1       1.380   2.040  18.757  0.00  0.00    +0.000 A 
ATOM     21  C   UNL     1       2.308   2.211  17.732  0.00  0.00    +0.000 A 
ATOM     22  C   UNL     1       2.876   3.464  17.505  0.00  0.00    +0.000 A 
ENDBRANCH  16  17
BRANCH  16  23
ATOM     23  C   UNL     1       4.662   5.891  18.355  0.00  0.00    +0.000 C 
BRANCH  23  24
ATOM     24  N   UNL     1       5.458   5.684  17.161  0.00  0.00    +0.000 N 
ATOM     25  C   UNL     1       6.536   4.855  17.028  0.00  0.00    +0.000 A 
ATOM     26  C   UNL     1       6.844   4.890  15.688  0.00  0.00    +0.000 A 
ATOM     27  N   UNL     1       6.041   5.784  15.028  0.00  0.00    +0.000 NA
ATOM     28  C   UNL     1       5.227   6.259  15.944  0.00  0.00    +0.000 A 
ENDBRANCH  23  24
ENDBRANCH  16  23
ENDBRANCH   3  16
TORSDOF 6
ENDMDL
MODEL 3
REMARK VINA RESULT:      -8.3      0.546      1.166
REMARK  Name = 
REMARK  6 active torsions:
REMARK  status: ('A' for Active; 'I' for Inactive)
REMARK    1  A    between atoms: C_2  and  C_17
REMARK    2  A    between atoms: N_3  and  C_4
REMARK    3  A    between atoms: C_4  and  C_5
REMARK    4  A    between atoms: C_4  and  C_11
REMARK    5  A    between atoms: C_5  and  N_6
REMARK    6  A    between atoms: C_20  and  N_21
REMARK                            x       y       z     vdW  Elec       q    Type
REMARK                         _______ _______ _______ _____ _____    ______ ____
ROOT
ATOM      1  O   UNL     1       2.524   8.493  17.093  0.00  0.00    +0.000 OA
ATOM      2  C   UNL     1       2.216   8.226  18.240  0.00  0.00    +0.000 C 
ATOM      3  N   UNL     1       2.509   7.022  18.864  0.00  0.00    +0.000 N 
ATOM      4  H   UNL     1       2.010   6.790  19.708  0.00  0.00    +0.000 HD
ENDROOT
BRANCH   2   5
ATOM      5  C   UNL     1       1.505   9.233  19.073  0.00  0.00    +0.000 A 
ATOM      6  C   UNL     1       1.310  10.535  18.595  0.00  0.00    +0.000 A 
ATOM      7  C   UNL     1       0.763  11.511  19.435  0.00  0.00    +0.000 A 
ATOM      8  C   UNL     1       0.439  11.196  20.763  0.00  0.00    +0.000 A 
ATOM      9  C   UNL     1       0.597   9.882  21.225  0.00  0.00    +0.000 A 
ATOM     10  C   UNL     1       1.122   8.906  20.377  0.00  0.00    +0.000 A 
BRANCH   8  11
ATOM     11  N   UNL     1      -0.008  12.198  21.652  0.00  0.00    +0.000 N 
ATOM     12  C   UNL     1       0.047  13.559  21.515  0.00  0.00    +0.000 A 
ATOM     13  N   UNL     1      -0.399  14.126  22.613  0.00  0.00    +0.000 NA
ATOM     14  N   UNL     1      -0.773  13.093  23.434  0.00  0.00    +0.000 NA
ATOM     15  N   UNL     1      -0.558  11.920  22.856  0.00  0.00    +0.000 NA
ENDBRANCH   8  11
ENDBRANCH   2   5
BRANCH   3  16
ATOM     16  C   UNL     1       3.158   5.945  18.120  0.00  0.00    +0.000 C 
BRANCH  16  17
ATOM     17  C   UNL     1       2.487   4.623  18.456  0.00  0.00    +0.000 A 
ATOM     18  C   UNL     1       2.704   3.503  17.637  0.00  0.00    +0.000 A 
ATOM     19  C   UNL     1       2.086   2.286  17.924  0.00  0.00    +0.000 A 
ATOM     20  C   UNL     1       1.243   2.172  19.027  0.00  0.00    +0.000 A 
ATOM     21  C   UNL     1       1.017   3.276  19.846  0.00  0.00    +0.000 A 
ATOM     22  C   UNL     1       1.635   4.494  19.565  0.00  0.00    +0.000 A 
ENDBRANCH  16  17
BRANCH  16  23
ATOM     23  C   UNL     1       4.679   5.860  18.374  0.00  0.00    +0.000 C 
BRANCH  23  24
ATOM     24  N   UNL     1       5.454   5.599  17.176  0.00  0.00    +0.000 N 
ATOM     25  C   UNL     1       6.487   4.715  17.045  0.00  0.00    +0.000 A 
ATOM     26  C   UNL     1       6.784   4.719  15.702  0.00  0.00    +0.000 A 
ATOM     27  N   UNL     1       6.023   5.646  15.038  0.00  0.00    +0.000 NA
ATOM     28  C   UNL     1       5.242   6.172  15.954  0.00  0.00    +0.000 A 
ENDBRANCH  23  24
ENDBRANCH  16  23
ENDBRANCH   3  16
TORSDOF 6
ENDMDL
MODEL 4
REMARK VINA RESULT:      -8.2      0.762      1.159
REMARK  Name = 
REMARK  6 active torsions:
REMARK  status: ('A' for Active; 'I' for Inactive)
REMARK    1  A    between atoms: C_2  and  C_17
REMARK    2  A    between atoms: N_3  and  C_4
REMARK    3  A    between atoms: C_4  and  C_5
REMARK    4  A    between atoms: C_4  and  C_11
REMARK    5  A    between atoms: C_5  and  N_6
REMARK    6  A    between atoms: C_20  and  N_21
REMARK                            x       y       z     vdW  Elec       q    Type
REMARK                         _______ _______ _______ _____ _____    ______ ____
ROOT
ATOM      1  O   UNL     1       2.122   8.866  17.335  0.00  0.00    +0.000 OA
ATOM      2  C   UNL     1       1.852   8.643  18.501  0.00  0.00    +0.000 C 
ATOM      3  N   UNL     1       2.116   7.442  19.145  0.00  0.00    +0.000 N 
ATOM      4  H   UNL     1       1.643   7.256  20.015  0.00  0.00    +0.000 HD
ENDROOT
BRANCH   2   5
ATOM      5  C   UNL     1       1.224   9.703  19.335  0.00  0.00    +0.000 A 
ATOM      6  C   UNL     1       1.228  11.035  18.905  0.00  0.00    +0.000 A 
ATOM      7  C   UNL     1       0.758  12.043  19.754  0.00  0.00    +0.000 A 
ATOM      8  C   UNL     1       0.313  11.725  21.045  0.00  0.00    +0.000 A 
ATOM      9  C   UNL     1       0.272  10.386  21.457  0.00  0.00    +0.000 A 
ATOM     10  C   UNL     1       0.721   9.381  20.599  0.00  0.00    +0.000 A 
BRANCH   8  11
ATOM     11  N   UNL     1      -0.058  12.743  21.950  0.00  0.00    +0.000 N 
ATOM     12  C   UNL     1      -1.136  12.796  22.793  0.00  0.00    +0.000 A 
ATOM     13  N   UNL     1      -1.158  13.961  23.400  0.00  0.00    +0.000 NA
ATOM     14  N   UNL     1      -0.049  14.631  22.950  0.00  0.00    +0.000 NA
ATOM     15  N   UNL     1       0.635  13.897  22.084  0.00  0.00    +0.000 NA
ENDBRANCH   8  11
ENDBRANCH   2   5
BRANCH   3  16
ATOM     16  C   UNL     1       2.682   6.318  18.404  0.00  0.00    +0.000 C 
BRANCH  16  17
ATOM     17  C   UNL     1       2.058   5.022  18.897  0.00  0.00    +0.000 A 
ATOM     18  C   UNL     1       1.720   4.016  17.977  0.00  0.00    +0.000 A 
ATOM     19  C   UNL     1       1.136   2.826  18.412  0.00  0.00    +0.000 A 
ATOM     20  C   UNL     1       0.880   2.627  19.767  0.00  0.00    +0.000 A 
ATOM     21  C   UNL     1       1.207   3.618  20.689  0.00  0.00    +0.000 A 
ATOM     22  C   UNL     1       1.794   4.808  20.259  0.00  0.00    +0.000 A 
ENDBRANCH  16  17
BRANCH  16  23
ATOM     23  C   UNL     1       4.222   6.244  18.491  0.00  0.00    +0.000 C 
BRANCH  23  24
ATOM     24  N   UNL     1       4.857   5.864  17.244  0.00  0.00    +0.000 N 
ATOM     25  C   UNL     1       5.288   4.617  16.892  0.00  0.00    +0.000 A 
ATOM     26  C   UNL     1       5.668   4.735  15.575  0.00  0.00    +0.000 A 
ATOM     27  N   UNL     1       5.564   6.036  15.153  0.00  0.00    +0.000 NA
ATOM     28  C   UNL     1       5.088   6.695  16.185  0.00  0.00    +0.000 A 
ENDBRANCH  23  24
ENDBRANCH  16  23
ENDBRANCH   3  16
TORSDOF 6
ENDMDL
MODEL 5
REMARK VINA RESULT:      -8.1      1.073      1.818
REMARK  Name = 
REMARK  6 active torsions:
REMARK  status: ('A' for Active; 'I' for Inactive)
REMARK    1  A    between atoms: C_2  and  C_17
REMARK    2  A    between atoms: N_3  and  C_4
REMARK    3  A    between atoms: C_4  and  C_5
REMARK    4  A    between atoms: C_4  and  C_11
REMARK    5  A    between atoms: C_5  and  N_6
REMARK    6  A    between atoms: C_20  and  N_21
REMARK                            x       y       z     vdW  Elec       q    Type
REMARK                         _______ _______ _______ _____ _____    ______ ____
ROOT
ATOM      1  O   UNL     1       2.641   8.323  17.555  0.00  0.00    +0.000 OA
ATOM      2  C   UNL     1       2.296   7.995  18.675  0.00  0.00    +0.000 C 
ATOM      3  N   UNL     1       2.615   6.779  19.264  0.00  0.00    +0.000 N 
ATOM      4  H   UNL     1       2.090   6.492  20.074  0.00  0.00    +0.000 HD
ENDROOT
BRANCH   2   5
ATOM      5  C   UNL     1       1.504   8.935  19.515  0.00  0.00    +0.000 A 
ATOM      6  C   UNL     1       1.167   8.595  20.831  0.00  0.00    +0.000 A 
ATOM      7  C   UNL     1       0.310   9.420  21.566  0.00  0.00    +0.000 A 
ATOM      8  C   UNL     1      -0.237  10.569  20.977  0.00  0.00    +0.000 A 
ATOM      9  C   UNL     1       0.134  10.928  19.674  0.00  0.00    +0.000 A 
ATOM     10  C   UNL     1       1.007  10.114  18.952  0.00  0.00    +0.000 A 
BRANCH   8  11
ATOM     11  N   UNL     1      -1.190  11.349  21.669  0.00  0.00    +0.000 N 
ATOM     12  C   UNL     1      -1.469  11.379  23.009  0.00  0.00    +0.000 A 
ATOM     13  N   UNL     1      -2.488  12.181  23.224  0.00  0.00    +0.000 NA
ATOM     14  N   UNL     1      -2.824  12.686  21.994  0.00  0.00    +0.000 NA
ATOM     15  N   UNL     1      -2.033  12.204  21.046  0.00  0.00    +0.000 NA
ENDBRANCH   8  11
ENDBRANCH   2   5
BRANCH   3  16
ATOM     16  C   UNL     1       3.343   5.764  18.508  0.00  0.00    +0.000 C 
BRANCH  16  17
ATOM     17  C   UNL     1       2.615   4.434  18.615  0.00  0.00    +0.000 A 
ATOM     18  C   UNL     1       2.934   3.391  17.730  0.00  0.00    +0.000 A 
ATOM     19  C   UNL     1       2.267   2.169  17.807  0.00  0.00    +0.000 A 
ATOM     20  C   UNL     1       1.272   1.974  18.763  0.00  0.00    +0.000 A 
ATOM     21  C   UNL     1       0.944   3.002  19.644  0.00  0.00    +0.000 A 
ATOM     22  C   UNL     1       1.610   4.224  19.573  0.00  0.00    +0.000 A 
ENDBRANCH  16  17
BRANCH  16  23
ATOM     23  C   UNL     1       4.815   5.612  18.952  0.00  0.00    +0.000 C 
BRANCH  23  24
ATOM     24  N   UNL     1       5.729   5.355  17.856  0.00  0.00    +0.000 N 
ATOM     25  C   UNL     1       5.615   5.804  16.572  0.00  0.00    +0.000 A 
ATOM     26  C   UNL     1       6.790   5.429  15.962  0.00  0.00    +0.000 A 
ATOM     27  N   UNL     1       7.566   4.689  16.817  0.00  0.00    +0.000 NA
ATOM     28  C   UNL     1       6.894   4.647  17.944  0.00  0.00    +0.000 A 
ENDBRANCH  23  24
ENDBRANCH  16  23
ENDBRANCH   3  16
TORSDOF 6
ENDMDL
MODEL 6
REMARK VINA RESULT:      -8.0      0.803      1.569
REMARK  Name = 
REMARK  6 active torsions:
REMARK  status: ('A' for Active; 'I' for Inactive)
REMARK    1  A    between atoms: C_2  and  C_17
REMARK    2  A    between atoms: N_3  and  C_4
REMARK    3  A    between atoms: C_4  and  C_5
REMARK    4  A    between atoms: C_4  and  C_11
REMARK    5  A    between atoms: C_5  and  N_6
REMARK    6  A    between atoms: C_20  and  N_21
REMARK                            x       y       z     vdW  Elec       q    Type
REMARK                         _______ _______ _______ _____ _____    ______ ____
ROOT
ATOM      1  O   UNL     1       1.845   8.136  17.919  0.00  0.00    +0.000 OA
ATOM      2  C   UNL     1       1.982   8.001  19.121  0.00  0.00    +0.000 C 
ATOM      3  N   UNL     1       2.690   6.964  19.712  0.00  0.00    +0.000 N 
ATOM      4  H   UNL     1       2.544   6.789  20.693  0.00  0.00    +0.000 HD
ENDROOT
BRANCH   2   5
ATOM      5  C   UNL     1       1.394   9.001  20.054  0.00  0.00    +0.000 A 
ATOM      6  C   UNL     1       1.001   8.619  21.342  0.00  0.00    +0.000 A 
ATOM      7  C   UNL     1       0.326   9.529  22.163  0.00  0.00    +0.000 A 
ATOM      8  C   UNL     1       0.015  10.811  21.686  0.00  0.00    +0.000 A 
ATOM      9  C   UNL     1       0.446  11.203  20.411  0.00  0.00    +0.000 A 
ATOM     10  C   UNL     1       1.138  10.299  19.604  0.00  0.00    +0.000 A 
BRANCH   8  11
ATOM     11  N   UNL     1      -0.762  11.699  22.462  0.00  0.00    +0.000 N 
ATOM     12  C   UNL     1      -1.948  11.469  23.106  0.00  0.00    +0.000 A 
ATOM     13  N   UNL     1      -2.378  12.589  23.641  0.00  0.00    +0.000 NA
ATOM     14  N   UNL     1      -1.420  13.526  23.351  0.00  0.00    +0.000 NA
ATOM     15  N   UNL     1      -0.426  12.995  22.652  0.00  0.00    +0.000 NA
ENDBRANCH   8  11
ENDBRANCH   2   5
BRANCH   3  16
ATOM     16  C   UNL     1       3.261   5.900  18.890  0.00  0.00    +0.000 C 
BRANCH  16  17
ATOM     17  C   UNL     1       2.422   4.642  19.036  0.00  0.00    +0.000 A 
ATOM     18  C   UNL     1       2.518   3.624  18.074  0.00  0.00    +0.000 A 
ATOM     19  C   UNL     1       1.745   2.468  18.187  0.00  0.00    +0.000 A 
ATOM     20  C   UNL     1       0.866   2.316  19.256  0.00  0.00    +0.000 A 
ATOM     21  C   UNL     1       0.759   3.320  20.216  0.00  0.00    +0.000 A 
ATOM     22  C   UNL     1       1.532   4.475  20.109  0.00  0.00    +0.000 A 
ENDBRANCH  16  17
BRANCH  16  23
ATOM     23  C   UNL     1       4.742   5.605  19.220  0.00  0.00    +0.000 C 
BRANCH  23  24
ATOM     24  N   UNL     1       5.603   5.582  18.054  0.00  0.00    +0.000 N 
ATOM     25  C   UNL     1       6.633   4.719  17.813  0.00  0.00    +0.000 A 
ATOM     26  C   UNL     1       7.033   4.999  16.527  0.00  0.00    +0.000 A 
ATOM     27  N   UNL     1       6.335   6.065  16.022  0.00  0.00    +0.000 NA
ATOM     28  C   UNL     1       5.492   6.406  16.970  0.00  0.00    +0.000 A 
ENDBRANCH  23  24
ENDBRANCH  16  23
ENDBRANCH   3  16
TORSDOF 6
ENDMDL
MODEL 7
REMARK VINA RESULT:      -8.0      1.192      1.570
REMARK  Name = 
REMARK  6 active torsions:
REMARK  status: ('A' for Active; 'I' for Inactive)
REMARK    1  A    between atoms: C_2  and  C_17
REMARK    2  A    between atoms: N_3  and  C_4
REMARK    3  A    between atoms: C_4  and  C_5
REMARK    4  A    between atoms: C_4  and  C_11
REMARK    5  A    between atoms: C_5  and  N_6
REMARK    6  A    between atoms: C_20  and  N_21
REMARK                            x       y       z     vdW  Elec       q    Type
REMARK                         _______ _______ _______ _____ _____    ______ ____
ROOT
ATOM      1  O   UNL     1       2.688   8.350  17.240  0.00  0.00    +0.000 OA
ATOM      2  C   UNL     1       2.275   8.123  18.362  0.00  0.00    +0.000 C 
ATOM      3  N   UNL     1       2.569   6.974  19.081  0.00  0.00    +0.000 N 
ATOM      4  H   UNL     1       1.996   6.754  19.881  0.00  0.00    +0.000 HD
ENDROOT
BRANCH   2   5
ATOM      5  C   UNL     1       1.421   9.125  19.057  0.00  0.00    +0.000 A 
ATOM      6  C   UNL     1       1.106   8.966  20.412  0.00  0.00    +0.000 A 
ATOM      7  C   UNL     1       0.195   9.834  21.022  0.00  0.00    +0.000 A 
ATOM      8  C   UNL     1      -0.426  10.843  20.272  0.00  0.00    +0.000 A 
ATOM      9  C   UNL     1      -0.078  11.025  18.927  0.00  0.00    +0.000 A 
ATOM     10  C   UNL     1       0.848  10.170  18.327  0.00  0.00    +0.000 A 
BRANCH   8  11
ATOM     11  N   UNL     1      -1.430  11.654  20.847  0.00  0.00    +0.000 N 
ATOM     12  C   UNL     1      -2.332  12.477  20.229  0.00  0.00    +0.000 A 
ATOM     13  N   UNL     1      -3.031  13.119  21.138  0.00  0.00    +0.000 NA
ATOM     14  N   UNL     1      -2.575  12.656  22.346  0.00  0.00    +0.000 NA
ATOM     15  N   UNL     1      -1.616  11.755  22.183  0.00  0.00    +0.000 NA
ENDBRANCH   8  11
ENDBRANCH   2   5
BRANCH   3  16
ATOM     16  C   UNL     1       3.354   5.904  18.472  0.00  0.00    +0.000 C 
BRANCH  16  17
ATOM     17  C   UNL     1       2.597   4.591  18.588  0.00  0.00    +0.000 A 
ATOM     18  C   UNL     1       1.637   4.426  19.600  0.00  0.00    +0.000 A 
ATOM     19  C   UNL     1       0.942   3.223  19.727  0.00  0.00    +0.000 A 
ATOM     20  C   UNL     1       1.198   2.171  18.851  0.00  0.00    +0.000 A 
ATOM     21  C   UNL     1       2.150   2.321  17.845  0.00  0.00    +0.000 A 
ATOM     22  C   UNL     1       2.845   3.522  17.712  0.00  0.00    +0.000 A 
ENDBRANCH  16  17
BRANCH  16  23
ATOM     23  C   UNL     1       4.769   5.767  19.077  0.00  0.00    +0.000 C 
BRANCH  23  24
ATOM     24  N   UNL     1       5.816   5.640  18.081  0.00  0.00    +0.000 N 
ATOM     25  C   UNL     1       6.434   4.488  17.686  0.00  0.00    +0.000 A 
ATOM     26  C   UNL     1       7.229   4.861  16.626  0.00  0.00    +0.000 A 
ATOM     27  N   UNL     1       7.175   6.218  16.433  0.00  0.00    +0.000 NA
ATOM     28  C   UNL     1       6.330   6.661  17.335  0.00  0.00    +0.000 A 
ENDBRANCH  23  24
ENDBRANCH  16  23
ENDBRANCH   3  16
TORSDOF 6
ENDMDL
MODEL 8
REMARK VINA RESULT:      -8.0      1.071      1.588
REMARK  Name = 
REMARK  6 active torsions:
REMARK  status: ('A' for Active; 'I' for Inactive)
REMARK    1  A    between atoms: C_2  and  C_17
REMARK    2  A    between atoms: N_3  and  C_4
REMARK    3  A    between atoms: C_4  and  C_5
REMARK    4  A    between atoms: C_4  and  C_11
REMARK    5  A    between atoms: C_5  and  N_6
REMARK    6  A    between atoms: C_20  and  N_21
REMARK                            x       y       z     vdW  Elec       q    Type
REMARK                         _______ _______ _______ _____ _____    ______ ____
ROOT
ATOM      1  O   UNL     1       2.374   8.144  17.164  0.00  0.00    +0.000 OA
ATOM      2  C   UNL     1       2.336   7.888  18.353  0.00  0.00    +0.000 C 
ATOM      3  N   UNL     1       2.916   6.765  18.926  0.00  0.00    +0.000 N 
ATOM      4  H   UNL     1       2.629   6.505  19.856  0.00  0.00    +0.000 HD
ENDROOT
BRANCH   2   5
ATOM      5  C   UNL     1       1.662   8.823  19.295  0.00  0.00    +0.000 A 
ATOM      6  C   UNL     1       1.414   8.437  20.618  0.00  0.00    +0.000 A 
ATOM      7  C   UNL     1       0.661   9.266  21.456  0.00  0.00    +0.000 A 
ATOM      8  C   UNL     1       0.127  10.465  20.964  0.00  0.00    +0.000 A 
ATOM      9  C   UNL     1       0.410  10.868  19.652  0.00  0.00    +0.000 A 
ATOM     10  C   UNL     1       1.181  10.049  18.826  0.00  0.00    +0.000 A 
BRANCH   8  11
ATOM     11  N   UNL     1      -0.727  11.255  21.766  0.00  0.00    +0.000 N 
ATOM     12  C   UNL     1      -1.701  12.136  21.378  0.00  0.00    +0.000 A 
ATOM     13  N   UNL     1      -2.201  12.728  22.439  0.00  0.00    +0.000 NA
ATOM     14  N   UNL     1      -1.546  12.175  23.510  0.00  0.00    +0.000 NA
ATOM     15  N   UNL     1      -0.663  11.269  23.116  0.00  0.00    +0.000 NA
ENDBRANCH   8  11
ENDBRANCH   2   5
BRANCH   3  16
ATOM     16  C   UNL     1       3.557   5.757  18.086  0.00  0.00    +0.000 C 
BRANCH  16  17
ATOM     17  C   UNL     1       2.981   4.388  18.409  0.00  0.00    +0.000 A 
ATOM     18  C   UNL     1       1.628   4.121  18.147  0.00  0.00    +0.000 A 
ATOM     19  C   UNL     1       1.080   2.874  18.449  0.00  0.00    +0.000 A 
ATOM     20  C   UNL     1       1.874   1.882  19.019  0.00  0.00    +0.000 A 
ATOM     21  C   UNL     1       3.218   2.135  19.288  0.00  0.00    +0.000 A 
ATOM     22  C   UNL     1       3.769   3.379  18.984  0.00  0.00    +0.000 A 
ENDBRANCH  16  17
BRANCH  16  23
ATOM     23  C   UNL     1       5.096   5.742  18.219  0.00  0.00    +0.000 C 
BRANCH  23  24
ATOM     24  N   UNL     1       5.781   5.350  17.002  0.00  0.00    +0.000 N 
ATOM     25  C   UNL     1       5.309   5.463  15.725  0.00  0.00    +0.000 A 
ATOM     26  C   UNL     1       6.371   5.106  14.926  0.00  0.00    +0.000 A 
ATOM     27  N   UNL     1       7.436   4.695  15.687  0.00  0.00    +0.000 NA
ATOM     28  C   UNL     1       7.045   4.837  16.932  0.00  0.00    +0.000 A 
ENDBRANCH  23  24
ENDBRANCH  16  23
ENDBRANCH   3  16
TORSDOF 6
ENDMDL
MODEL 9
REMARK VINA RESULT:      -7.9      2.106      8.922
REMARK  Name = 
REMARK  6 active torsions:
REMARK  status: ('A' for Active; 'I' for Inactive)
REMARK    1  A    between atoms: C_2  and  C_17
REMARK    2  A    between atoms: N_3  and  C_4
REMARK    3  A    between atoms: C_4  and  C_5
REMARK    4  A    between atoms: C_4  and  C_11
REMARK    5  A    between atoms: C_5  and  N_6
REMARK    6  A    between atoms: C_20  and  N_21
REMARK                            x       y       z     vdW  Elec       q    Type
REMARK                         _______ _______ _______ _____ _____    ______ ____
ROOT
ATOM      1  O   UNL     1       1.179   7.741  20.731  0.00  0.00    +0.000 OA
ATOM      2  C   UNL     1       1.580   8.173  19.666  0.00  0.00    +0.000 C 
ATOM      3  N   UNL     1       1.163   9.371  19.105  0.00  0.00    +0.000 N 
ATOM      4  H   UNL     1       1.347   9.528  18.127  0.00  0.00    +0.000 HD
ENDROOT
BRANCH   2   5
ATOM      5  C   UNL     1       2.603   7.415  18.894  0.00  0.00    +0.000 A 
ATOM      6  C   UNL     1       3.129   6.221  19.400  0.00  0.00    +0.000 A 
ATOM      7  C   UNL     1       4.185   5.587  18.736  0.00  0.00    +0.000 A 
ATOM      8  C   UNL     1       4.737   6.163  17.582  0.00  0.00    +0.000 A 
ATOM      9  C   UNL     1       4.181   7.337  17.055  0.00  0.00    +0.000 A 
ATOM     10  C   UNL     1       3.113   7.954  17.709  0.00  0.00    +0.000 A 
BRANCH   8  11
ATOM     11  N   UNL     1       5.873   5.594  16.966  0.00  0.00    +0.000 N 
ATOM     12  C   UNL     1       6.806   4.744  17.498  0.00  0.00    +0.000 A 
ATOM     13  N   UNL     1       7.750   4.524  16.611  0.00  0.00    +0.000 NA
ATOM     14  N   UNL     1       7.375   5.225  15.493  0.00  0.00    +0.000 NA
ATOM     15  N   UNL     1       6.230   5.864  15.690  0.00  0.00    +0.000 NA
ENDBRANCH   8  11
ENDBRANCH   2   5
BRANCH   3  16
ATOM     16  C   UNL     1       0.123  10.166  19.755  0.00  0.00    +0.000 C 
BRANCH  16  17
ATOM     17  C   UNL     1      -1.002  10.431  18.768  0.00  0.00    +0.000 A 
ATOM     18  C   UNL     1      -1.976  11.398  19.064  0.00  0.00    +0.000 A 
ATOM     19  C   UNL     1      -3.022  11.645  18.175  0.00  0.00    +0.000 A 
ATOM     20  C   UNL     1      -3.110  10.930  16.983  0.00  0.00    +0.000 A 
ATOM     21  C   UNL     1      -2.151   9.966  16.678  0.00  0.00    +0.000 A 
ATOM     22  C   UNL     1      -1.103   9.718  17.563  0.00  0.00    +0.000 A 
ENDBRANCH  16  17
BRANCH  16  23
ATOM     23  C   UNL     1       0.651  11.493  20.344  0.00  0.00    +0.000 C 
BRANCH  23  24
ATOM     24  N   UNL     1      -0.046  11.912  21.546  0.00  0.00    +0.000 N 
ATOM     25  C   UNL     1      -0.320  13.194  21.928  0.00  0.00    +0.000 A 
ATOM     26  C   UNL     1      -1.121  13.066  23.040  0.00  0.00    +0.000 A 
ATOM     27  N   UNL     1      -1.260  11.747  23.388  0.00  0.00    +0.000 NA
ATOM     28  C   UNL     1      -0.588  11.077  22.480  0.00  0.00    +0.000 A 
ENDBRANCH  23  24
ENDBRANCH  16  23
ENDBRANCH   3  16
TORSDOF 6
ENDMDL
