MODEL 1
REMARK VINA RESULT:      -9.7      0.000      0.000
REMARK  Name = 
REMARK  6 active torsions:
REMARK  status: ('A' for Active; 'I' for Inactive)
REMARK    1  A    between atoms: C_6  and  C_7
REMARK    2  A    between atoms: N_9  and  C_10
REMARK    3  A    between atoms: C_10  and  C_11
REMARK    4  A    between atoms: C_10  and  C_15
REMARK    5  A    between atoms: N_13  and  O_14
REMARK    6  A    between atoms: C_18  and  C_19
REMARK                            x       y       z     vdW  Elec       q    Type
REMARK                         _______ _______ _______ _____ _____    ______ ____
ROOT
ATOM      1  C   UNL     1       0.848  10.079  20.310  0.00  0.00    +0.000 C 
ENDROOT
BRANCH   1   2
ATOM      2  C   UNL     1       1.596   8.988  19.562  0.00  0.00    +0.000 A 
ATOM      3  C   UNL     1       1.863   7.766  20.185  0.00  0.00    +0.000 A 
ATOM      4  C   UNL     1       2.584   6.766  19.518  0.00  0.00    +0.000 A 
ATOM      5  C   UNL     1       3.056   6.940  18.205  0.00  0.00    +0.000 A 
ATOM      6  C   UNL     1       2.757   8.163  17.581  0.00  0.00    +0.000 A 
ATOM      7  C   UNL     1       2.043   9.171  18.246  0.00  0.00    +0.000 A 
BRANCH   5   8
ATOM      8  C   UNL     1       3.854   5.886  17.531  0.00  0.00    +0.000 A 
ATOM      9  C   UNL     1       4.880   6.214  16.623  0.00  0.00    +0.000 A 
ATOM     10  C   UNL     1       5.590   5.223  15.942  0.00  0.00    +0.000 A 
ATOM     11  F   UNL     1       6.538   5.586  15.067  0.00  0.00    +0.000 F 
ATOM     12  C   UNL     1       5.318   3.883  16.159  0.00  0.00    +0.000 A 
ATOM     13  F   UNL     1       6.000   2.938  15.499  0.00  0.00    +0.000 F 
ATOM     14  C   UNL     1       4.330   3.535  17.064  0.00  0.00    +0.000 A 
ATOM     15  F   UNL     1       4.054   2.243  17.292  0.00  0.00    +0.000 F 
ATOM     16  C   UNL     1       3.601   4.516  17.741  0.00  0.00    +0.000 A 
ENDBRANCH   5   8
ENDBRANCH   1   2
BRANCH   1  19
ATOM     17  C   UNL     1      -0.819  11.330  18.966  0.00  0.00    +0.000 C 
ATOM     18  O   UNL     1      -0.014  12.204  18.662  0.00  0.00    +0.000 OA
ATOM     19  N   UNL     1      -0.496  10.264  19.771  0.00  0.00    +0.000 N 
ATOM     20  H   UNL     1      -1.143   9.498  19.912  0.00  0.00    +0.000 HD
BRANCH  17  26
ATOM     21  O   UNL     1      -7.915  12.896  18.241  0.00  0.00    +0.000 OA
ATOM     22  C   UNL     1      -6.750  12.541  18.226  0.00  0.00    +0.000 C 
ATOM     23  C   UNL     1      -5.647  12.953  19.212  0.00  0.00    +0.000 C 
ATOM     24  C   UNL     1      -4.456  12.209  18.682  0.00  0.00    +0.000 A 
ATOM     25  C   UNL     1      -3.152  12.169  19.148  0.00  0.00    +0.000 A 
ATOM     26  C   UNL     1      -2.218  11.383  18.450  0.00  0.00    +0.000 A 
ATOM     27  C   UNL     1      -2.622  10.638  17.316  0.00  0.00    +0.000 A 
ATOM     28  C   UNL     1      -3.947  10.687  16.859  0.00  0.00    +0.000 A 
ATOM     29  C   UNL     1      -4.831  11.478  17.559  0.00  0.00    +0.000 A 
ATOM     30  N   UNL     1      -6.177  11.677  17.298  0.00  0.00    +0.000 N 
ATOM     31  H   UNL     1      -6.706  11.265  16.544  0.00  0.00    +0.000 HD
ENDBRANCH  17  26
ENDBRANCH   1  19
BRANCH   1  32
ATOM     32  C   UNL     1       0.718   9.733  21.806  0.00  0.00    +0.000 C 
ATOM     33  O   UNL     1       1.690   9.629  22.562  0.00  0.00    +0.000 OA
ATOM     34  N   UNL     1      -0.573   9.591  22.263  0.00  0.00    +0.000 N 
ATOM     35  H   UNL     1      -1.345   9.337  21.654  0.00  0.00    +0.000 HD
BRANCH  34  36
ATOM     36  O   UNL     1      -0.701   9.212  23.620  0.00  0.00    +0.000 OA
ATOM     37  H   UNL     1      -1.236   9.945  24.000  0.00  0.00    +0.000 HD
ENDBRANCH  34  36
ENDBRANCH   1  32
TORSDOF 6
ENDMDL
MODEL 2
REMARK VINA RESULT:      -9.7      0.139      1.437
REMARK  Name = 
REMARK  6 active torsions:
REMARK  status: ('A' for Active; 'I' for Inactive)
REMARK    1  A    between atoms: C_6  and  C_7
REMARK    2  A    between atoms: N_9  and  C_10
REMARK    3  A    between atoms: C_10  and  C_11
REMARK    4  A    between atoms: C_10  and  C_15
REMARK    5  A    between atoms: N_13  and  O_14
REMARK    6  A    between atoms: C_18  and  C_19
REMARK                            x       y       z     vdW  Elec       q    Type
REMARK                         _______ _______ _______ _____ _____    ______ ____
ROOT
ATOM      1  C   UNL     1       0.846  10.074  20.214  0.00  0.00    +0.000 C 
ENDROOT
BRANCH   1   2
ATOM      2  C   UNL     1       1.588   8.984  19.459  0.00  0.00    +0.000 A 
ATOM      3  C   UNL     1       1.873   7.766  20.085  0.00  0.00    +0.000 A 
ATOM      4  C   UNL     1       2.589   6.767  19.411  0.00  0.00    +0.000 A 
ATOM      5  C   UNL     1       3.036   6.936  18.089  0.00  0.00    +0.000 A 
ATOM      6  C   UNL     1       2.719   8.154  17.464  0.00  0.00    +0.000 A 
ATOM      7  C   UNL     1       2.010   9.162  18.135  0.00  0.00    +0.000 A 
BRANCH   5   8
ATOM      8  C   UNL     1       3.828   5.884  17.407  0.00  0.00    +0.000 A 
ATOM      9  C   UNL     1       3.608   4.517  17.668  0.00  0.00    +0.000 A 
ATOM     10  C   UNL     1       4.393   3.528  17.072  0.00  0.00    +0.000 A 
ATOM     11  F   UNL     1       4.163   2.244  17.375  0.00  0.00    +0.000 F 
ATOM     12  C   UNL     1       5.402   3.866  16.187  0.00  0.00    +0.000 A 
ATOM     13  F   UNL     1       6.156   2.912  15.623  0.00  0.00    +0.000 F 
ATOM     14  C   UNL     1       5.624   5.201  15.895  0.00  0.00    +0.000 A 
ATOM     15  F   UNL     1       6.593   5.549  15.036  0.00  0.00    +0.000 F 
ATOM     16  C   UNL     1       4.855   6.202  16.495  0.00  0.00    +0.000 A 
ENDBRANCH   5   8
ENDBRANCH   1   2
BRANCH   1  19
ATOM     17  C   UNL     1      -0.798  11.403  18.917  0.00  0.00    +0.000 C 
ATOM     18  O   UNL     1       0.009  12.297  18.686  0.00  0.00    +0.000 OA
ATOM     19  N   UNL     1      -0.487  10.288  19.660  0.00  0.00    +0.000 N 
ATOM     20  H   UNL     1      -1.133   9.513  19.738  0.00  0.00    +0.000 HD
BRANCH  17  26
ATOM     21  O   UNL     1      -7.916  12.873  18.206  0.00  0.00    +0.000 OA
ATOM     22  C   UNL     1      -6.742  12.550  18.178  0.00  0.00    +0.000 C 
ATOM     23  C   UNL     1      -5.672  12.866  19.234  0.00  0.00    +0.000 C 
ATOM     24  C   UNL     1      -4.450  12.221  18.649  0.00  0.00    +0.000 A 
ATOM     25  C   UNL     1      -3.156  12.156  19.140  0.00  0.00    +0.000 A 
ATOM     26  C   UNL     1      -2.186  11.483  18.376  0.00  0.00    +0.000 A 
ATOM     27  C   UNL     1      -2.545  10.872  17.150  0.00  0.00    +0.000 A 
ATOM     28  C   UNL     1      -3.859  10.944  16.670  0.00  0.00    +0.000 A 
ATOM     29  C   UNL     1      -4.781  11.623  17.436  0.00  0.00    +0.000 A 
ATOM     30  N   UNL     1      -6.125  11.819  17.167  0.00  0.00    +0.000 N 
ATOM     31  H   UNL     1      -6.626  11.489  16.356  0.00  0.00    +0.000 HD
ENDBRANCH  17  26
ENDBRANCH   1  19
BRANCH   1  32
ATOM     32  C   UNL     1       0.689   9.707  21.703  0.00  0.00    +0.000 C 
ATOM     33  O   UNL     1       1.641   9.653  22.489  0.00  0.00    +0.000 OA
ATOM     34  N   UNL     1      -0.604   9.485  22.117  0.00  0.00    +0.000 N 
ATOM     35  H   UNL     1      -1.340   9.192  21.481  0.00  0.00    +0.000 HD
BRANCH  34  36
ATOM     36  O   UNL     1      -0.753   9.086  23.466  0.00  0.00    +0.000 OA
ATOM     37  H   UNL     1      -0.243   9.773  23.952  0.00  0.00    +0.000 HD
ENDBRANCH  34  36
ENDBRANCH   1  32
TORSDOF 6
ENDMDL
MODEL 3
REMARK VINA RESULT:      -9.6      2.986      4.031
REMARK  Name = 
REMARK  6 active torsions:
REMARK  status: ('A' for Active; 'I' for Inactive)
REMARK    1  A    between atoms: C_6  and  C_7
REMARK    2  A    between atoms: N_9  and  C_10
REMARK    3  A    between atoms: C_10  and  C_11
REMARK    4  A    between atoms: C_10  and  C_15
REMARK    5  A    between atoms: N_13  and  O_14
REMARK    6  A    between atoms: C_18  and  C_19
REMARK                            x       y       z     vdW  Elec       q    Type
REMARK                         _______ _______ _______ _____ _____    ______ ____
ROOT
ATOM      1  C   UNL     1       0.588  11.251  18.913  0.00  0.00    +0.000 C 
ENDROOT
BRANCH   1   2
ATOM      2  C   UNL     1       1.152   9.847  19.047  0.00  0.00    +0.000 A 
ATOM      3  C   UNL     1       1.077   9.174  20.271  0.00  0.00    +0.000 A 
ATOM      4  C   UNL     1       1.627   7.893  20.417  0.00  0.00    +0.000 A 
ATOM      5  C   UNL     1       2.259   7.230  19.351  0.00  0.00    +0.000 A 
ATOM      6  C   UNL     1       2.304   7.907  18.120  0.00  0.00    +0.000 A 
ATOM      7  C   UNL     1       1.763   9.192  17.970  0.00  0.00    +0.000 A 
BRANCH   5   8
ATOM      8  C   UNL     1       2.872   5.891  19.537  0.00  0.00    +0.000 A 
ATOM      9  C   UNL     1       4.127   5.577  18.978  0.00  0.00    +0.000 A 
ATOM     10  C   UNL     1       4.676   4.299  19.101  0.00  0.00    +0.000 A 
ATOM     11  F   UNL     1       5.859   4.042  18.527  0.00  0.00    +0.000 F 
ATOM     12  C   UNL     1       4.008   3.307  19.798  0.00  0.00    +0.000 A 
ATOM     13  F   UNL     1       4.539   2.082  19.907  0.00  0.00    +0.000 F 
ATOM     14  C   UNL     1       2.784   3.597  20.376  0.00  0.00    +0.000 A 
ATOM     15  F   UNL     1       2.124   2.652  21.060  0.00  0.00    +0.000 F 
ATOM     16  C   UNL     1       2.216   4.867  20.249  0.00  0.00    +0.000 A 
ENDBRANCH   5   8
ENDBRANCH   1   2
BRANCH   1  19
ATOM     17  C   UNL     1      -1.592  12.027  19.804  0.00  0.00    +0.000 C 
ATOM     18  O   UNL     1      -2.054  12.221  18.685  0.00  0.00    +0.000 OA
ATOM     19  N   UNL     1      -0.314  11.567  20.016  0.00  0.00    +0.000 N 
ATOM     20  H   UNL     1       0.003  11.306  20.941  0.00  0.00    +0.000 HD
BRANCH  17  26
ATOM     21  O   UNL     1      -7.160  13.834  24.171  0.00  0.00    +0.000 OA
ATOM     22  C   UNL     1      -6.146  13.503  23.583  0.00  0.00    +0.000 C 
ATOM     23  C   UNL     1      -5.941  13.438  22.062  0.00  0.00    +0.000 C 
ATOM     24  C   UNL     1      -4.519  12.969  21.955  0.00  0.00    +0.000 A 
ATOM     25  C   UNL     1      -3.746  12.721  20.832  0.00  0.00    +0.000 A 
ATOM     26  C   UNL     1      -2.425  12.277  21.017  0.00  0.00    +0.000 A 
ATOM     27  C   UNL     1      -1.906  12.116  22.324  0.00  0.00    +0.000 A 
ATOM     28  C   UNL     1      -2.700  12.375  23.450  0.00  0.00    +0.000 A 
ATOM     29  C   UNL     1      -3.994  12.794  23.231  0.00  0.00    +0.000 A 
ATOM     30  N   UNL     1      -4.952  13.109  24.180  0.00  0.00    +0.000 N 
ATOM     31  H   UNL     1      -4.836  13.072  25.182  0.00  0.00    +0.000 HD
ENDBRANCH  17  26
ENDBRANCH   1  19
BRANCH   1  32
ATOM     32  C   UNL     1       1.717  12.301  18.905  0.00  0.00    +0.000 C 
ATOM     33  O   UNL     1       2.158  12.825  19.933  0.00  0.00    +0.000 OA
ATOM     34  N   UNL     1       2.240  12.587  17.664  0.00  0.00    +0.000 N 
ATOM     35  H   UNL     1       1.716  12.457  16.805  0.00  0.00    +0.000 HD
BRANCH  34  36
ATOM     36  O   UNL     1       3.234  13.595  17.639  0.00  0.00    +0.000 OA
ATOM     37  H   UNL     1       3.028  14.122  18.443  0.00  0.00    +0.000 HD
ENDBRANCH  34  36
ENDBRANCH   1  32
TORSDOF 6
ENDMDL
MODEL 4
REMARK VINA RESULT:      -9.6      3.006      4.253
REMARK  Name = 
REMARK  6 active torsions:
REMARK  status: ('A' for Active; 'I' for Inactive)
REMARK    1  A    between atoms: C_6  and  C_7
REMARK    2  A    between atoms: N_9  and  C_10
REMARK    3  A    between atoms: C_10  and  C_11
REMARK    4  A    between atoms: C_10  and  C_15
REMARK    5  A    between atoms: N_13  and  O_14
REMARK    6  A    between atoms: C_18  and  C_19
REMARK                            x       y       z     vdW  Elec       q    Type
REMARK                         _______ _______ _______ _____ _____    ______ ____
ROOT
ATOM      1  C   UNL     1       0.602  11.237  18.945  0.00  0.00    +0.000 C 
ENDROOT
BRANCH   1   2
ATOM      2  C   UNL     1       1.158   9.826  19.046  0.00  0.00    +0.000 A 
ATOM      3  C   UNL     1       1.134   9.148  20.268  0.00  0.00    +0.000 A 
ATOM      4  C   UNL     1       1.678   7.861  20.382  0.00  0.00    +0.000 A 
ATOM      5  C   UNL     1       2.255   7.199  19.285  0.00  0.00    +0.000 A 
ATOM      6  C   UNL     1       2.249   7.882  18.057  0.00  0.00    +0.000 A 
ATOM      7  C   UNL     1       1.713   9.173  17.938  0.00  0.00    +0.000 A 
BRANCH   5   8
ATOM      8  C   UNL     1       2.864   5.854  19.435  0.00  0.00    +0.000 A 
ATOM      9  C   UNL     1       2.190   4.817  20.111  0.00  0.00    +0.000 A 
ATOM     10  C   UNL     1       2.787   3.570  20.305  0.00  0.00    +0.000 A 
ATOM     11  F   UNL     1       2.118   2.626  20.980  0.00  0.00    +0.000 F 
ATOM     12  C   UNL     1       4.056   3.310  19.816  0.00  0.00    +0.000 A 
ATOM     13  F   UNL     1       4.625   2.113  20.010  0.00  0.00    +0.000 F 
ATOM     14  C   UNL     1       4.729   4.305  19.127  0.00  0.00    +0.000 A 
ATOM     15  F   UNL     1       5.957   4.072  18.641  0.00  0.00    +0.000 F 
ATOM     16  C   UNL     1       4.150   5.562  18.938  0.00  0.00    +0.000 A 
ENDBRANCH   5   8
ENDBRANCH   1   2
BRANCH   1  19
ATOM     17  C   UNL     1      -1.549  12.066  19.859  0.00  0.00    +0.000 C 
ATOM     18  O   UNL     1      -1.987  12.349  18.749  0.00  0.00    +0.000 OA
ATOM     19  N   UNL     1      -0.298  11.531  20.056  0.00  0.00    +0.000 N 
ATOM     20  H   UNL     1      -0.007  11.200  20.967  0.00  0.00    +0.000 HD
BRANCH  17  26
ATOM     21  O   UNL     1      -7.168  13.633  24.253  0.00  0.00    +0.000 OA
ATOM     22  C   UNL     1      -6.144  13.347  23.660  0.00  0.00    +0.000 C 
ATOM     23  C   UNL     1      -5.946  13.281  22.138  0.00  0.00    +0.000 C 
ATOM     24  C   UNL     1      -4.504  12.881  22.024  0.00  0.00    +0.000 A 
ATOM     25  C   UNL     1      -3.728  12.662  20.897  0.00  0.00    +0.000 A 
ATOM     26  C   UNL     1      -2.385  12.285  21.076  0.00  0.00    +0.000 A 
ATOM     27  C   UNL     1      -1.849  12.160  22.380  0.00  0.00    +0.000 A 
ATOM     28  C   UNL     1      -2.647  12.388  23.510  0.00  0.00    +0.000 A 
ATOM     29  C   UNL     1      -3.962  12.742  23.298  0.00  0.00    +0.000 A 
ATOM     30  N   UNL     1      -4.928  13.017  24.252  0.00  0.00    +0.000 N 
ATOM     31  H   UNL     1      -4.803  12.994  25.252  0.00  0.00    +0.000 HD
ENDBRANCH  17  26
ENDBRANCH   1  19
BRANCH   1  32
ATOM     32  C   UNL     1       1.735  12.281  18.961  0.00  0.00    +0.000 C 
ATOM     33  O   UNL     1       2.155  12.805  19.998  0.00  0.00    +0.000 OA
ATOM     34  N   UNL     1       2.290  12.561  17.733  0.00  0.00    +0.000 N 
ATOM     35  H   UNL     1       1.786  12.430  16.861  0.00  0.00    +0.000 HD
BRANCH  34  36
ATOM     36  O   UNL     1       3.289  13.563  17.729  0.00  0.00    +0.000 OA
ATOM     37  H   UNL     1       4.049  13.109  17.301  0.00  0.00    +0.000 HD
ENDBRANCH  34  36
ENDBRANCH   1  32
TORSDOF 6
ENDMDL
MODEL 5
REMARK VINA RESULT:      -9.5      4.244      6.656
REMARK  Name = 
REMARK  6 active torsions:
REMARK  status: ('A' for Active; 'I' for Inactive)
REMARK    1  A    between atoms: C_6  and  C_7
REMARK    2  A    between atoms: N_9  and  C_10
REMARK    3  A    between atoms: C_10  and  C_11
REMARK    4  A    between atoms: C_10  and  C_15
REMARK    5  A    between atoms: N_13  and  O_14
REMARK    6  A    between atoms: C_18  and  C_19
REMARK                            x       y       z     vdW  Elec       q    Type
REMARK                         _______ _______ _______ _____ _____    ______ ____
ROOT
ATOM      1  C   UNL     1       0.118  10.956  19.449  0.00  0.00    +0.000 C 
ENDROOT
BRANCH   1   2
ATOM      2  C   UNL     1       0.864   9.634  19.503  0.00  0.00    +0.000 A 
ATOM      3  C   UNL     1       1.495   9.136  18.360  0.00  0.00    +0.000 A 
ATOM      4  C   UNL     1       2.155   7.900  18.388  0.00  0.00    +0.000 A 
ATOM      5  C   UNL     1       2.221   7.119  19.556  0.00  0.00    +0.000 A 
ATOM      6  C   UNL     1       1.605   7.644  20.705  0.00  0.00    +0.000 A 
ATOM      7  C   UNL     1       0.936   8.877  20.680  0.00  0.00    +0.000 A 
BRANCH   5   8
ATOM      8  C   UNL     1       2.888   5.794  19.555  0.00  0.00    +0.000 A 
ATOM      9  C   UNL     1       2.244   4.651  20.071  0.00  0.00    +0.000 A 
ATOM     10  C   UNL     1       2.894   3.416  20.126  0.00  0.00    +0.000 A 
ATOM     11  F   UNL     1       2.249   2.365  20.652  0.00  0.00    +0.000 F 
ATOM     12  C   UNL     1       4.188   3.276  19.654  0.00  0.00    +0.000 A 
ATOM     13  F   UNL     1       4.806   2.089  19.715  0.00  0.00    +0.000 F 
ATOM     14  C   UNL     1       4.833   4.379  19.121  0.00  0.00    +0.000 A 
ATOM     15  F   UNL     1       6.084   4.263  18.653  0.00  0.00    +0.000 F 
ATOM     16  C   UNL     1       4.201   5.624  19.072  0.00  0.00    +0.000 A 
ENDBRANCH   5   8
ENDBRANCH   1   2
BRANCH   1  19
ATOM     17  C   UNL     1       1.734  12.740  20.047  0.00  0.00    +0.000 C 
ATOM     18  O   UNL     1       1.663  12.492  21.246  0.00  0.00    +0.000 OA
ATOM     19  N   UNL     1       1.013  12.054  19.098  0.00  0.00    +0.000 N 
ATOM     20  H   UNL     1       1.177  12.199  18.110  0.00  0.00    +0.000 HD
BRANCH  17  26
ATOM     21  O   UNL     1       6.570  18.208  19.827  0.00  0.00    +0.000 OA
ATOM     22  C   UNL     1       5.755  17.312  19.699  0.00  0.00    +0.000 C 
ATOM     23  C   UNL     1       5.153  16.444  20.813  0.00  0.00    +0.000 C 
ATOM     24  C   UNL     1       4.235  15.536  20.048  0.00  0.00    +0.000 A 
ATOM     25  C   UNL     1       3.402  14.526  20.499  0.00  0.00    +0.000 A 
ATOM     26  C   UNL     1       2.642  13.816  19.553  0.00  0.00    +0.000 A 
ATOM     27  C   UNL     1       2.719  14.155  18.181  0.00  0.00    +0.000 A 
ATOM     28  C   UNL     1       3.564  15.183  17.741  0.00  0.00    +0.000 A 
ATOM     29  C   UNL     1       4.305  15.847  18.693  0.00  0.00    +0.000 A 
ATOM     30  N   UNL     1       5.197  16.889  18.496  0.00  0.00    +0.000 N 
ATOM     31  H   UNL     1       5.435  17.312  17.611  0.00  0.00    +0.000 HD
ENDBRANCH  17  26
ENDBRANCH   1  19
BRANCH   1  32
ATOM     32  C   UNL     1      -1.012  10.910  18.401  0.00  0.00    +0.000 C 
ATOM     33  O   UNL     1      -1.873  10.024  18.376  0.00  0.00    +0.000 OA
ATOM     34  N   UNL     1      -1.027  11.960  17.511  0.00  0.00    +0.000 N 
ATOM     35  H   UNL     1      -0.195  12.495  17.281  0.00  0.00    +0.000 HD
BRANCH  34  36
ATOM     36  O   UNL     1      -2.022  11.895  16.508  0.00  0.00    +0.000 OA
ATOM     37  H   UNL     1      -2.661  11.246  16.878  0.00  0.00    +0.000 HD
ENDBRANCH  34  36
ENDBRANCH   1  32
TORSDOF 6
ENDMDL
MODEL 6
REMARK VINA RESULT:      -9.5      4.322      6.603
REMARK  Name = 
REMARK  6 active torsions:
REMARK  status: ('A' for Active; 'I' for Inactive)
REMARK    1  A    between atoms: C_6  and  C_7
REMARK    2  A    between atoms: N_9  and  C_10
REMARK    3  A    between atoms: C_10  and  C_11
REMARK    4  A    between atoms: C_10  and  C_15
REMARK    5  A    between atoms: N_13  and  O_14
REMARK    6  A    between atoms: C_18  and  C_19
REMARK                            x       y       z     vdW  Elec       q    Type
REMARK                         _______ _______ _______ _____ _____    ______ ____
ROOT
ATOM      1  C   UNL     1       0.261  11.030  19.554  0.00  0.00    +0.000 C 
ENDROOT
BRANCH   1   2
ATOM      2  C   UNL     1       0.953   9.680  19.632  0.00  0.00    +0.000 A 
ATOM      3  C   UNL     1       1.656   9.186  18.529  0.00  0.00    +0.000 A 
ATOM      4  C   UNL     1       2.267   7.926  18.577  0.00  0.00    +0.000 A 
ATOM      5  C   UNL     1       2.212   7.117  19.725  0.00  0.00    +0.000 A 
ATOM      6  C   UNL     1       1.525   7.637  20.835  0.00  0.00    +0.000 A 
ATOM      7  C   UNL     1       0.904   8.894  20.791  0.00  0.00    +0.000 A 
BRANCH   5   8
ATOM      8  C   UNL     1       2.830   5.768  19.742  0.00  0.00    +0.000 A 
ATOM      9  C   UNL     1       4.101   5.537  19.181  0.00  0.00    +0.000 A 
ATOM     10  C   UNL     1       4.656   4.257  19.143  0.00  0.00    +0.000 A 
ATOM     11  F   UNL     1       5.856   4.085  18.572  0.00  0.00    +0.000 F 
ATOM     12  C   UNL     1       3.977   3.176  19.679  0.00  0.00    +0.000 A 
ATOM     13  F   UNL     1       4.514   1.949  19.634  0.00  0.00    +0.000 F 
ATOM     14  C   UNL     1       2.736   3.380  20.258  0.00  0.00    +0.000 A 
ATOM     15  F   UNL     1       2.065   2.347  20.787  0.00  0.00    +0.000 F 
ATOM     16  C   UNL     1       2.162   4.654  20.290  0.00  0.00    +0.000 A 
ENDBRANCH   5   8
ENDBRANCH   1   2
BRANCH   1  19
ATOM     17  C   UNL     1       1.772  12.911  20.132  0.00  0.00    +0.000 C 
ATOM     18  O   UNL     1       1.520  12.830  21.329  0.00  0.00    +0.000 OA
ATOM     19  N   UNL     1       1.200  12.087  19.191  0.00  0.00    +0.000 N 
ATOM     20  H   UNL     1       1.511  12.096  18.228  0.00  0.00    +0.000 HD
BRANCH  17  26
ATOM     21  O   UNL     1       6.690  18.303  19.887  0.00  0.00    +0.000 OA
ATOM     22  C   UNL     1       5.880  17.402  19.762  0.00  0.00    +0.000 C 
ATOM     23  C   UNL     1       5.146  16.658  20.887  0.00  0.00    +0.000 C 
ATOM     24  C   UNL     1       4.303  15.680  20.122  0.00  0.00    +0.000 A 
ATOM     25  C   UNL     1       3.409  14.726  20.580  0.00  0.00    +0.000 A 
ATOM     26  C   UNL     1       2.745  13.926  19.633  0.00  0.00    +0.000 A 
ATOM     27  C   UNL     1       2.978  14.119  18.250  0.00  0.00    +0.000 A 
ATOM     28  C   UNL     1       3.882  15.092  17.803  0.00  0.00    +0.000 A 
ATOM     29  C   UNL     1       4.526  15.848  18.758  0.00  0.00    +0.000 A 
ATOM     30  N   UNL     1       5.450  16.859  18.555  0.00  0.00    +0.000 N 
ATOM     31  H   UNL     1       5.790  17.187  17.663  0.00  0.00    +0.000 HD
ENDBRANCH  17  26
ENDBRANCH   1  19
BRANCH   1  32
ATOM     32  C   UNL     1      -0.866  11.014  18.502  0.00  0.00    +0.000 C 
ATOM     33  O   UNL     1      -1.673  10.084  18.392  0.00  0.00    +0.000 OA
ATOM     34  N   UNL     1      -0.944  12.138  17.712  0.00  0.00    +0.000 N 
ATOM     35  H   UNL     1      -0.146  12.740  17.534  0.00  0.00    +0.000 HD
BRANCH  34  36
ATOM     36  O   UNL     1      -1.936  12.106  16.703  0.00  0.00    +0.000 OA
ATOM     37  H   UNL     1      -2.635  11.543  17.103  0.00  0.00    +0.000 HD
ENDBRANCH  34  36
ENDBRANCH   1  32
TORSDOF 6
ENDMDL
MODEL 7
REMARK VINA RESULT:      -9.5      0.715      1.828
REMARK  Name = 
REMARK  6 active torsions:
REMARK  status: ('A' for Active; 'I' for Inactive)
REMARK    1  A    between atoms: C_6  and  C_7
REMARK    2  A    between atoms: N_9  and  C_10
REMARK    3  A    between atoms: C_10  and  C_11
REMARK    4  A    between atoms: C_10  and  C_15
REMARK    5  A    between atoms: N_13  and  O_14
REMARK    6  A    between atoms: C_18  and  C_19
REMARK                            x       y       z     vdW  Elec       q    Type
REMARK                         _______ _______ _______ _____ _____    ______ ____
ROOT
ATOM      1  C   UNL     1       0.462   9.745  20.554  0.00  0.00    +0.000 C 
ENDROOT
BRANCH   1   2
ATOM      2  C   UNL     1       1.335   8.751  19.808  0.00  0.00    +0.000 A 
ATOM      3  C   UNL     1       1.748   9.023  18.500  0.00  0.00    +0.000 A 
ATOM      4  C   UNL     1       2.523   8.097  17.788  0.00  0.00    +0.000 A 
ATOM      5  C   UNL     1       2.924   6.874  18.353  0.00  0.00    +0.000 A 
ATOM      6  C   UNL     1       2.523   6.625  19.677  0.00  0.00    +0.000 A 
ATOM      7  C   UNL     1       1.741   7.544  20.392  0.00  0.00    +0.000 A 
BRANCH   5   8
ATOM      8  C   UNL     1       3.708   5.888  17.569  0.00  0.00    +0.000 A 
ATOM      9  C   UNL     1       3.563   4.502  17.781  0.00  0.00    +0.000 A 
ATOM     10  C   UNL     1       4.344   3.577  17.087  0.00  0.00    +0.000 A 
ATOM     11  F   UNL     1       4.189   2.271  17.345  0.00  0.00    +0.000 F 
ATOM     12  C   UNL     1       5.273   3.997  16.151  0.00  0.00    +0.000 A 
ATOM     13  F   UNL     1       6.023   3.103  15.492  0.00  0.00    +0.000 F 
ATOM     14  C   UNL     1       5.418   5.352  15.907  0.00  0.00    +0.000 A 
ATOM     15  F   UNL     1       6.309   5.779  15.000  0.00  0.00    +0.000 F 
ATOM     16  C   UNL     1       4.654   6.291  16.605  0.00  0.00    +0.000 A 
ENDBRANCH   5   8
ENDBRANCH   1   2
BRANCH   1  19
ATOM     17  C   UNL     1      -1.198  11.348  19.643  0.00  0.00    +0.000 C 
ATOM     18  O   UNL     1      -0.630  12.316  20.137  0.00  0.00    +0.000 OA
ATOM     19  N   UNL     1      -0.748  10.058  19.800  0.00  0.00    +0.000 N 
ATOM     20  H   UNL     1      -1.167   9.291  19.288  0.00  0.00    +0.000 HD
BRANCH  17  26
ATOM     21  O   UNL     1      -7.916  13.238  17.493  0.00  0.00    +0.000 OA
ATOM     22  C   UNL     1      -6.779  12.855  17.700  0.00  0.00    +0.000 C 
ATOM     23  C   UNL     1      -5.960  13.049  18.985  0.00  0.00    +0.000 C 
ATOM     24  C   UNL     1      -4.664  12.375  18.638  0.00  0.00    +0.000 A 
ATOM     25  C   UNL     1      -3.515  12.212  19.395  0.00  0.00    +0.000 A 
ATOM     26  C   UNL     1      -2.426  11.536  18.817  0.00  0.00    +0.000 A 
ATOM     27  C   UNL     1      -2.526  11.020  17.502  0.00  0.00    +0.000 A 
ATOM     28  C   UNL     1      -3.697  11.191  16.751  0.00  0.00    +0.000 A 
ATOM     29  C   UNL     1      -4.739  11.871  17.343  0.00  0.00    +0.000 A 
ATOM     30  N   UNL     1      -5.981  12.155  16.800  0.00  0.00    +0.000 N 
ATOM     31  H   UNL     1      -6.301  11.902  15.877  0.00  0.00    +0.000 HD
ENDBRANCH  17  26
ENDBRANCH   1  19
BRANCH   1  32
ATOM     32  C   UNL     1       0.036   9.186  21.926  0.00  0.00    +0.000 C 
ATOM     33  O   UNL     1      -0.798   8.284  22.057  0.00  0.00    +0.000 OA
ATOM     34  N   UNL     1       0.688   9.732  23.008  0.00  0.00    +0.000 N 
ATOM     35  H   UNL     1       1.102  10.659  22.988  0.00  0.00    +0.000 HD
BRANCH  34  36
ATOM     36  O   UNL     1       0.260   9.269  24.275  0.00  0.00    +0.000 OA
ATOM     37  H   UNL     1      -0.562   8.775  24.059  0.00  0.00    +0.000 HD
ENDBRANCH  34  36
ENDBRANCH   1  32
TORSDOF 6
ENDMDL
MODEL 8
REMARK VINA RESULT:      -9.4      0.684      1.119
REMARK  Name = 
REMARK  6 active torsions:
REMARK  status: ('A' for Active; 'I' for Inactive)
REMARK    1  A    between atoms: C_6  and  C_7
REMARK    2  A    between atoms: N_9  and  C_10
REMARK    3  A    between atoms: C_10  and  C_11
REMARK    4  A    between atoms: C_10  and  C_15
REMARK    5  A    between atoms: N_13  and  O_14
REMARK    6  A    between atoms: C_18  and  C_19
REMARK                            x       y       z     vdW  Elec       q    Type
REMARK                         _______ _______ _______ _____ _____    ______ ____
ROOT
ATOM      1  C   UNL     1       0.449   9.732  20.615  0.00  0.00    +0.000 C 
ENDROOT
BRANCH   1   2
ATOM      2  C   UNL     1       1.330   8.743  19.871  0.00  0.00    +0.000 A 
ATOM      3  C   UNL     1       1.748   9.017  18.566  0.00  0.00    +0.000 A 
ATOM      4  C   UNL     1       2.530   8.096  17.857  0.00  0.00    +0.000 A 
ATOM      5  C   UNL     1       2.935   6.874  18.423  0.00  0.00    +0.000 A 
ATOM      6  C   UNL     1       2.530   6.623  19.745  0.00  0.00    +0.000 A 
ATOM      7  C   UNL     1       1.740   7.537  20.457  0.00  0.00    +0.000 A 
BRANCH   5   8
ATOM      8  C   UNL     1       3.728   5.893  17.642  0.00  0.00    +0.000 A 
ATOM      9  C   UNL     1       4.634   6.310  16.646  0.00  0.00    +0.000 A 
ATOM     10  C   UNL     1       5.335   5.385  15.870  0.00  0.00    +0.000 A 
ATOM     11  F   UNL     1       6.164   5.832  14.917  0.00  0.00    +0.000 F 
ATOM     12  C   UNL     1       5.174   4.025  16.073  0.00  0.00    +0.000 A 
ATOM     13  F   UNL     1       5.846   3.144  15.321  0.00  0.00    +0.000 F 
ATOM     14  C   UNL     1       4.307   3.590  17.061  0.00  0.00    +0.000 A 
ATOM     15  F   UNL     1       4.141   2.277  17.277  0.00  0.00    +0.000 F 
ATOM     16  C   UNL     1       3.588   4.504  17.836  0.00  0.00    +0.000 A 
ENDBRANCH   5   8
ENDBRANCH   1   2
BRANCH   1  19
ATOM     17  C   UNL     1      -0.927  11.210  19.175  0.00  0.00    +0.000 C 
ATOM     18  O   UNL     1      -0.080  12.096  19.164  0.00  0.00    +0.000 OA
ATOM     19  N   UNL     1      -0.765  10.029  19.861  0.00  0.00    +0.000 N 
ATOM     20  H   UNL     1      -1.426   9.270  19.760  0.00  0.00    +0.000 HD
BRANCH  17  26
ATOM     21  O   UNL     1      -7.808  12.894  17.400  0.00  0.00    +0.000 OA
ATOM     22  C   UNL     1      -6.648  12.551  17.542  0.00  0.00    +0.000 C 
ATOM     23  C   UNL     1      -5.778  12.735  18.794  0.00  0.00    +0.000 C 
ATOM     24  C   UNL     1      -4.474  12.127  18.365  0.00  0.00    +0.000 A 
ATOM     25  C   UNL     1      -3.286  11.986  19.064  0.00  0.00    +0.000 A 
ATOM     26  C   UNL     1      -2.200  11.375  18.413  0.00  0.00    +0.000 A 
ATOM     27  C   UNL     1      -2.340  10.901  17.086  0.00  0.00    +0.000 A 
ATOM     28  C   UNL     1      -3.551  11.049  16.395  0.00  0.00    +0.000 A 
ATOM     29  C   UNL     1      -4.590  11.665  17.058  0.00  0.00    +0.000 A 
ATOM     30  N   UNL     1      -5.866  11.916  16.582  0.00  0.00    +0.000 N 
ATOM     31  H   UNL     1      -6.218  11.682  15.666  0.00  0.00    +0.000 HD
ENDBRANCH  17  26
ENDBRANCH   1  19
BRANCH   1  32
ATOM     32  C   UNL     1       0.030   9.174  21.990  0.00  0.00    +0.000 C 
ATOM     33  O   UNL     1      -0.804   8.273  22.127  0.00  0.00    +0.000 OA
ATOM     34  N   UNL     1       0.690   9.721  23.067  0.00  0.00    +0.000 N 
ATOM     35  H   UNL     1       1.104  10.647  23.044  0.00  0.00    +0.000 HD
BRANCH  34  36
ATOM     36  O   UNL     1       0.269   9.260  24.337  0.00  0.00    +0.000 OA
ATOM     37  H   UNL     1       1.030   8.711  24.632  0.00  0.00    +0.000 HD
ENDBRANCH  34  36
ENDBRANCH   1  32
TORSDOF 6
ENDMDL
MODEL 9
REMARK VINA RESULT:      -9.4      2.764      4.121
REMARK  Name = 
REMARK  6 active torsions:
REMARK  status: ('A' for Active; 'I' for Inactive)
REMARK    1  A    between atoms: C_6  and  C_7
REMARK    2  A    between atoms: N_9  and  C_10
REMARK    3  A    between atoms: C_10  and  C_11
REMARK    4  A    between atoms: C_10  and  C_15
REMARK    5  A    between atoms: N_13  and  O_14
REMARK    6  A    between atoms: C_18  and  C_19
REMARK                            x       y       z     vdW  Elec       q    Type
REMARK                         _______ _______ _______ _____ _____    ______ ____
ROOT
ATOM      1  C   UNL     1       0.707  11.329  18.356  0.00  0.00    +0.000 C 
ENDROOT
BRANCH   1   2
ATOM      2  C   UNL     1       1.210   9.949  18.744  0.00  0.00    +0.000 A 
ATOM      3  C   UNL     1       1.877   9.155  17.806  0.00  0.00    +0.000 A 
ATOM      4  C   UNL     1       2.312   7.866  18.141  0.00  0.00    +0.000 A 
ATOM      5  C   UNL     1       2.111   7.324  19.422  0.00  0.00    +0.000 A 
ATOM      6  C   UNL     1       1.462   8.142  20.363  0.00  0.00    +0.000 A 
ATOM      7  C   UNL     1       1.017   9.430  20.031  0.00  0.00    +0.000 A 
BRANCH   5   8
ATOM      8  C   UNL     1       2.541   5.941  19.746  0.00  0.00    +0.000 A 
ATOM      9  C   UNL     1       1.809   5.137  20.642  0.00  0.00    +0.000 A 
ATOM     10  C   UNL     1       2.247   3.859  20.993  0.00  0.00    +0.000 A 
ATOM     11  F   UNL     1       1.530   3.145  21.872  0.00  0.00    +0.000 F 
ATOM     12  C   UNL     1       3.408   3.335  20.451  0.00  0.00    +0.000 A 
ATOM     13  F   UNL     1       3.824   2.109  20.796  0.00  0.00    +0.000 F 
ATOM     14  C   UNL     1       4.133   4.096  19.550  0.00  0.00    +0.000 A 
ATOM     15  F   UNL     1       5.257   3.605  19.009  0.00  0.00    +0.000 F 
ATOM     16  C   UNL     1       3.715   5.383  19.200  0.00  0.00    +0.000 A 
ENDBRANCH   5   8
ENDBRANCH   1   2
BRANCH   1  19
ATOM     17  C   UNL     1      -1.733  11.769  18.428  0.00  0.00    +0.000 C 
ATOM     18  O   UNL     1      -1.863  11.608  17.219  0.00  0.00    +0.000 OA
ATOM     19  N   UNL     1      -0.521  11.665  19.070  0.00  0.00    +0.000 N 
ATOM     20  H   UNL     1      -0.459  11.688  20.080  0.00  0.00    +0.000 HD
BRANCH  17  26
ATOM     21  O   UNL     1      -5.922  13.721  24.083  0.00  0.00    +0.000 OA
ATOM     22  C   UNL     1      -5.366  13.369  23.058  0.00  0.00    +0.000 C 
ATOM     23  C   UNL     1      -3.853  13.288  22.810  0.00  0.00    +0.000 C 
ATOM     24  C   UNL     1      -3.790  12.801  21.392  0.00  0.00    +0.000 A 
ATOM     25  C   UNL     1      -2.692  12.525  20.593  0.00  0.00    +0.000 A 
ATOM     26  C   UNL     1      -2.919  12.081  19.279  0.00  0.00    +0.000 A 
ATOM     27  C   UNL     1      -4.241  11.903  18.807  0.00  0.00    +0.000 A 
ATOM     28  C   UNL     1      -5.341  12.183  19.629  0.00  0.00    +0.000 A 
ATOM     29  C   UNL     1      -5.083  12.630  20.906  0.00  0.00    +0.000 A 
ATOM     30  N   UNL     1      -6.001  12.964  21.888  0.00  0.00    +0.000 N 
ATOM     31  H   UNL     1      -7.006  12.929  21.802  0.00  0.00    +0.000 HD
ENDBRANCH  17  26
ENDBRANCH   1  19
BRANCH   1  32
ATOM     32  C   UNL     1       1.757  12.411  18.681  0.00  0.00    +0.000 C 
ATOM     33  O   UNL     1       1.846  12.954  19.787  0.00  0.00    +0.000 OA
ATOM     34  N   UNL     1       2.630  12.703  17.658  0.00  0.00    +0.000 N 
ATOM     35  H   UNL     1       2.400  12.552  16.680  0.00  0.00    +0.000 HD
BRANCH  34  36
ATOM     36  O   UNL     1       3.557  13.738  17.925  0.00  0.00    +0.000 OA
ATOM     37  H   UNL     1       3.044  14.345  18.503  0.00  0.00    +0.000 HD
ENDBRANCH  34  36
ENDBRANCH   1  32
TORSDOF 6
ENDMDL
