MODEL 1
REMARK VINA RESULT:      -8.1      0.000      0.000
REMARK  Name = 
REMARK  13 active torsions:
REMARK  status: ('A' for Active; 'I' for Inactive)
REMARK    1  A    between atoms: C_1  and  C_2
REMARK    2  A    between atoms: C_2  and  C_3
REMARK    3  A    between atoms: C_7  and  C_8
REMARK    4  A    between atoms: C_8  and  C_9
REMARK    5  A    between atoms: C_9  and  O_10
REMARK    6  A    between atoms: O_10  and  C_11
REMARK    7  A    between atoms: C_11  and  C_13
REMARK    8  A    between atoms: C_13  and  C_14
REMARK    9  A    between atoms: C_17  and  O_18
REMARK   10  A    between atoms: O_18  and  C_19
REMARK   11  A    between atoms: C_19  and  C_20
REMARK   12  A    between atoms: C_21  and  S_22
REMARK   13  A    between atoms: S_22  and  C_25
REMARK                            x       y       z     vdW  Elec       q    Type
REMARK                         _______ _______ _______ _____ _____    ______ ____
ROOT
ATOM      1  C   UNL     1       1.353   4.695  19.754  0.00  0.00    +0.000 A 
ATOM      2  C   UNL     1       1.589   5.635  20.756  0.00  0.00    +0.000 A 
ATOM      3  C   UNL     1       1.973   6.938  20.436  0.00  0.00    +0.000 A 
ATOM      4  C   UNL     1       2.118   7.325  19.093  0.00  0.00    +0.000 A 
ATOM      5  C   UNL     1       1.934   6.379  18.089  0.00  0.00    +0.000 A 
ATOM      6  C   UNL     1       1.568   5.079  18.425  0.00  0.00    +0.000 A 
ATOM      7  F   UNL     1       1.440   4.178  17.442  0.00  0.00    +0.000 F 
ENDROOT
BRANCH   1   8
ATOM      8  C   UNL     1       0.905   3.285  20.088  0.00  0.00    +0.000 C 
BRANCH   8   9
ATOM      9  C   UNL     1       1.852   2.184  19.687  0.00  0.00    +0.000 C 
ATOM     10  O   UNL     1       1.620   1.398  18.768  0.00  0.00    +0.000 OA
BRANCH   9  11
ATOM     11  O   UNL     1       3.030   2.256  20.349  0.00  0.00    +0.000 OA
BRANCH  11  12
ATOM     12  C   UNL     1       4.164   2.372  19.485  0.00  0.00    +0.000 C 
BRANCH  12  13
ATOM     13  C   UNL     1       4.699   3.802  19.586  0.00  0.00    +0.000 C 
BRANCH  13  20
ATOM     14  C   UNL     1       7.904   4.662  17.344  0.00  0.00    +0.000 C 
ATOM     15  C   UNL     1       6.919   5.836  17.248  0.00  0.00    +0.000 C 
ATOM     16  C   UNL     1       7.735   7.136  17.368  0.00  0.00    +0.000 C 
ATOM     17  C   UNL     1       5.846   5.820  16.073  0.00  0.00    +0.000 C 
ATOM     18  C   UNL     1       5.231   4.440  15.763  0.00  0.00    +0.000 C 
ATOM     19  C   UNL     1       4.828   3.766  17.060  0.00  0.00    +0.000 C 
ATOM     20  C   UNL     1       5.014   4.385  18.245  0.00  0.00    +0.000 C 
ATOM     21  C   UNL     1       5.625   5.766  18.168  0.00  0.00    +0.000 C 
ATOM     22  C   UNL     1       4.912   6.607  17.052  0.00  0.00    +0.000 C 
ENDBRANCH  13  20
ENDBRANCH  12  13
ENDBRANCH  11  12
ENDBRANCH   9  11
ENDBRANCH   8   9
ENDBRANCH   1   8
BRANCH   4  23
ATOM     23  O   UNL     1       2.478   8.627  18.882  0.00  0.00    +0.000 OA
BRANCH  23  24
ATOM     24  C   UNL     1       1.813   9.279  17.792  0.00  0.00    +0.000 C 
BRANCH  24  25
ATOM     25  C   UNL     1       0.980  10.424  18.296  0.00  0.00    +0.000 C 
ATOM     26  C   UNL     1      -0.200  10.302  18.935  0.00  0.00    +0.000 C 
BRANCH  26  27
ATOM     27  S   UNL     1      -1.057  11.729  19.429  0.00  0.00    +0.000 S 
ATOM     28  O   UNL     1      -1.404  11.614  20.827  0.00  0.00    +0.000 OA
ATOM     29  O   UNL     1      -0.348  12.893  18.936  0.00  0.00    +0.000 OA
BRANCH  27  30
ATOM     30  C   UNL     1      -2.578  11.611  18.496  0.00  0.00    +0.000 A 
ATOM     31  C   UNL     1      -3.778  12.001  19.103  0.00  0.00    +0.000 A 
ATOM     32  C   UNL     1      -4.969  11.926  18.382  0.00  0.00    +0.000 A 
ATOM     33  C   UNL     1      -4.963  11.468  17.064  0.00  0.00    +0.000 A 
ATOM     34  C   UNL     1      -3.760  11.106  16.453  0.00  0.00    +0.000 A 
ATOM     35  C   UNL     1      -2.560  11.187  17.164  0.00  0.00    +0.000 A 
ENDBRANCH  27  30
ENDBRANCH  26  27
ENDBRANCH  24  25
ENDBRANCH  23  24
ENDBRANCH   4  23
TORSDOF 11
ENDMDL
MODEL 2
REMARK VINA RESULT:      -7.9      1.614      2.407
REMARK  Name = 
REMARK  13 active torsions:
REMARK  status: ('A' for Active; 'I' for Inactive)
REMARK    1  A    between atoms: C_1  and  C_2
REMARK    2  A    between atoms: C_2  and  C_3
REMARK    3  A    between atoms: C_7  and  C_8
REMARK    4  A    between atoms: C_8  and  C_9
REMARK    5  A    between atoms: C_9  and  O_10
REMARK    6  A    between atoms: O_10  and  C_11
REMARK    7  A    between atoms: C_11  and  C_13
REMARK    8  A    between atoms: C_13  and  C_14
REMARK    9  A    between atoms: C_17  and  O_18
REMARK   10  A    between atoms: O_18  and  C_19
REMARK   11  A    between atoms: C_19  and  C_20
REMARK   12  A    between atoms: C_21  and  S_22
REMARK   13  A    between atoms: S_22  and  C_25
REMARK                            x       y       z     vdW  Elec       q    Type
REMARK                         _______ _______ _______ _____ _____    ______ ____
ROOT
ATOM      1  C   UNL     1       1.525   4.817  19.723  0.00  0.00    +0.000 A 
ATOM      2  C   UNL     1       1.738   5.706  20.775  0.00  0.00    +0.000 A 
ATOM      3  C   UNL     1       1.978   7.058  20.529  0.00  0.00    +0.000 A 
ATOM      4  C   UNL     1       1.997   7.547  19.212  0.00  0.00    +0.000 A 
ATOM      5  C   UNL     1       1.835   6.657  18.154  0.00  0.00    +0.000 A 
ATOM      6  C   UNL     1       1.615   5.308  18.415  0.00  0.00    +0.000 A 
ATOM      7  F   UNL     1       1.506   4.467  17.378  0.00  0.00    +0.000 F 
ENDROOT
BRANCH   1   8
ATOM      8  C   UNL     1       1.232   3.351  19.979  0.00  0.00    +0.000 C 
BRANCH   8   9
ATOM      9  C   UNL     1       2.277   2.602  20.766  0.00  0.00    +0.000 C 
ATOM     10  O   UNL     1       2.222   2.454  21.988  0.00  0.00    +0.000 OA
BRANCH   9  11
ATOM     11  O   UNL     1       3.185   1.999  19.966  0.00  0.00    +0.000 OA
BRANCH  11  12
ATOM     12  C   UNL     1       4.222   2.876  19.517  0.00  0.00    +0.000 C 
BRANCH  12  13
ATOM     13  C   UNL     1       4.271   2.817  17.988  0.00  0.00    +0.000 C 
BRANCH  13  20
ATOM     14  C   UNL     1       7.868   4.394  17.210  0.00  0.00    +0.000 C 
ATOM     15  C   UNL     1       6.973   5.497  17.793  0.00  0.00    +0.000 C 
ATOM     16  C   UNL     1       7.814   6.282  18.817  0.00  0.00    +0.000 C 
ATOM     17  C   UNL     1       6.134   6.396  16.782  0.00  0.00    +0.000 C 
ATOM     18  C   UNL     1       5.522   5.640  15.585  0.00  0.00    +0.000 C 
ATOM     19  C   UNL     1       4.857   4.370  16.079  0.00  0.00    +0.000 C 
ATOM     20  C   UNL     1       4.852   4.060  17.392  0.00  0.00    +0.000 C 
ATOM     21  C   UNL     1       5.531   5.062  18.299  0.00  0.00    +0.000 C 
ATOM     22  C   UNL     1       5.075   6.517  17.928  0.00  0.00    +0.000 C 
ENDBRANCH  13  20
ENDBRANCH  12  13
ENDBRANCH  11  12
ENDBRANCH   9  11
ENDBRANCH   8   9
ENDBRANCH   1   8
BRANCH   4  23
ATOM     23  O   UNL     1       2.220   8.889  19.075  0.00  0.00    +0.000 OA
BRANCH  23  24
ATOM     24  C   UNL     1       1.746   9.469  17.853  0.00  0.00    +0.000 C 
BRANCH  24  25
ATOM     25  C   UNL     1       0.832  10.627  18.144  0.00  0.00    +0.000 C 
ATOM     26  C   UNL     1      -0.466  10.521  18.494  0.00  0.00    +0.000 C 
BRANCH  26  27
ATOM     27  S   UNL     1      -1.397  11.961  18.767  0.00  0.00    +0.000 S 
ATOM     28  O   UNL     1      -0.571  13.118  18.503  0.00  0.00    +0.000 OA
ATOM     29  O   UNL     1      -2.687  11.811  18.123  0.00  0.00    +0.000 OA
BRANCH  27  30
ATOM     30  C   UNL     1      -1.685  11.910  20.531  0.00  0.00    +0.000 A 
ATOM     31  C   UNL     1      -0.779  11.220  21.346  0.00  0.00    +0.000 A 
ATOM     32  C   UNL     1      -0.985  11.184  22.725  0.00  0.00    +0.000 A 
ATOM     33  C   UNL     1      -2.085  11.833  23.286  0.00  0.00    +0.000 A 
ATOM     34  C   UNL     1      -2.972  12.544  22.473  0.00  0.00    +0.000 A 
ATOM     35  C   UNL     1      -2.768  12.594  21.091  0.00  0.00    +0.000 A 
ENDBRANCH  27  30
ENDBRANCH  26  27
ENDBRANCH  24  25
ENDBRANCH  23  24
ENDBRANCH   4  23
TORSDOF 11
ENDMDL
MODEL 3
REMARK VINA RESULT:      -7.7      1.846      2.499
REMARK  Name = 
REMARK  13 active torsions:
REMARK  status: ('A' for Active; 'I' for Inactive)
REMARK    1  A    between atoms: C_1  and  C_2
REMARK    2  A    between atoms: C_2  and  C_3
REMARK    3  A    between atoms: C_7  and  C_8
REMARK    4  A    between atoms: C_8  and  C_9
REMARK    5  A    between atoms: C_9  and  O_10
REMARK    6  A    between atoms: O_10  and  C_11
REMARK    7  A    between atoms: C_11  and  C_13
REMARK    8  A    between atoms: C_13  and  C_14
REMARK    9  A    between atoms: C_17  and  O_18
REMARK   10  A    between atoms: O_18  and  C_19
REMARK   11  A    between atoms: C_19  and  C_20
REMARK   12  A    between atoms: C_21  and  S_22
REMARK   13  A    between atoms: S_22  and  C_25
REMARK                            x       y       z     vdW  Elec       q    Type
REMARK                         _______ _______ _______ _____ _____    ______ ____
ROOT
ATOM      1  C   UNL     1       1.363   4.485  19.525  0.00  0.00    +0.000 A 
ATOM      2  C   UNL     1       1.559   5.272  20.658  0.00  0.00    +0.000 A 
ATOM      3  C   UNL     1       1.850   6.632  20.542  0.00  0.00    +0.000 A 
ATOM      4  C   UNL     1       1.939   7.232  19.275  0.00  0.00    +0.000 A 
ATOM      5  C   UNL     1       1.795   6.443  18.137  0.00  0.00    +0.000 A 
ATOM      6  C   UNL     1       1.523   5.085  18.270  0.00  0.00    +0.000 A 
ATOM      7  F   UNL     1       1.433   4.341  17.159  0.00  0.00    +0.000 F 
ENDROOT
BRANCH   1   8
ATOM      8  C   UNL     1       1.016   3.014  19.639  0.00  0.00    +0.000 C 
BRANCH   8   9
ATOM      9  C   UNL     1       2.113   2.050  19.265  0.00  0.00    +0.000 C 
ATOM     10  O   UNL     1       2.158   1.470  18.180  0.00  0.00    +0.000 OA
BRANCH   9  11
ATOM     11  O   UNL     1       3.099   2.015  20.190  0.00  0.00    +0.000 OA
BRANCH  11  12
ATOM     12  C   UNL     1       4.402   2.242  19.644  0.00  0.00    +0.000 C 
BRANCH  12  13
ATOM     13  C   UNL     1       4.691   3.744  19.703  0.00  0.00    +0.000 C 
BRANCH  13  20
ATOM     14  C   UNL     1       7.820   4.624  17.366  0.00  0.00    +0.000 C 
ATOM     15  C   UNL     1       6.820   5.787  17.291  0.00  0.00    +0.000 C 
ATOM     16  C   UNL     1       7.625   7.096  17.380  0.00  0.00    +0.000 C 
ATOM     17  C   UNL     1       5.714   5.753  16.147  0.00  0.00    +0.000 C 
ATOM     18  C   UNL     1       5.106   4.364  15.863  0.00  0.00    +0.000 C 
ATOM     19  C   UNL     1       4.747   3.694  17.175  0.00  0.00    +0.000 C 
ATOM     20  C   UNL     1       4.960   4.322  18.350  0.00  0.00    +0.000 C 
ATOM     21  C   UNL     1       5.554   5.709  18.248  0.00  0.00    +0.000 C 
ATOM     22  C   UNL     1       4.800   6.536  17.148  0.00  0.00    +0.000 C 
ENDBRANCH  13  20
ENDBRANCH  12  13
ENDBRANCH  11  12
ENDBRANCH   9  11
ENDBRANCH   8   9
ENDBRANCH   1   8
BRANCH   4  23
ATOM     23  O   UNL     1       2.208   8.573  19.266  0.00  0.00    +0.000 OA
BRANCH  23  24
ATOM     24  C   UNL     1       2.009   9.231  18.008  0.00  0.00    +0.000 C 
BRANCH  24  25
ATOM     25  C   UNL     1       0.828  10.159  18.085  0.00  0.00    +0.000 C 
ATOM     26  C   UNL     1       0.537  10.958  19.131  0.00  0.00    +0.000 C 
BRANCH  26  27
ATOM     27  S   UNL     1      -0.886  11.953  19.077  0.00  0.00    +0.000 S 
ATOM     28  O   UNL     1      -0.648  13.072  18.194  0.00  0.00    +0.000 OA
ATOM     29  O   UNL     1      -2.044  11.101  18.895  0.00  0.00    +0.000 OA
BRANCH  27  30
ATOM     30  C   UNL     1      -0.970  12.601  20.741  0.00  0.00    +0.000 A 
ATOM     31  C   UNL     1      -0.403  13.853  21.010  0.00  0.00    +0.000 A 
ATOM     32  C   UNL     1      -0.474  14.375  22.301  0.00  0.00    +0.000 A 
ATOM     33  C   UNL     1      -1.108  13.656  23.315  0.00  0.00    +0.000 A 
ATOM     34  C   UNL     1      -1.696  12.419  23.036  0.00  0.00    +0.000 A 
ATOM     35  C   UNL     1      -1.639  11.892  21.743  0.00  0.00    +0.000 A 
ENDBRANCH  27  30
ENDBRANCH  26  27
ENDBRANCH  24  25
ENDBRANCH  23  24
ENDBRANCH   4  23
TORSDOF 11
ENDMDL
MODEL 4
REMARK VINA RESULT:      -7.7      3.323      5.923
REMARK  Name = 
REMARK  13 active torsions:
REMARK  status: ('A' for Active; 'I' for Inactive)
REMARK    1  A    between atoms: C_1  and  C_2
REMARK    2  A    between atoms: C_2  and  C_3
REMARK    3  A    between atoms: C_7  and  C_8
REMARK    4  A    between atoms: C_8  and  C_9
REMARK    5  A    between atoms: C_9  and  O_10
REMARK    6  A    between atoms: O_10  and  C_11
REMARK    7  A    between atoms: C_11  and  C_13
REMARK    8  A    between atoms: C_13  and  C_14
REMARK    9  A    between atoms: C_17  and  O_18
REMARK   10  A    between atoms: O_18  and  C_19
REMARK   11  A    between atoms: C_19  and  C_20
REMARK   12  A    between atoms: C_21  and  S_22
REMARK   13  A    between atoms: S_22  and  C_25
REMARK                            x       y       z     vdW  Elec       q    Type
REMARK                         _______ _______ _______ _____ _____    ______ ____
ROOT
ATOM      1  C   UNL     1      -0.234  11.139  21.228  0.00  0.00    +0.000 A 
ATOM      2  C   UNL     1      -0.747  11.688  22.402  0.00  0.00    +0.000 A 
ATOM      3  C   UNL     1      -1.820  12.579  22.364  0.00  0.00    +0.000 A 
ATOM      4  C   UNL     1      -2.408  12.929  21.136  0.00  0.00    +0.000 A 
ATOM      5  C   UNL     1      -1.869  12.425  19.956  0.00  0.00    +0.000 A 
ATOM      6  C   UNL     1      -0.788  11.551  20.010  0.00  0.00    +0.000 A 
ATOM      7  F   UNL     1      -0.262  11.116  18.857  0.00  0.00    +0.000 F 
ENDROOT
BRANCH   1   8
ATOM      8  C   UNL     1       0.911  10.145  21.259  0.00  0.00    +0.000 C 
BRANCH   8   9
ATOM      9  C   UNL     1       0.523   8.705  21.472  0.00  0.00    +0.000 C 
ATOM     10  O   UNL     1      -0.636   8.342  21.675  0.00  0.00    +0.000 OA
BRANCH   9  11
ATOM     11  O   UNL     1       1.561   7.861  21.271  0.00  0.00    +0.000 OA
BRANCH  11  12
ATOM     12  C   UNL     1       1.825   7.600  19.889  0.00  0.00    +0.000 C 
BRANCH  12  13
ATOM     13  C   UNL     1       2.853   6.469  19.803  0.00  0.00    +0.000 C 
BRANCH  13  20
ATOM     14  C   UNL     1       3.854   2.607  20.142  0.00  0.00    +0.000 C 
ATOM     15  C   UNL     1       2.942   2.763  18.917  0.00  0.00    +0.000 C 
ATOM     16  C   UNL     1       3.549   1.924  17.778  0.00  0.00    +0.000 C 
ATOM     17  C   UNL     1       1.374   2.586  19.122  0.00  0.00    +0.000 C 
ATOM     18  C   UNL     1       0.809   3.191  20.423  0.00  0.00    +0.000 C 
ATOM     19  C   UNL     1       1.365   4.589  20.611  0.00  0.00    +0.000 C 
ATOM     20  C   UNL     1       2.207   5.123  19.701  0.00  0.00    +0.000 C 
ATOM     21  C   UNL     1       2.526   4.243  18.514  0.00  0.00    +0.000 C 
ATOM     22  C   UNL     1       1.207   3.608  17.948  0.00  0.00    +0.000 C 
ENDBRANCH  13  20
ENDBRANCH  12  13
ENDBRANCH  11  12
ENDBRANCH   9  11
ENDBRANCH   8   9
ENDBRANCH   1   8
BRANCH   4  23
ATOM     23  O   UNL     1      -3.466  13.793  21.205  0.00  0.00    +0.000 OA
BRANCH  23  24
ATOM     24  C   UNL     1      -4.728  13.194  21.527  0.00  0.00    +0.000 C 
BRANCH  24  25
ATOM     25  C   UNL     1      -5.225  12.370  20.373  0.00  0.00    +0.000 C 
ATOM     26  C   UNL     1      -5.752  12.866  19.235  0.00  0.00    +0.000 C 
BRANCH  26  27
ATOM     27  S   UNL     1      -6.311  11.776  18.005  0.00  0.00    +0.000 S 
ATOM     28  O   UNL     1      -7.042  10.695  18.626  0.00  0.00    +0.000 OA
ATOM     29  O   UNL     1      -6.902  12.548  16.930  0.00  0.00    +0.000 OA
BRANCH  27  30
ATOM     30  C   UNL     1      -4.786  11.087  17.374  0.00  0.00    +0.000 A 
ATOM     31  C   UNL     1      -4.260  11.587  16.176  0.00  0.00    +0.000 A 
ATOM     32  C   UNL     1      -3.065  11.067  15.681  0.00  0.00    +0.000 A 
ATOM     33  C   UNL     1      -2.397  10.059  16.378  0.00  0.00    +0.000 A 
ATOM     34  C   UNL     1      -2.910   9.582  17.586  0.00  0.00    +0.000 A 
ATOM     35  C   UNL     1      -4.103  10.103  18.096  0.00  0.00    +0.000 A 
ENDBRANCH  27  30
ENDBRANCH  26  27
ENDBRANCH  24  25
ENDBRANCH  23  24
ENDBRANCH   4  23
TORSDOF 11
ENDMDL
MODEL 5
REMARK VINA RESULT:      -7.6      2.932      3.965
REMARK  Name = 
REMARK  13 active torsions:
REMARK  status: ('A' for Active; 'I' for Inactive)
REMARK    1  A    between atoms: C_1  and  C_2
REMARK    2  A    between atoms: C_2  and  C_3
REMARK    3  A    between atoms: C_7  and  C_8
REMARK    4  A    between atoms: C_8  and  C_9
REMARK    5  A    between atoms: C_9  and  O_10
REMARK    6  A    between atoms: O_10  and  C_11
REMARK    7  A    between atoms: C_11  and  C_13
REMARK    8  A    between atoms: C_13  and  C_14
REMARK    9  A    between atoms: C_17  and  O_18
REMARK   10  A    between atoms: O_18  and  C_19
REMARK   11  A    between atoms: C_19  and  C_20
REMARK   12  A    between atoms: C_21  and  S_22
REMARK   13  A    between atoms: S_22  and  C_25
REMARK                            x       y       z     vdW  Elec       q    Type
REMARK                         _______ _______ _______ _____ _____    ______ ____
ROOT
ATOM      1  C   UNL     1       1.611   8.350  20.022  0.00  0.00    +0.000 A 
ATOM      2  C   UNL     1       1.520   8.261  21.410  0.00  0.00    +0.000 A 
ATOM      3  C   UNL     1       0.939   9.288  22.155  0.00  0.00    +0.000 A 
ATOM      4  C   UNL     1       0.425  10.427  21.512  0.00  0.00    +0.000 A 
ATOM      5  C   UNL     1       0.558  10.547  20.132  0.00  0.00    +0.000 A 
ATOM      6  C   UNL     1       1.156   9.522  19.405  0.00  0.00    +0.000 A 
ATOM      7  F   UNL     1       1.310   9.682  18.084  0.00  0.00    +0.000 F 
ENDROOT
BRANCH   1   8
ATOM      8  C   UNL     1       2.212   7.227  19.200  0.00  0.00    +0.000 C 
BRANCH   8   9
ATOM      9  C   UNL     1       2.446   5.931  19.932  0.00  0.00    +0.000 C 
ATOM     10  O   UNL     1       1.535   5.248  20.400  0.00  0.00    +0.000 OA
BRANCH   9  11
ATOM     11  O   UNL     1       3.741   5.543  19.885  0.00  0.00    +0.000 OA
BRANCH  11  12
ATOM     12  C   UNL     1       3.917   4.193  19.447  0.00  0.00    +0.000 C 
BRANCH  12  13
ATOM     13  C   UNL     1       3.447   4.095  17.994  0.00  0.00    +0.000 C 
BRANCH  13  20
ATOM     14  C   UNL     1       7.398   4.744  17.978  0.00  0.00    +0.000 C 
ATOM     15  C   UNL     1       6.728   5.827  17.120  0.00  0.00    +0.000 C 
ATOM     16  C   UNL     1       7.385   7.173  17.478  0.00  0.00    +0.000 C 
ATOM     17  C   UNL     1       6.560   5.553  15.562  0.00  0.00    +0.000 C 
ATOM     18  C   UNL     1       6.173   4.107  15.187  0.00  0.00    +0.000 C 
ATOM     19  C   UNL     1       5.044   3.640  16.085  0.00  0.00    +0.000 C 
ATOM     20  C   UNL     1       4.526   4.460  17.024  0.00  0.00    +0.000 C 
ATOM     21  C   UNL     1       5.139   5.841  17.091  0.00  0.00    +0.000 C 
ATOM     22  C   UNL     1       5.273   6.439  15.647  0.00  0.00    +0.000 C 
ENDBRANCH  13  20
ENDBRANCH  12  13
ENDBRANCH  11  12
ENDBRANCH   9  11
ENDBRANCH   8   9
ENDBRANCH   1   8
BRANCH   4  23
ATOM     23  O   UNL     1      -0.142  11.368  22.326  0.00  0.00    +0.000 OA
BRANCH  23  24
ATOM     24  C   UNL     1      -1.267  10.919  23.092  0.00  0.00    +0.000 C 
BRANCH  24  25
ATOM     25  C   UNL     1      -2.339  11.972  23.113  0.00  0.00    +0.000 C 
ATOM     26  C   UNL     1      -2.790  12.642  22.033  0.00  0.00    +0.000 C 
BRANCH  26  27
ATOM     27  S   UNL     1      -4.017  13.855  22.230  0.00  0.00    +0.000 S 
ATOM     28  O   UNL     1      -3.990  14.339  23.592  0.00  0.00    +0.000 OA
ATOM     29  O   UNL     1      -3.943  14.778  21.115  0.00  0.00    +0.000 OA
BRANCH  27  30
ATOM     30  C   UNL     1      -5.526  12.917  22.033  0.00  0.00    +0.000 A 
ATOM     31  C   UNL     1      -6.436  12.863  23.096  0.00  0.00    +0.000 A 
ATOM     32  C   UNL     1      -7.622  12.146  22.950  0.00  0.00    +0.000 A 
ATOM     33  C   UNL     1      -7.901  11.489  21.750  0.00  0.00    +0.000 A 
ATOM     34  C   UNL     1      -7.004  11.567  20.682  0.00  0.00    +0.000 A 
ATOM     35  C   UNL     1      -5.816  12.292  20.816  0.00  0.00    +0.000 A 
ENDBRANCH  27  30
ENDBRANCH  26  27
ENDBRANCH  24  25
ENDBRANCH  23  24
ENDBRANCH   4  23
TORSDOF 11
ENDMDL
MODEL 6
REMARK VINA RESULT:      -7.6      3.503      4.312
REMARK  Name = 
REMARK  13 active torsions:
REMARK  status: ('A' for Active; 'I' for Inactive)
REMARK    1  A    between atoms: C_1  and  C_2
REMARK    2  A    between atoms: C_2  and  C_3
REMARK    3  A    between atoms: C_7  and  C_8
REMARK    4  A    between atoms: C_8  and  C_9
REMARK    5  A    between atoms: C_9  and  O_10
REMARK    6  A    between atoms: O_10  and  C_11
REMARK    7  A    between atoms: C_11  and  C_13
REMARK    8  A    between atoms: C_13  and  C_14
REMARK    9  A    between atoms: C_17  and  O_18
REMARK   10  A    between atoms: O_18  and  C_19
REMARK   11  A    between atoms: C_19  and  C_20
REMARK   12  A    between atoms: C_21  and  S_22
REMARK   13  A    between atoms: S_22  and  C_25
REMARK                            x       y       z     vdW  Elec       q    Type
REMARK                         _______ _______ _______ _____ _____    ______ ____
ROOT
ATOM      1  C   UNL     1       1.877   7.623  19.995  0.00  0.00    +0.000 A 
ATOM      2  C   UNL     1       1.221   8.032  21.155  0.00  0.00    +0.000 A 
ATOM      3  C   UNL     1       0.470   9.207  21.174  0.00  0.00    +0.000 A 
ATOM      4  C   UNL     1       0.354   9.994  20.015  0.00  0.00    +0.000 A 
ATOM      5  C   UNL     1       1.047   9.619  18.867  0.00  0.00    +0.000 A 
ATOM      6  C   UNL     1       1.806   8.453  18.870  0.00  0.00    +0.000 A 
ATOM      7  F   UNL     1       2.498   8.139  17.766  0.00  0.00    +0.000 F 
ENDROOT
BRANCH   1   8
ATOM      8  C   UNL     1       2.670   6.331  19.954  0.00  0.00    +0.000 C 
BRANCH   8   9
ATOM      9  C   UNL     1       1.886   5.091  19.608  0.00  0.00    +0.000 C 
ATOM     10  O   UNL     1       1.180   4.493  20.420  0.00  0.00    +0.000 OA
BRANCH   9  11
ATOM     11  O   UNL     1       1.936   4.807  18.286  0.00  0.00    +0.000 OA
BRANCH  11  12
ATOM     12  C   UNL     1       2.434   3.497  18.003  0.00  0.00    +0.000 C 
BRANCH  12  13
ATOM     13  C   UNL     1       3.934   3.478  18.311  0.00  0.00    +0.000 C 
BRANCH  13  20
ATOM     14  C   UNL     1       7.716   4.610  17.644  0.00  0.00    +0.000 C 
ATOM     15  C   UNL     1       6.785   5.736  17.173  0.00  0.00    +0.000 C 
ATOM     16  C   UNL     1       7.388   7.068  17.658  0.00  0.00    +0.000 C 
ATOM     17  C   UNL     1       6.305   5.727  15.656  0.00  0.00    +0.000 C 
ATOM     18  C   UNL     1       5.969   4.336  15.081  0.00  0.00    +0.000 C 
ATOM     19  C   UNL     1       5.107   3.577  16.072  0.00  0.00    +0.000 C 
ATOM     20  C   UNL     1       4.740   4.143  17.241  0.00  0.00    +0.000 C 
ATOM     21  C   UNL     1       5.233   5.555  17.463  0.00  0.00    +0.000 C 
ATOM     22  C   UNL     1       4.997   6.416  16.172  0.00  0.00    +0.000 C 
ENDBRANCH  13  20
ENDBRANCH  12  13
ENDBRANCH  11  12
ENDBRANCH   9  11
ENDBRANCH   8   9
ENDBRANCH   1   8
BRANCH   4  23
ATOM     23  O   UNL     1      -0.419  11.116  20.128  0.00  0.00    +0.000 OA
BRANCH  23  24
ATOM     24  C   UNL     1       0.185  12.210  20.829  0.00  0.00    +0.000 C 
BRANCH  24  25
ATOM     25  C   UNL     1       1.291  12.811  20.007  0.00  0.00    +0.000 C 
ATOM     26  C   UNL     1       2.005  13.903  20.347  0.00  0.00    +0.000 C 
BRANCH  26  27
ATOM     27  S   UNL     1       3.234  14.491  19.271  0.00  0.00    +0.000 S 
ATOM     28  O   UNL     1       4.319  15.047  20.048  0.00  0.00    +0.000 OA
ATOM     29  O   UNL     1       3.489  13.484  18.259  0.00  0.00    +0.000 OA
BRANCH  27  30
ATOM     30  C   UNL     1       2.415  15.855  18.455  0.00  0.00    +0.000 A 
ATOM     31  C   UNL     1       1.172  16.285  18.934  0.00  0.00    +0.000 A 
ATOM     32  C   UNL     1       0.529  17.356  18.314  0.00  0.00    +0.000 A 
ATOM     33  C   UNL     1       1.125  17.997  17.227  0.00  0.00    +0.000 A 
ATOM     34  C   UNL     1       2.378  17.583  16.769  0.00  0.00    +0.000 A 
ATOM     35  C   UNL     1       3.034  16.516  17.390  0.00  0.00    +0.000 A 
ENDBRANCH  27  30
ENDBRANCH  26  27
ENDBRANCH  24  25
ENDBRANCH  23  24
ENDBRANCH   4  23
TORSDOF 11
ENDMDL
MODEL 7
REMARK VINA RESULT:      -7.6      3.077      3.783
REMARK  Name = 
REMARK  13 active torsions:
REMARK  status: ('A' for Active; 'I' for Inactive)
REMARK    1  A    between atoms: C_1  and  C_2
REMARK    2  A    between atoms: C_2  and  C_3
REMARK    3  A    between atoms: C_7  and  C_8
REMARK    4  A    between atoms: C_8  and  C_9
REMARK    5  A    between atoms: C_9  and  O_10
REMARK    6  A    between atoms: O_10  and  C_11
REMARK    7  A    between atoms: C_11  and  C_13
REMARK    8  A    between atoms: C_13  and  C_14
REMARK    9  A    between atoms: C_17  and  O_18
REMARK   10  A    between atoms: O_18  and  C_19
REMARK   11  A    between atoms: C_19  and  C_20
REMARK   12  A    between atoms: C_21  and  S_22
REMARK   13  A    between atoms: S_22  and  C_25
REMARK                            x       y       z     vdW  Elec       q    Type
REMARK                         _______ _______ _______ _____ _____    ______ ____
ROOT
ATOM      1  C   UNL     1       2.200   7.168  19.678  0.00  0.00    +0.000 A 
ATOM      2  C   UNL     1       2.386   7.595  18.364  0.00  0.00    +0.000 A 
ATOM      3  C   UNL     1       1.926   8.844  17.947  0.00  0.00    +0.000 A 
ATOM      4  C   UNL     1       1.274   9.699  18.853  0.00  0.00    +0.000 A 
ATOM      5  C   UNL     1       1.039   9.259  20.153  0.00  0.00    +0.000 A 
ATOM      6  C   UNL     1       1.489   8.004  20.548  0.00  0.00    +0.000 A 
ATOM      7  F   UNL     1       1.211   7.589  21.791  0.00  0.00    +0.000 F 
ENDROOT
BRANCH   1   8
ATOM      8  C   UNL     1       2.723   5.826  20.151  0.00  0.00    +0.000 C 
BRANCH   8   9
ATOM      9  C   UNL     1       1.840   4.639  19.861  0.00  0.00    +0.000 C 
ATOM     10  O   UNL     1       0.807   4.400  20.487  0.00  0.00    +0.000 OA
BRANCH   9  11
ATOM     11  O   UNL     1       2.234   3.966  18.756  0.00  0.00    +0.000 OA
BRANCH  11  12
ATOM     12  C   UNL     1       3.655   3.898  18.606  0.00  0.00    +0.000 C 
BRANCH  12  13
ATOM     13  C   UNL     1       3.964   3.229  17.264  0.00  0.00    +0.000 C 
BRANCH  13  20
ATOM     14  C   UNL     1       7.711   4.587  17.653  0.00  0.00    +0.000 C 
ATOM     15  C   UNL     1       6.862   5.690  17.003  0.00  0.00    +0.000 C 
ATOM     16  C   UNL     1       7.234   7.020  17.684  0.00  0.00    +0.000 C 
ATOM     17  C   UNL     1       6.790   5.743  15.415  0.00  0.00    +0.000 C 
ATOM     18  C   UNL     1       6.703   4.371  14.715  0.00  0.00    +0.000 C 
ATOM     19  C   UNL     1       5.665   3.515  15.414  0.00  0.00    +0.000 C 
ATOM     20  C   UNL     1       4.974   3.994  16.469  0.00  0.00    +0.000 C 
ATOM     21  C   UNL     1       5.303   5.414  16.871  0.00  0.00    +0.000 C 
ATOM     22  C   UNL     1       5.353   6.334  15.601  0.00  0.00    +0.000 C 
ENDBRANCH  13  20
ENDBRANCH  12  13
ENDBRANCH  11  12
ENDBRANCH   9  11
ENDBRANCH   8   9
ENDBRANCH   1   8
BRANCH   4  23
ATOM     23  O   UNL     1       0.879  10.909  18.354  0.00  0.00    +0.000 OA
BRANCH  23  24
ATOM     24  C   UNL     1      -0.337  11.432  18.904  0.00  0.00    +0.000 C 
BRANCH  24  25
ATOM     25  C   UNL     1      -0.069  12.714  19.641  0.00  0.00    +0.000 C 
ATOM     26  C   UNL     1       0.427  12.800  20.892  0.00  0.00    +0.000 C 
BRANCH  26  27
ATOM     27  S   UNL     1       0.651  14.362  21.617  0.00  0.00    +0.000 S 
ATOM     28  O   UNL     1      -0.483  14.659  22.464  0.00  0.00    +0.000 OA
ATOM     29  O   UNL     1       2.002  14.447  22.135  0.00  0.00    +0.000 OA
BRANCH  27  30
ATOM     30  C   UNL     1       0.561  15.461  20.210  0.00  0.00    +0.000 A 
ATOM     31  C   UNL     1      -0.663  16.063  19.896  0.00  0.00    +0.000 A 
ATOM     32  C   UNL     1      -0.743  16.932  18.808  0.00  0.00    +0.000 A 
ATOM     33  C   UNL     1       0.391  17.200  18.041  0.00  0.00    +0.000 A 
ATOM     34  C   UNL     1       1.617  16.619  18.373  0.00  0.00    +0.000 A 
ATOM     35  C   UNL     1       1.709  15.754  19.467  0.00  0.00    +0.000 A 
ENDBRANCH  27  30
ENDBRANCH  26  27
ENDBRANCH  24  25
ENDBRANCH  23  24
ENDBRANCH   4  23
TORSDOF 11
ENDMDL
MODEL 8
REMARK VINA RESULT:      -7.6      3.350      4.970
REMARK  Name = 
REMARK  13 active torsions:
REMARK  status: ('A' for Active; 'I' for Inactive)
REMARK    1  A    between atoms: C_1  and  C_2
REMARK    2  A    between atoms: C_2  and  C_3
REMARK    3  A    between atoms: C_7  and  C_8
REMARK    4  A    between atoms: C_8  and  C_9
REMARK    5  A    between atoms: C_9  and  O_10
REMARK    6  A    between atoms: O_10  and  C_11
REMARK    7  A    between atoms: C_11  and  C_13
REMARK    8  A    between atoms: C_13  and  C_14
REMARK    9  A    between atoms: C_17  and  O_18
REMARK   10  A    between atoms: O_18  and  C_19
REMARK   11  A    between atoms: C_19  and  C_20
REMARK   12  A    between atoms: C_21  and  S_22
REMARK   13  A    between atoms: S_22  and  C_25
REMARK                            x       y       z     vdW  Elec       q    Type
REMARK                         _______ _______ _______ _____ _____    ______ ____
ROOT
ATOM      1  C   UNL     1       2.486   6.908  19.573  0.00  0.00    +0.000 A 
ATOM      2  C   UNL     1       2.678   7.259  18.238  0.00  0.00    +0.000 A 
ATOM      3  C   UNL     1       2.176   8.459  17.736  0.00  0.00    +0.000 A 
ATOM      4  C   UNL     1       1.475   9.342  18.575  0.00  0.00    +0.000 A 
ATOM      5  C   UNL     1       1.235   8.976  19.897  0.00  0.00    +0.000 A 
ATOM      6  C   UNL     1       1.727   7.767  20.378  0.00  0.00    +0.000 A 
ATOM      7  F   UNL     1       1.444   7.420  21.641  0.00  0.00    +0.000 F 
ENDROOT
BRANCH   1   8
ATOM      8  C   UNL     1       3.053   5.621  20.139  0.00  0.00    +0.000 C 
BRANCH   8   9
ATOM      9  C   UNL     1       2.157   4.413  20.046  0.00  0.00    +0.000 C 
ATOM     10  O   UNL     1       0.941   4.461  20.231  0.00  0.00    +0.000 OA
BRANCH   9  11
ATOM     11  O   UNL     1       2.817   3.320  19.599  0.00  0.00    +0.000 OA
BRANCH  11  12
ATOM     12  C   UNL     1       4.026   3.629  18.900  0.00  0.00    +0.000 C 
BRANCH  12  13
ATOM     13  C   UNL     1       3.780   3.428  17.403  0.00  0.00    +0.000 C 
BRANCH  13  20
ATOM     14  C   UNL     1       7.588   4.623  17.723  0.00  0.00    +0.000 C 
ATOM     15  C   UNL     1       6.798   5.718  16.991  0.00  0.00    +0.000 C 
ATOM     16  C   UNL     1       7.234   7.073  17.579  0.00  0.00    +0.000 C 
ATOM     17  C   UNL     1       6.735   5.663  15.402  0.00  0.00    +0.000 C 
ATOM     18  C   UNL     1       6.582   4.251  14.800  0.00  0.00    +0.000 C 
ATOM     19  C   UNL     1       5.500   3.498  15.550  0.00  0.00    +0.000 C 
ATOM     20  C   UNL     1       4.830   4.085  16.564  0.00  0.00    +0.000 C 
ATOM     21  C   UNL     1       5.228   5.512  16.867  0.00  0.00    +0.000 C 
ATOM     22  C   UNL     1       5.328   6.335  15.535  0.00  0.00    +0.000 C 
ENDBRANCH  13  20
ENDBRANCH  12  13
ENDBRANCH  11  12
ENDBRANCH   9  11
ENDBRANCH   8   9
ENDBRANCH   1   8
BRANCH   4  23
ATOM     23  O   UNL     1       1.041  10.501  17.995  0.00  0.00    +0.000 OA
BRANCH  23  24
ATOM     24  C   UNL     1       0.254  11.352  18.838  0.00  0.00    +0.000 C 
BRANCH  24  25
ATOM     25  C   UNL     1       0.825  12.743  18.856  0.00  0.00    +0.000 C 
ATOM     26  C   UNL     1       2.132  13.046  18.727  0.00  0.00    +0.000 C 
BRANCH  26  27
ATOM     27  S   UNL     1       2.635  14.707  18.800  0.00  0.00    +0.000 S 
ATOM     28  O   UNL     1       3.218  15.082  17.532  0.00  0.00    +0.000 OA
ATOM     29  O   UNL     1       1.567  15.493  19.385  0.00  0.00    +0.000 OA
BRANCH  27  30
ATOM     30  C   UNL     1       3.963  14.658  19.997  0.00  0.00    +0.000 A 
ATOM     31  C   UNL     1       5.220  15.159  19.637  0.00  0.00    +0.000 A 
ATOM     32  C   UNL     1       6.259  15.138  20.566  0.00  0.00    +0.000 A 
ATOM     33  C   UNL     1       6.046  14.625  21.846  0.00  0.00    +0.000 A 
ATOM     34  C   UNL     1       4.783  14.151  22.211  0.00  0.00    +0.000 A 
ATOM     35  C   UNL     1       3.732  14.176  21.289  0.00  0.00    +0.000 A 
ENDBRANCH  27  30
ENDBRANCH  26  27
ENDBRANCH  24  25
ENDBRANCH  23  24
ENDBRANCH   4  23
TORSDOF 11
ENDMDL
MODEL 9
REMARK VINA RESULT:      -7.6      3.302      5.083
REMARK  Name = 
REMARK  13 active torsions:
REMARK  status: ('A' for Active; 'I' for Inactive)
REMARK    1  A    between atoms: C_1  and  C_2
REMARK    2  A    between atoms: C_2  and  C_3
REMARK    3  A    between atoms: C_7  and  C_8
REMARK    4  A    between atoms: C_8  and  C_9
REMARK    5  A    between atoms: C_9  and  O_10
REMARK    6  A    between atoms: O_10  and  C_11
REMARK    7  A    between atoms: C_11  and  C_13
REMARK    8  A    between atoms: C_13  and  C_14
REMARK    9  A    between atoms: C_17  and  O_18
REMARK   10  A    between atoms: O_18  and  C_19
REMARK   11  A    between atoms: C_19  and  C_20
REMARK   12  A    between atoms: C_21  and  S_22
REMARK   13  A    between atoms: S_22  and  C_25
REMARK                            x       y       z     vdW  Elec       q    Type
REMARK                         _______ _______ _______ _____ _____    ______ ____
ROOT
ATOM      1  C   UNL     1       4.374   5.698  18.321  0.00  0.00    +0.000 A 
ATOM      2  C   UNL     1       3.707   6.850  17.909  0.00  0.00    +0.000 A 
ATOM      3  C   UNL     1       2.626   7.349  18.636  0.00  0.00    +0.000 A 
ATOM      4  C   UNL     1       2.199   6.699  19.807  0.00  0.00    +0.000 A 
ATOM      5  C   UNL     1       2.827   5.519  20.197  0.00  0.00    +0.000 A 
ATOM      6  C   UNL     1       3.892   5.026  19.451  0.00  0.00    +0.000 A 
ATOM      7  F   UNL     1       4.450   3.866  19.825  0.00  0.00    +0.000 F 
ENDROOT
BRANCH   1   8
ATOM      8  C   UNL     1       5.569   5.164  17.556  0.00  0.00    +0.000 C 
BRANCH   8   9
ATOM      9  C   UNL     1       6.550   6.199  17.068  0.00  0.00    +0.000 C 
ATOM     10  O   UNL     1       6.757   6.422  15.875  0.00  0.00    +0.000 OA
BRANCH   9  11
ATOM     11  O   UNL     1       7.058   6.940  18.080  0.00  0.00    +0.000 OA
BRANCH  11  12
ATOM     12  C   UNL     1       7.515   8.231  17.668  0.00  0.00    +0.000 C 
BRANCH  12  13
ATOM     13  C   UNL     1       8.702   8.623  18.552  0.00  0.00    +0.000 C 
BRANCH  13  20
ATOM     14  C   UNL     1      11.515  11.346  17.711  0.00  0.00    +0.000 C 
ATOM     15  C   UNL     1      10.884  11.706  19.064  0.00  0.00    +0.000 C 
ATOM     16  C   UNL     1      12.028  12.091  20.020  0.00  0.00    +0.000 C 
ATOM     17  C   UNL     1       9.638  12.696  19.072  0.00  0.00    +0.000 C 
ATOM     18  C   UNL     1       8.625  12.485  17.928  0.00  0.00    +0.000 C 
ATOM     19  C   UNL     1       8.317  11.006  17.794  0.00  0.00    +0.000 C 
ATOM     20  C   UNL     1       8.892  10.105  18.619  0.00  0.00    +0.000 C 
ATOM     21  C   UNL     1       9.826  10.681  19.660  0.00  0.00    +0.000 C 
ATOM     22  C   UNL     1       9.162  11.924  20.348  0.00  0.00    +0.000 C 
ENDBRANCH  13  20
ENDBRANCH  12  13
ENDBRANCH  11  12
ENDBRANCH   9  11
ENDBRANCH   8   9
ENDBRANCH   1   8
BRANCH   4  23
ATOM     23  O   UNL     1       1.145   7.275  20.460  0.00  0.00    +0.000 OA
BRANCH  23  24
ATOM     24  C   UNL     1       1.486   8.343  21.354  0.00  0.00    +0.000 C 
BRANCH  24  25
ATOM     25  C   UNL     1       0.581   9.522  21.130  0.00  0.00    +0.000 C 
ATOM     26  C   UNL     1       0.746  10.456  20.172  0.00  0.00    +0.000 C 
BRANCH  26  27
ATOM     27  S   UNL     1      -0.374  11.778  20.065  0.00  0.00    +0.000 S 
ATOM     28  O   UNL     1      -1.087  11.898  21.317  0.00  0.00    +0.000 OA
ATOM     29  O   UNL     1       0.307  12.921  19.490  0.00  0.00    +0.000 OA
BRANCH  27  30
ATOM     30  C   UNL     1      -1.544  11.198  18.844  0.00  0.00    +0.000 A 
ATOM     31  C   UNL     1      -2.825  11.763  18.809  0.00  0.00    +0.000 A 
ATOM     32  C   UNL     1      -3.742  11.328  17.853  0.00  0.00    +0.000 A 
ATOM     33  C   UNL     1      -3.383  10.339  16.936  0.00  0.00    +0.000 A 
ATOM     34  C   UNL     1      -2.095   9.797  16.956  0.00  0.00    +0.000 A 
ATOM     35  C   UNL     1      -1.166  10.233  17.905  0.00  0.00    +0.000 A 
ENDBRANCH  27  30
ENDBRANCH  26  27
ENDBRANCH  24  25
ENDBRANCH  23  24
ENDBRANCH   4  23
TORSDOF 11
ENDMDL
