MODEL 1
REMARK VINA RESULT:      -8.5      0.000      0.000
REMARK  Name = 
REMARK  4 active torsions:
REMARK  status: ('A' for Active; 'I' for Inactive)
REMARK    1  A    between atoms: C_5  and  C_6
REMARK    2  A    between atoms: C_6  and  C_7
REMARK    3  A    between atoms: C_6  and  N_19
REMARK    4  A    between atoms: N_10  and  C_11
REMARK                            x       y       z     vdW  Elec       q    Type
REMARK                         _______ _______ _______ _____ _____    ______ ____
ROOT
ATOM      1  C   UNL     1       3.784   4.922  18.914  0.00  0.00    +0.000 C 
ENDROOT
BRANCH   1   6
ATOM      2 CL   UNL     1       7.369   5.114  14.032  0.00  0.00    +0.000 Cl
ATOM      3  C   UNL     1       6.372   5.053  15.432  0.00  0.00    +0.000 A 
ATOM      4  C   UNL     1       5.233   4.252  15.437  0.00  0.00    +0.000 A 
ATOM      5  C   UNL     1       4.413   4.213  16.569  0.00  0.00    +0.000 A 
ATOM      6  C   UNL     1       4.723   4.973  17.713  0.00  0.00    +0.000 A 
ATOM      7  C   UNL     1       5.889   5.765  17.685  0.00  0.00    +0.000 A 
ATOM      8  C   UNL     1       6.705   5.808  16.552  0.00  0.00    +0.000 A 
ENDBRANCH   1   6
BRANCH   1   9
ATOM      9  C   UNL     1       3.089   6.265  18.958  0.00  0.00    +0.000 A 
ATOM     10  C   UNL     1       3.013   7.207  17.893  0.00  0.00    +0.000 A 
ATOM     11  C   UNL     1       2.236   8.262  18.315  0.00  0.00    +0.000 A 
ATOM     12  N   UNL     1       1.864   8.050  19.626  0.00  0.00    +0.000 N 
ATOM     13  C   UNL     1       2.403   6.842  20.015  0.00  0.00    +0.000 A 
BRANCH  12  14
ATOM     14  C   UNL     1       1.071   8.907  20.435  0.00  0.00    +0.000 A 
ATOM     15  C   UNL     1       0.358   9.967  19.856  0.00  0.00    +0.000 A 
ATOM     16  C   UNL     1      -0.436  10.793  20.660  0.00  0.00    +0.000 A 
ATOM     17  C   UNL     1      -0.490  10.581  22.034  0.00  0.00    +0.000 A 
ATOM     18 CL   UNL     1      -1.451  11.615  23.020  0.00  0.00    +0.000 Cl
ATOM     19  C   UNL     1       0.225   9.541  22.618  0.00  0.00    +0.000 A 
ATOM     20  C   UNL     1       0.999   8.694  21.819  0.00  0.00    +0.000 A 
ENDBRANCH  12  14
ENDBRANCH   1   9
BRANCH   1  21
ATOM     21  N   UNL     1       2.839   3.796  18.924  0.00  0.00    +0.000 N 
ATOM     22  C   UNL     1       1.548   3.852  18.444  0.00  0.00    +0.000 A 
ATOM     23  C   UNL     1       1.007   2.619  18.707  0.00  0.00    +0.000 A 
ATOM     24  N   UNL     1       1.916   1.817  19.341  0.00  0.00    +0.000 NA
ATOM     25  C   UNL     1       2.997   2.552  19.472  0.00  0.00    +0.000 A 
ENDBRANCH   1  21
TORSDOF 4
ENDMDL
MODEL 2
REMARK VINA RESULT:      -8.5      0.412      1.222
REMARK  Name = 
REMARK  4 active torsions:
REMARK  status: ('A' for Active; 'I' for Inactive)
REMARK    1  A    between atoms: C_5  and  C_6
REMARK    2  A    between atoms: C_6  and  C_7
REMARK    3  A    between atoms: C_6  and  N_19
REMARK    4  A    between atoms: N_10  and  C_11
REMARK                            x       y       z     vdW  Elec       q    Type
REMARK                         _______ _______ _______ _____ _____    ______ ____
ROOT
ATOM      1  C   UNL     1       3.669   4.970  18.921  0.00  0.00    +0.000 C 
ENDROOT
BRANCH   1   6
ATOM      2 CL   UNL     1       7.390   5.164  14.142  0.00  0.00    +0.000 Cl
ATOM      3  C   UNL     1       6.354   5.103  15.514  0.00  0.00    +0.000 A 
ATOM      4  C   UNL     1       5.231   4.280  15.498  0.00  0.00    +0.000 A 
ATOM      5  C   UNL     1       4.379   4.241  16.606  0.00  0.00    +0.000 A 
ATOM      6  C   UNL     1       4.640   5.023  17.747  0.00  0.00    +0.000 A 
ATOM      7  C   UNL     1       5.791   5.837  17.741  0.00  0.00    +0.000 A 
ATOM      8  C   UNL     1       6.639   5.880  16.631  0.00  0.00    +0.000 A 
ENDBRANCH   1   6
BRANCH   1   9
ATOM      9  C   UNL     1       3.000   6.326  18.971  0.00  0.00    +0.000 A 
ATOM     10  C   UNL     1       2.951   7.277  17.913  0.00  0.00    +0.000 A 
ATOM     11  C   UNL     1       2.191   8.345  18.338  0.00  0.00    +0.000 A 
ATOM     12  N   UNL     1       1.806   8.131  19.645  0.00  0.00    +0.000 N 
ATOM     13  C   UNL     1       2.318   6.909  20.028  0.00  0.00    +0.000 A 
BRANCH  12  14
ATOM     14  C   UNL     1       1.025   8.996  20.455  0.00  0.00    +0.000 A 
ATOM     15  C   UNL     1       0.923   8.774  21.837  0.00  0.00    +0.000 A 
ATOM     16  C   UNL     1       0.166   9.644  22.628  0.00  0.00    +0.000 A 
ATOM     17  C   UNL     1      -0.509  10.709  22.039  0.00  0.00    +0.000 A 
ATOM     18 CL   UNL     1      -1.458  11.763  23.016  0.00  0.00    +0.000 Cl
ATOM     19  C   UNL     1      -0.426  10.928  20.669  0.00  0.00    +0.000 A 
ATOM     20  C   UNL     1       0.351  10.080  19.874  0.00  0.00    +0.000 A 
ENDBRANCH  12  14
ENDBRANCH   1   9
BRANCH   1  21
ATOM     21  N   UNL     1       2.701   3.864  18.886  0.00  0.00    +0.000 N 
ATOM     22  C   UNL     1       2.915   2.617  19.434  0.00  0.00    +0.000 A 
ATOM     23  C   UNL     1       1.799   1.883  19.118  0.00  0.00    +0.000 A 
ATOM     24  N   UNL     1       0.918   2.632  18.388  0.00  0.00    +0.000 NA
ATOM     25  C   UNL     1       1.491   3.807  18.250  0.00  0.00    +0.000 A 
ENDBRANCH   1  21
TORSDOF 4
ENDMDL
MODEL 3
REMARK VINA RESULT:      -8.5      0.098      1.370
REMARK  Name = 
REMARK  4 active torsions:
REMARK  status: ('A' for Active; 'I' for Inactive)
REMARK    1  A    between atoms: C_5  and  C_6
REMARK    2  A    between atoms: C_6  and  C_7
REMARK    3  A    between atoms: C_6  and  N_19
REMARK    4  A    between atoms: N_10  and  C_11
REMARK                            x       y       z     vdW  Elec       q    Type
REMARK                         _______ _______ _______ _____ _____    ______ ____
ROOT
ATOM      1  C   UNL     1       3.703   4.953  18.900  0.00  0.00    +0.000 C 
ENDROOT
BRANCH   1   6
ATOM      2 CL   UNL     1       7.479   5.152  14.164  0.00  0.00    +0.000 Cl
ATOM      3  C   UNL     1       6.387   5.102  15.492  0.00  0.00    +0.000 A 
ATOM      4  C   UNL     1       6.644   5.864  16.629  0.00  0.00    +0.000 A 
ATOM      5  C   UNL     1       5.766   5.812  17.716  0.00  0.00    +0.000 A 
ATOM      6  C   UNL     1       4.617   4.999  17.680  0.00  0.00    +0.000 A 
ATOM      7  C   UNL     1       4.375   4.248  16.512  0.00  0.00    +0.000 A 
ATOM      8  C   UNL     1       5.256   4.296  15.428  0.00  0.00    +0.000 A 
ENDBRANCH   1   6
BRANCH   1   9
ATOM      9  C   UNL     1       3.014   6.298  18.957  0.00  0.00    +0.000 A 
ATOM     10  C   UNL     1       2.921   7.240  17.893  0.00  0.00    +0.000 A 
ATOM     11  C   UNL     1       2.157   8.298  18.329  0.00  0.00    +0.000 A 
ATOM     12  N   UNL     1       1.810   8.089  19.648  0.00  0.00    +0.000 N 
ATOM     13  C   UNL     1       2.352   6.879  20.027  0.00  0.00    +0.000 A 
BRANCH  12  14
ATOM     14  C   UNL     1       1.037   8.949  20.472  0.00  0.00    +0.000 A 
ATOM     15  C   UNL     1       0.948   8.717  21.852  0.00  0.00    +0.000 A 
ATOM     16  C   UNL     1       0.198   9.581  22.657  0.00  0.00    +0.000 A 
ATOM     17  C   UNL     1      -0.482  10.650  22.083  0.00  0.00    +0.000 A 
ATOM     18 CL   UNL     1      -1.421  11.697  23.076  0.00  0.00    +0.000 Cl
ATOM     19  C   UNL     1      -0.411  10.880  20.713  0.00  0.00    +0.000 A 
ATOM     20  C   UNL     1       0.358  10.037  19.905  0.00  0.00    +0.000 A 
ENDBRANCH  12  14
ENDBRANCH   1   9
BRANCH   1  21
ATOM     21  N   UNL     1       2.754   3.830  18.931  0.00  0.00    +0.000 N 
ATOM     22  C   UNL     1       1.477   3.870  18.413  0.00  0.00    +0.000 A 
ATOM     23  C   UNL     1       0.924   2.650  18.712  0.00  0.00    +0.000 A 
ATOM     24  N   UNL     1       1.813   1.873  19.403  0.00  0.00    +0.000 NA
ATOM     25  C   UNL     1       2.892   2.610  19.534  0.00  0.00    +0.000 A 
ENDBRANCH   1  21
TORSDOF 4
ENDMDL
MODEL 4
REMARK VINA RESULT:      -8.5      0.422      1.223
REMARK  Name = 
REMARK  4 active torsions:
REMARK  status: ('A' for Active; 'I' for Inactive)
REMARK    1  A    between atoms: C_5  and  C_6
REMARK    2  A    between atoms: C_6  and  C_7
REMARK    3  A    between atoms: C_6  and  N_19
REMARK    4  A    between atoms: N_10  and  C_11
REMARK                            x       y       z     vdW  Elec       q    Type
REMARK                         _______ _______ _______ _____ _____    ______ ____
ROOT
ATOM      1  C   UNL     1       3.652   5.003  18.999  0.00  0.00    +0.000 C 
ENDROOT
BRANCH   1   6
ATOM      2 CL   UNL     1       7.446   5.124  14.275  0.00  0.00    +0.000 Cl
ATOM      3  C   UNL     1       6.350   5.096  15.600  0.00  0.00    +0.000 A 
ATOM      4  C   UNL     1       6.613   5.861  16.733  0.00  0.00    +0.000 A 
ATOM      5  C   UNL     1       5.731   5.827  17.817  0.00  0.00    +0.000 A 
ATOM      6  C   UNL     1       4.571   5.030  17.782  0.00  0.00    +0.000 A 
ATOM      7  C   UNL     1       4.323   4.276  16.617  0.00  0.00    +0.000 A 
ATOM      8  C   UNL     1       5.208   4.305  15.536  0.00  0.00    +0.000 A 
ENDBRANCH   1   6
BRANCH   1   9
ATOM      9  C   UNL     1       2.972   6.354  19.038  0.00  0.00    +0.000 A 
ATOM     10  C   UNL     1       2.911   7.294  17.971  0.00  0.00    +0.000 A 
ATOM     11  C   UNL     1       2.144   8.359  18.388  0.00  0.00    +0.000 A 
ATOM     12  N   UNL     1       1.765   8.154  19.699  0.00  0.00    +0.000 N 
ATOM     13  C   UNL     1       2.289   6.941  20.092  0.00  0.00    +0.000 A 
BRANCH  12  14
ATOM     14  C   UNL     1       0.979   9.021  20.503  0.00  0.00    +0.000 A 
ATOM     15  C   UNL     1       0.296  10.101  19.923  0.00  0.00    +0.000 A 
ATOM     16  C   UNL     1      -0.490  10.937  20.722  0.00  0.00    +0.000 A 
ATOM     17  C   UNL     1      -0.569  10.715  22.094  0.00  0.00    +0.000 A 
ATOM     18 CL   UNL     1      -1.522  11.762  23.074  0.00  0.00    +0.000 Cl
ATOM     19  C   UNL     1       0.115   9.656  22.679  0.00  0.00    +0.000 A 
ATOM     20  C   UNL     1       0.882   8.798  21.884  0.00  0.00    +0.000 A 
ENDBRANCH  12  14
ENDBRANCH   1   9
BRANCH   1  21
ATOM     21  N   UNL     1       2.695   3.887  19.038  0.00  0.00    +0.000 N 
ATOM     22  C   UNL     1       2.949   2.657  19.606  0.00  0.00    +0.000 A 
ATOM     23  C   UNL     1       1.827   1.905  19.365  0.00  0.00    +0.000 A 
ATOM     24  N   UNL     1       0.904   2.627  18.660  0.00  0.00    +0.000 NA
ATOM     25  C   UNL     1       1.456   3.803  18.465  0.00  0.00    +0.000 A 
ENDBRANCH   1  21
TORSDOF 4
ENDMDL
MODEL 5
REMARK VINA RESULT:      -7.9      1.267      1.780
REMARK  Name = 
REMARK  4 active torsions:
REMARK  status: ('A' for Active; 'I' for Inactive)
REMARK    1  A    between atoms: C_5  and  C_6
REMARK    2  A    between atoms: C_6  and  C_7
REMARK    3  A    between atoms: C_6  and  N_19
REMARK    4  A    between atoms: N_10  and  C_11
REMARK                            x       y       z     vdW  Elec       q    Type
REMARK                         _______ _______ _______ _____ _____    ______ ____
ROOT
ATOM      1  C   UNL     1       3.322   5.580  19.747  0.00  0.00    +0.000 C 
ENDROOT
BRANCH   1   6
ATOM      2 CL   UNL     1       7.142   4.424  15.186  0.00  0.00    +0.000 Cl
ATOM      3  C   UNL     1       6.073   4.738  16.496  0.00  0.00    +0.000 A 
ATOM      4  C   UNL     1       4.712   4.477  16.358  0.00  0.00    +0.000 A 
ATOM      5  C   UNL     1       3.839   4.745  17.416  0.00  0.00    +0.000 A 
ATOM      6  C   UNL     1       4.315   5.277  18.630  0.00  0.00    +0.000 A 
ATOM      7  C   UNL     1       5.699   5.519  18.747  0.00  0.00    +0.000 A 
ATOM      8  C   UNL     1       6.570   5.256  17.687  0.00  0.00    +0.000 A 
ENDBRANCH   1   6
BRANCH   1   9
ATOM      9  C   UNL     1       2.661   6.888  19.372  0.00  0.00    +0.000 A 
ATOM     10  C   UNL     1       2.767   7.554  18.118  0.00  0.00    +0.000 A 
ATOM     11  C   UNL     1       1.961   8.670  18.161  0.00  0.00    +0.000 A 
ATOM     12  N   UNL     1       1.393   8.766  19.415  0.00  0.00    +0.000 N 
ATOM     13  C   UNL     1       1.839   7.688  20.151  0.00  0.00    +0.000 A 
BRANCH  12  14
ATOM     14  C   UNL     1       0.509   9.778  19.874  0.00  0.00    +0.000 A 
ATOM     15  C   UNL     1       0.555  10.208  21.209  0.00  0.00    +0.000 A 
ATOM     16  C   UNL     1      -0.307  11.219  21.645  0.00  0.00    +0.000 A 
ATOM     17  C   UNL     1      -1.230  11.774  20.763  0.00  0.00    +0.000 A 
ATOM     18 CL   UNL     1      -2.304  13.002  21.313  0.00  0.00    +0.000 Cl
ATOM     19  C   UNL     1      -1.292  11.344  19.443  0.00  0.00    +0.000 A 
ATOM     20  C   UNL     1      -0.415  10.354  18.990  0.00  0.00    +0.000 A 
ENDBRANCH  12  14
ENDBRANCH   1   9
BRANCH   1  21
ATOM     21  N   UNL     1       2.349   4.515  20.029  0.00  0.00    +0.000 N 
ATOM     22  C   UNL     1       2.282   3.808  21.210  0.00  0.00    +0.000 A 
ATOM     23  C   UNL     1       1.288   2.880  21.024  0.00  0.00    +0.000 A 
ATOM     24  N   UNL     1       0.756   2.987  19.768  0.00  0.00    +0.000 NA
ATOM     25  C   UNL     1       1.421   3.962  19.190  0.00  0.00    +0.000 A 
ENDBRANCH   1  21
TORSDOF 4
ENDMDL
MODEL 6
REMARK VINA RESULT:      -7.9      0.998      1.710
REMARK  Name = 
REMARK  4 active torsions:
REMARK  status: ('A' for Active; 'I' for Inactive)
REMARK    1  A    between atoms: C_5  and  C_6
REMARK    2  A    between atoms: C_6  and  C_7
REMARK    3  A    between atoms: C_6  and  N_19
REMARK    4  A    between atoms: N_10  and  C_11
REMARK                            x       y       z     vdW  Elec       q    Type
REMARK                         _______ _______ _______ _____ _____    ______ ____
ROOT
ATOM      1  C   UNL     1       3.495   5.611  19.354  0.00  0.00    +0.000 C 
ENDROOT
BRANCH   1   6
ATOM      2 CL   UNL     1       7.098   4.806  14.547  0.00  0.00    +0.000 Cl
ATOM      3  C   UNL     1       6.055   5.037  15.896  0.00  0.00    +0.000 A 
ATOM      4  C   UNL     1       6.326   6.044  16.818  0.00  0.00    +0.000 A 
ATOM      5  C   UNL     1       5.488   6.223  17.922  0.00  0.00    +0.000 A 
ATOM      6  C   UNL     1       4.365   5.397  18.119  0.00  0.00    +0.000 A 
ATOM      7  C   UNL     1       4.106   4.394  17.163  0.00  0.00    +0.000 A 
ATOM      8  C   UNL     1       4.947   4.212  16.063  0.00  0.00    +0.000 A 
ENDBRANCH   1   6
BRANCH   1   9
ATOM      9  C   UNL     1       2.754   6.909  19.122  0.00  0.00    +0.000 A 
ATOM     10  C   UNL     1       2.697   7.637  17.901  0.00  0.00    +0.000 A 
ATOM     11  C   UNL     1       1.865   8.719  18.090  0.00  0.00    +0.000 A 
ATOM     12  N   UNL     1       1.440   8.734  19.402  0.00  0.00    +0.000 N 
ATOM     13  C   UNL     1       2.000   7.640  20.027  0.00  0.00    +0.000 A 
BRANCH  12  14
ATOM     14  C   UNL     1       0.581   9.689  20.008  0.00  0.00    +0.000 A 
ATOM     15  C   UNL     1       0.664   9.944  21.385  0.00  0.00    +0.000 A 
ATOM     16  C   UNL     1      -0.174  10.900  21.968  0.00  0.00    +0.000 A 
ATOM     17  C   UNL     1      -1.108  11.575  21.186  0.00  0.00    +0.000 A 
ATOM     18 CL   UNL     1      -2.151  12.735  21.914  0.00  0.00    +0.000 Cl
ATOM     19  C   UNL     1      -1.206  11.318  19.824  0.00  0.00    +0.000 A 
ATOM     20  C   UNL     1      -0.354  10.384  19.228  0.00  0.00    +0.000 A 
ENDBRANCH  12  14
ENDBRANCH   1   9
BRANCH   1  21
ATOM     21  N   UNL     1       2.594   4.497  19.687  0.00  0.00    +0.000 N 
ATOM     22  C   UNL     1       1.513   4.109  18.924  0.00  0.00    +0.000 A 
ATOM     23  C   UNL     1       0.919   3.090  19.625  0.00  0.00    +0.000 A 
ATOM     24  N   UNL     1       1.591   2.851  20.792  0.00  0.00    +0.000 NA
ATOM     25  C   UNL     1       2.578   3.718  20.810  0.00  0.00    +0.000 A 
ENDBRANCH   1  21
TORSDOF 4
ENDMDL
MODEL 7
REMARK VINA RESULT:      -7.8      0.902      1.668
REMARK  Name = 
REMARK  4 active torsions:
REMARK  status: ('A' for Active; 'I' for Inactive)
REMARK    1  A    between atoms: C_5  and  C_6
REMARK    2  A    between atoms: C_6  and  C_7
REMARK    3  A    between atoms: C_6  and  N_19
REMARK    4  A    between atoms: N_10  and  C_11
REMARK                            x       y       z     vdW  Elec       q    Type
REMARK                         _______ _______ _______ _____ _____    ______ ____
ROOT
ATOM      1  C   UNL     1       4.477   4.703  18.153  0.00  0.00    +0.000 C 
ENDROOT
BRANCH   1   6
ATOM      2 CL   UNL     1       7.712   4.948  13.035  0.00  0.00    +0.000 Cl
ATOM      3  C   UNL     1       6.776   4.893  14.477  0.00  0.00    +0.000 A 
ATOM      4  C   UNL     1       7.345   5.278  15.688  0.00  0.00    +0.000 A 
ATOM      5  C   UNL     1       6.590   5.219  16.863  0.00  0.00    +0.000 A 
ATOM      6  C   UNL     1       5.253   4.778  16.843  0.00  0.00    +0.000 A 
ATOM      7  C   UNL     1       4.698   4.406  15.601  0.00  0.00    +0.000 A 
ATOM      8  C   UNL     1       5.455   4.460  14.428  0.00  0.00    +0.000 A 
ENDBRANCH   1   6
BRANCH   1   9
ATOM      9  C   UNL     1       3.741   6.019  18.277  0.00  0.00    +0.000 A 
ATOM     10  C   UNL     1       3.683   7.045  17.292  0.00  0.00    +0.000 A 
ATOM     11  C   UNL     1       2.857   8.041  17.764  0.00  0.00    +0.000 A 
ATOM     12  N   UNL     1       2.436   7.710  19.035  0.00  0.00    +0.000 N 
ATOM     13  C   UNL     1       2.993   6.487  19.346  0.00  0.00    +0.000 A 
BRANCH  12  14
ATOM     14  C   UNL     1       1.584   8.474  19.876  0.00  0.00    +0.000 A 
ATOM     15  C   UNL     1       1.326   8.058  21.190  0.00  0.00    +0.000 A 
ATOM     16  C   UNL     1       0.500   8.828  22.016  0.00  0.00    +0.000 A 
ATOM     17  C   UNL     1      -0.089   9.988  21.521  0.00  0.00    +0.000 A 
ATOM     18 CL   UNL     1      -1.123  10.919  22.535  0.00  0.00    +0.000 Cl
ATOM     19  C   UNL     1       0.149  10.400  20.215  0.00  0.00    +0.000 A 
ATOM     20  C   UNL     1       0.995   9.651  19.392  0.00  0.00    +0.000 A 
ENDBRANCH  12  14
ENDBRANCH   1   9
BRANCH   1  21
ATOM     21  N   UNL     1       3.585   3.542  18.290  0.00  0.00    +0.000 N 
ATOM     22  C   UNL     1       2.421   3.360  17.574  0.00  0.00    +0.000 A 
ATOM     23  C   UNL     1       1.875   2.197  18.056  0.00  0.00    +0.000 A 
ATOM     24  N   UNL     1       2.657   1.670  19.046  0.00  0.00    +0.000 NA
ATOM     25  C   UNL     1       3.664   2.504  19.176  0.00  0.00    +0.000 A 
ENDBRANCH   1  21
TORSDOF 4
ENDMDL
MODEL 8
REMARK VINA RESULT:      -7.4      2.775      4.352
REMARK  Name = 
REMARK  4 active torsions:
REMARK  status: ('A' for Active; 'I' for Inactive)
REMARK    1  A    between atoms: C_5  and  C_6
REMARK    2  A    between atoms: C_6  and  C_7
REMARK    3  A    between atoms: C_6  and  N_19
REMARK    4  A    between atoms: N_10  and  C_11
REMARK                            x       y       z     vdW  Elec       q    Type
REMARK                         _______ _______ _______ _____ _____    ______ ____
ROOT
ATOM      1  C   UNL     1       2.931   6.180  17.863  0.00  0.00    +0.000 C 
ENDROOT
BRANCH   1   6
ATOM      2 CL   UNL     1       1.124   2.206  22.067  0.00  0.00    +0.000 Cl
ATOM      3  C   UNL     1       1.628   3.353  20.888  0.00  0.00    +0.000 A 
ATOM      4  C   UNL     1       1.215   3.215  19.566  0.00  0.00    +0.000 A 
ATOM      5  C   UNL     1       1.636   4.138  18.604  0.00  0.00    +0.000 A 
ATOM      6  C   UNL     1       2.474   5.214  18.951  0.00  0.00    +0.000 A 
ATOM      7  C   UNL     1       2.866   5.338  20.300  0.00  0.00    +0.000 A 
ATOM      8  C   UNL     1       2.450   4.412  21.260  0.00  0.00    +0.000 A 
ENDBRANCH   1   6
BRANCH   1   9
ATOM      9  C   UNL     1       2.377   7.534  18.248  0.00  0.00    +0.000 A 
ATOM     10  C   UNL     1       2.465   8.728  17.477  0.00  0.00    +0.000 A 
ATOM     11  C   UNL     1       1.776   9.716  18.145  0.00  0.00    +0.000 A 
ATOM     12  N   UNL     1       1.304   9.207  19.338  0.00  0.00    +0.000 N 
ATOM     13  C   UNL     1       1.690   7.885  19.400  0.00  0.00    +0.000 A 
BRANCH  12  14
ATOM     14  C   UNL     1       0.556   9.903  20.323  0.00  0.00    +0.000 A 
ATOM     15  C   UNL     1       0.310   9.315  21.573  0.00  0.00    +0.000 A 
ATOM     16  C   UNL     1      -0.412  10.017  22.543  0.00  0.00    +0.000 A 
ATOM     17  C   UNL     1      -0.912  11.284  22.256  0.00  0.00    +0.000 A 
ATOM     18 CL   UNL     1      -1.820  12.133  23.447  0.00  0.00    +0.000 Cl
ATOM     19  C   UNL     1      -0.686  11.868  21.015  0.00  0.00    +0.000 A 
ATOM     20  C   UNL     1       0.059  11.185  20.049  0.00  0.00    +0.000 A 
ENDBRANCH  12  14
ENDBRANCH   1   9
BRANCH   1  21
ATOM     21  N   UNL     1       4.380   6.211  17.620  0.00  0.00    +0.000 N 
ATOM     22  C   UNL     1       5.334   5.764  18.509  0.00  0.00    +0.000 A 
ATOM     23  C   UNL     1       6.542   6.037  17.918  0.00  0.00    +0.000 A 
ATOM     24  N   UNL     1       6.360   6.645  16.706  0.00  0.00    +0.000 NA
ATOM     25  C   UNL     1       5.058   6.751  16.561  0.00  0.00    +0.000 A 
ENDBRANCH   1  21
TORSDOF 4
ENDMDL
MODEL 9
REMARK VINA RESULT:      -7.3      2.708      4.182
REMARK  Name = 
REMARK  4 active torsions:
REMARK  status: ('A' for Active; 'I' for Inactive)
REMARK    1  A    between atoms: C_5  and  C_6
REMARK    2  A    between atoms: C_6  and  C_7
REMARK    3  A    between atoms: C_6  and  N_19
REMARK    4  A    between atoms: N_10  and  C_11
REMARK                            x       y       z     vdW  Elec       q    Type
REMARK                         _______ _______ _______ _____ _____    ______ ____
ROOT
ATOM      1  C   UNL     1       2.978   5.968  17.965  0.00  0.00    +0.000 C 
ENDROOT
BRANCH   1   6
ATOM      2 CL   UNL     1       1.032   2.113  22.217  0.00  0.00    +0.000 Cl
ATOM      3  C   UNL     1       1.576   3.227  21.025  0.00  0.00    +0.000 A 
ATOM      4  C   UNL     1       1.145   3.097  19.707  0.00  0.00    +0.000 A 
ATOM      5  C   UNL     1       1.599   3.992  18.734  0.00  0.00    +0.000 A 
ATOM      6  C   UNL     1       2.487   5.032  19.065  0.00  0.00    +0.000 A 
ATOM      7  C   UNL     1       2.897   5.149  20.409  0.00  0.00    +0.000 A 
ATOM      8  C   UNL     1       2.448   4.251  21.380  0.00  0.00    +0.000 A 
ENDBRANCH   1   6
BRANCH   1   9
ATOM      9  C   UNL     1       2.421   7.334  18.301  0.00  0.00    +0.000 A 
ATOM     10  C   UNL     1       2.484   8.493  17.476  0.00  0.00    +0.000 A 
ATOM     11  C   UNL     1       1.802   9.505  18.114  0.00  0.00    +0.000 A 
ATOM     12  N   UNL     1       1.359   9.046  19.338  0.00  0.00    +0.000 N 
ATOM     13  C   UNL     1       1.756   7.731  19.451  0.00  0.00    +0.000 A 
BRANCH  12  14
ATOM     14  C   UNL     1       0.625   9.781  20.306  0.00  0.00    +0.000 A 
ATOM     15  C   UNL     1       0.030  11.005  19.967  0.00  0.00    +0.000 A 
ATOM     16  C   UNL     1      -0.706  11.711  20.924  0.00  0.00    +0.000 A 
ATOM     17  C   UNL     1      -0.820  11.213  22.219  0.00  0.00    +0.000 A 
ATOM     18 CL   UNL     1      -1.709  12.098  23.398  0.00  0.00    +0.000 Cl
ATOM     19  C   UNL     1      -0.221  10.008  22.568  0.00  0.00    +0.000 A 
ATOM     20  C   UNL     1       0.494   9.282  21.610  0.00  0.00    +0.000 A 
ENDBRANCH  12  14
ENDBRANCH   1   9
BRANCH   1  21
ATOM     21  N   UNL     1       4.433   5.986  17.759  0.00  0.00    +0.000 N 
ATOM     22  C   UNL     1       5.051   6.253  16.555  0.00  0.00    +0.000 A 
ATOM     23  C   UNL     1       6.394   6.100  16.793  0.00  0.00    +0.000 A 
ATOM     24  N   UNL     1       6.617   5.739  18.093  0.00  0.00    +0.000 NA
ATOM     25  C   UNL     1       5.426   5.662  18.643  0.00  0.00    +0.000 A 
ENDBRANCH   1  21
TORSDOF 4
ENDMDL
