MODEL 1
REMARK VINA RESULT:      -8.1      0.000      0.000
REMARK  Name = 
REMARK  10 active torsions:
REMARK  status: ('A' for Active; 'I' for Inactive)
REMARK    1  A    between atoms: C_1  and  C_2
REMARK    2  A    between atoms: C_2  and  C_3
REMARK    3  A    between atoms: C_3  and  C_4
REMARK    4  A    between atoms: C_4  and  N_5
REMARK    5  A    between atoms: C_9  and  C_10
REMARK    6  A    between atoms: C_12  and  C_13
REMARK    7  A    between atoms: C_13  and  N_14
REMARK    8  A    between atoms: C_23  and  N_24
REMARK    9  A    between atoms: N_24  and  C_25
REMARK   10  A    between atoms: C_28  and  O_29
REMARK                            x       y       z     vdW  Elec       q    Type
REMARK                         _______ _______ _______ _____ _____    ______ ____
ROOT
ATOM      1  N   UNL     1       6.676   4.683  14.974  0.00  0.00    +0.000 N 
ATOM      2  C   UNL     1       5.740   5.180  15.848  0.00  0.00    +0.000 A 
ATOM      3  N   UNL     1       6.066   6.378  16.313  0.00  0.00    +0.000 NA
ATOM      4  C   UNL     1       5.189   6.927  17.163  0.00  0.00    +0.000 A 
ATOM      5  C   UNL     1       3.980   6.383  17.583  0.00  0.00    +0.000 A 
ATOM      6  C   UNL     1       3.751   5.101  17.054  0.00  0.00    +0.000 A 
ATOM      7  N   UNL     1       4.635   4.523  16.195  0.00  0.00    +0.000 NA
ATOM      8  H   UNL     1       7.223   5.484  14.673  0.00  0.00    +0.000 HD
ENDROOT
BRANCH   5   9
ATOM      9  C   UNL     1       3.085   7.184  18.458  0.00  0.00    +0.000 A 
ATOM     10  C   UNL     1       2.357   8.282  17.963  0.00  0.00    +0.000 A 
ATOM     11  C   UNL     1       1.372   8.912  18.722  0.00  0.00    +0.000 A 
ATOM     12  C   UNL     1       1.199   8.483  20.030  0.00  0.00    +0.000 A 
ATOM     13  C   UNL     1       1.998   7.447  20.496  0.00  0.00    +0.000 A 
ATOM     14  N   UNL     1       2.925   6.793  19.746  0.00  0.00    +0.000 NA
BRANCH  11  15
ATOM     15  C   UNL     1       0.539  10.011  18.105  0.00  0.00    +0.000 C 
BRANCH  15  16
ATOM     16  N   UNL     1      -0.837  10.135  18.568  0.00  0.00    +0.000 NA
ATOM     17  C   UNL     1      -1.905   9.987  17.582  0.00  0.00    +0.000 C 
ATOM     18  C   UNL     1      -2.573  11.304  17.158  0.00  0.00    +0.000 C 
ATOM     19  O   UNL     1      -3.007  12.056  18.299  0.00  0.00    +0.000 OA
ATOM     20  C   UNL     1      -1.886  12.387  19.124  0.00  0.00    +0.000 C 
ATOM     21  C   UNL     1      -1.150  11.123  19.606  0.00  0.00    +0.000 C 
ENDBRANCH  15  16
ENDBRANCH  11  15
ENDBRANCH   5   9
BRANCH   6  22
ATOM     22  N   UNL     1       2.546   4.405  17.276  0.00  0.00    +0.000 N 
ATOM     23  H   UNL     1       1.750   5.044  17.185  0.00  0.00    +0.000 HD
BRANCH  22  24
ATOM     24  C   UNL     1       2.492   3.496  18.430  0.00  0.00    +0.000 C 
ATOM     25  C   UNL     1       3.789   3.571  19.252  0.00  0.00    +0.000 C 
ATOM     26  C   UNL     1       3.732   2.629  20.457  0.00  0.00    +0.000 C 
ATOM     27  C   UNL     1       2.512   2.899  21.338  0.00  0.00    +0.000 C 
ATOM     28  C   UNL     1       1.213   2.911  20.532  0.00  0.00    +0.000 C 
ATOM     29  C   UNL     1       1.296   3.856  19.328  0.00  0.00    +0.000 C 
BRANCH  27  30
ATOM     30  O   UNL     1       2.432   1.906  22.357  0.00  0.00    +0.000 OA
ATOM     31  H   UNL     1       3.196   1.318  22.274  0.00  0.00    +0.000 HD
ENDBRANCH  27  30
ENDBRANCH  22  24
ENDBRANCH   6  22
BRANCH   1  32
ATOM     32  C   UNL     1       6.223   3.809  13.917  0.00  0.00    +0.000 C 
BRANCH  32  33
ATOM     33  C   UNL     1       7.077   4.078  12.672  0.00  0.00    +0.000 C 
BRANCH  33  35
ATOM     34  C   UNL     1       5.385   2.566  11.558  0.00  0.00    +0.000 C 
ATOM     35  C   UNL     1       6.825   3.047  11.568  0.00  0.00    +0.000 C 
ENDBRANCH  33  35
ENDBRANCH  32  33
ENDBRANCH   1  32
TORSDOF 9
ENDMDL
MODEL 2
REMARK VINA RESULT:      -8.0      1.210      1.622
REMARK  Name = 
REMARK  10 active torsions:
REMARK  status: ('A' for Active; 'I' for Inactive)
REMARK    1  A    between atoms: C_1  and  C_2
REMARK    2  A    between atoms: C_2  and  C_3
REMARK    3  A    between atoms: C_3  and  C_4
REMARK    4  A    between atoms: C_4  and  N_5
REMARK    5  A    between atoms: C_9  and  C_10
REMARK    6  A    between atoms: C_12  and  C_13
REMARK    7  A    between atoms: C_13  and  N_14
REMARK    8  A    between atoms: C_23  and  N_24
REMARK    9  A    between atoms: N_24  and  C_25
REMARK   10  A    between atoms: C_28  and  O_29
REMARK                            x       y       z     vdW  Elec       q    Type
REMARK                         _______ _______ _______ _____ _____    ______ ____
ROOT
ATOM      1  N   UNL     1       6.892   4.566  14.601  0.00  0.00    +0.000 N 
ATOM      2  C   UNL     1       5.985   5.037  15.518  0.00  0.00    +0.000 A 
ATOM      3  N   UNL     1       6.240   6.283  15.891  0.00  0.00    +0.000 NA
ATOM      4  C   UNL     1       5.384   6.809  16.776  0.00  0.00    +0.000 A 
ATOM      5  C   UNL     1       4.261   6.195  17.319  0.00  0.00    +0.000 A 
ATOM      6  C   UNL     1       4.104   4.869  16.880  0.00  0.00    +0.000 A 
ATOM      7  N   UNL     1       4.969   4.314  15.987  0.00  0.00    +0.000 NA
ATOM      8  H   UNL     1       7.345   5.389  14.215  0.00  0.00    +0.000 HD
ENDROOT
BRANCH   5   9
ATOM      9  C   UNL     1       3.368   6.972  18.217  0.00  0.00    +0.000 A 
ATOM     10  C   UNL     1       2.682   8.115  17.769  0.00  0.00    +0.000 A 
ATOM     11  C   UNL     1       1.697   8.730  18.540  0.00  0.00    +0.000 A 
ATOM     12  C   UNL     1       1.482   8.236  19.818  0.00  0.00    +0.000 A 
ATOM     13  C   UNL     1       2.242   7.154  20.243  0.00  0.00    +0.000 A 
ATOM     14  N   UNL     1       3.168   6.515  19.479  0.00  0.00    +0.000 NA
BRANCH  11  15
ATOM     15  C   UNL     1       0.908   9.884  17.967  0.00  0.00    +0.000 C 
BRANCH  15  16
ATOM     16  N   UNL     1       0.397  10.869  18.912  0.00  0.00    +0.000 NA
ATOM     17  C   UNL     1      -0.865  11.532  18.592  0.00  0.00    +0.000 C 
ATOM     18  C   UNL     1      -0.720  12.981  18.100  0.00  0.00    +0.000 C 
ATOM     19  O   UNL     1       0.072  13.760  19.006  0.00  0.00    +0.000 OA
ATOM     20  C   UNL     1       1.387  13.206  19.109  0.00  0.00    +0.000 C 
ATOM     21  C   UNL     1       1.346  11.747  19.604  0.00  0.00    +0.000 C 
ENDBRANCH  15  16
ENDBRANCH  11  15
ENDBRANCH   5   9
BRANCH   6  22
ATOM     22  N   UNL     1       2.984   4.092  17.234  0.00  0.00    +0.000 N 
ATOM     23  H   UNL     1       2.177   4.358  16.661  0.00  0.00    +0.000 HD
BRANCH  22  24
ATOM     24  C   UNL     1       2.705   3.920  18.667  0.00  0.00    +0.000 C 
ATOM     25  C   UNL     1       1.199   3.740  18.918  0.00  0.00    +0.000 C 
ATOM     26  C   UNL     1       0.908   3.556  20.409  0.00  0.00    +0.000 C 
ATOM     27  C   UNL     1       1.702   2.395  21.009  0.00  0.00    +0.000 C 
ATOM     28  C   UNL     1       3.197   2.505  20.705  0.00  0.00    +0.000 C 
ATOM     29  C   UNL     1       3.464   2.695  19.207  0.00  0.00    +0.000 C 
BRANCH  27  30
ATOM     30  O   UNL     1       1.505   2.361  22.420  0.00  0.00    +0.000 OA
ATOM     31  H   UNL     1       0.994   3.142  22.678  0.00  0.00    +0.000 HD
ENDBRANCH  27  30
ENDBRANCH  22  24
ENDBRANCH   6  22
BRANCH   1  32
ATOM     32  C   UNL     1       6.438   3.595  13.632  0.00  0.00    +0.000 C 
BRANCH  32  33
ATOM     33  C   UNL     1       5.354   4.251  12.768  0.00  0.00    +0.000 C 
BRANCH  33  35
ATOM     34  C   UNL     1       5.572   2.073  11.502  0.00  0.00    +0.000 C 
ATOM     35  C   UNL     1       4.664   3.239  11.847  0.00  0.00    +0.000 C 
ENDBRANCH  33  35
ENDBRANCH  32  33
ENDBRANCH   1  32
TORSDOF 9
ENDMDL
MODEL 3
REMARK VINA RESULT:      -7.8      3.303     10.604
REMARK  Name = 
REMARK  10 active torsions:
REMARK  status: ('A' for Active; 'I' for Inactive)
REMARK    1  A    between atoms: C_1  and  C_2
REMARK    2  A    between atoms: C_2  and  C_3
REMARK    3  A    between atoms: C_3  and  C_4
REMARK    4  A    between atoms: C_4  and  N_5
REMARK    5  A    between atoms: C_9  and  C_10
REMARK    6  A    between atoms: C_12  and  C_13
REMARK    7  A    between atoms: C_13  and  N_14
REMARK    8  A    between atoms: C_23  and  N_24
REMARK    9  A    between atoms: N_24  and  C_25
REMARK   10  A    between atoms: C_28  and  O_29
REMARK                            x       y       z     vdW  Elec       q    Type
REMARK                         _______ _______ _______ _____ _____    ______ ____
ROOT
ATOM      1  N   UNL     1      -1.841  11.916  23.525  0.00  0.00    +0.000 N 
ATOM      2  C   UNL     1      -1.096  11.327  22.533  0.00  0.00    +0.000 A 
ATOM      3  N   UNL     1      -0.180  10.496  23.011  0.00  0.00    +0.000 NA
ATOM      4  C   UNL     1       0.575   9.877  22.094  0.00  0.00    +0.000 A 
ATOM      5  C   UNL     1       0.480  10.001  20.713  0.00  0.00    +0.000 A 
ATOM      6  C   UNL     1      -0.500  10.928  20.318  0.00  0.00    +0.000 A 
ATOM      7  N   UNL     1      -1.271  11.574  21.236  0.00  0.00    +0.000 NA
ATOM      8  H   UNL     1      -1.706  11.339  24.349  0.00  0.00    +0.000 HD
ENDROOT
BRANCH   5   9
ATOM      9  C   UNL     1       1.341   9.156  19.844  0.00  0.00    +0.000 A 
ATOM     10  C   UNL     1       1.779   7.883  20.253  0.00  0.00    +0.000 A 
ATOM     11  C   UNL     1       2.417   7.009  19.374  0.00  0.00    +0.000 A 
ATOM     12  C   UNL     1       2.700   7.477  18.098  0.00  0.00    +0.000 A 
ATOM     13  C   UNL     1       2.317   8.771  17.770  0.00  0.00    +0.000 A 
ATOM     14  N   UNL     1       1.649   9.612  18.604  0.00  0.00    +0.000 NA
BRANCH  11  15
ATOM     15  C   UNL     1       2.764   5.611  19.827  0.00  0.00    +0.000 C 
BRANCH  15  16
ATOM     16  N   UNL     1       2.780   4.571  18.807  0.00  0.00    +0.000 NA
ATOM     17  C   UNL     1       1.496   4.057  18.334  0.00  0.00    +0.000 C 
ATOM     18  C   UNL     1       1.125   2.667  18.875  0.00  0.00    +0.000 C 
ATOM     19  O   UNL     1       2.184   1.726  18.658  0.00  0.00    +0.000 OA
ATOM     20  C   UNL     1       3.367   2.152  19.340  0.00  0.00    +0.000 C 
ATOM     21  C   UNL     1       3.824   3.542  18.859  0.00  0.00    +0.000 C 
ENDBRANCH  15  16
ENDBRANCH  11  15
ENDBRANCH   5   9
BRANCH   6  22
ATOM     22  N   UNL     1      -0.825  11.141  18.964  0.00  0.00    +0.000 N 
ATOM     23  H   UNL     1      -0.390  12.007  18.631  0.00  0.00    +0.000 HD
BRANCH  22  24
ATOM     24  C   UNL     1      -2.227  10.950  18.566  0.00  0.00    +0.000 C 
ATOM     25  C   UNL     1      -3.121  12.056  19.148  0.00  0.00    +0.000 C 
ATOM     26  C   UNL     1      -4.581  11.862  18.730  0.00  0.00    +0.000 C 
ATOM     27  C   UNL     1      -4.736  11.780  17.211  0.00  0.00    +0.000 C 
ATOM     28  C   UNL     1      -3.798  10.742  16.594  0.00  0.00    +0.000 C 
ATOM     29  C   UNL     1      -2.344  10.953  17.031  0.00  0.00    +0.000 C 
BRANCH  27  30
ATOM     30  O   UNL     1      -6.085  11.455  16.887  0.00  0.00    +0.000 OA
ATOM     31  H   UNL     1      -6.367  10.718  17.448  0.00  0.00    +0.000 HD
ENDBRANCH  27  30
ENDBRANCH  22  24
ENDBRANCH   6  22
BRANCH   1  32
ATOM     32  C   UNL     1      -3.211  12.266  23.230  0.00  0.00    +0.000 C 
BRANCH  32  33
ATOM     33  C   UNL     1      -3.743  13.132  24.379  0.00  0.00    +0.000 C 
BRANCH  33  35
ATOM     34  C   UNL     1      -5.991  13.303  23.235  0.00  0.00    +0.000 C 
ATOM     35  C   UNL     1      -4.871  14.063  23.923  0.00  0.00    +0.000 C 
ENDBRANCH  33  35
ENDBRANCH  32  33
ENDBRANCH   1  32
TORSDOF 9
ENDMDL
MODEL 4
REMARK VINA RESULT:      -7.7      4.703      8.290
REMARK  Name = 
REMARK  10 active torsions:
REMARK  status: ('A' for Active; 'I' for Inactive)
REMARK    1  A    between atoms: C_1  and  C_2
REMARK    2  A    between atoms: C_2  and  C_3
REMARK    3  A    between atoms: C_3  and  C_4
REMARK    4  A    between atoms: C_4  and  N_5
REMARK    5  A    between atoms: C_9  and  C_10
REMARK    6  A    between atoms: C_12  and  C_13
REMARK    7  A    between atoms: C_13  and  N_14
REMARK    8  A    between atoms: C_23  and  N_24
REMARK    9  A    between atoms: N_24  and  C_25
REMARK   10  A    between atoms: C_28  and  O_29
REMARK                            x       y       z     vdW  Elec       q    Type
REMARK                         _______ _______ _______ _____ _____    ______ ____
ROOT
ATOM      1  N   UNL     1       1.811   6.974  20.885  0.00  0.00    +0.000 N 
ATOM      2  C   UNL     1       1.140   8.158  21.072  0.00  0.00    +0.000 A 
ATOM      3  N   UNL     1       1.036   8.487  22.352  0.00  0.00    +0.000 NA
ATOM      4  C   UNL     1       0.402   9.639  22.604  0.00  0.00    +0.000 A 
ATOM      5  C   UNL     1      -0.131  10.521  21.671  0.00  0.00    +0.000 A 
ATOM      6  C   UNL     1       0.007  10.060  20.350  0.00  0.00    +0.000 A 
ATOM      7  N   UNL     1       0.641   8.887  20.074  0.00  0.00    +0.000 NA
ATOM      8  H   UNL     1       2.320   6.809  21.748  0.00  0.00    +0.000 HD
ENDROOT
BRANCH   5   9
ATOM      9  C   UNL     1      -0.716  11.806  22.134  0.00  0.00    +0.000 A 
ATOM     10  C   UNL     1      -1.978  11.864  22.752  0.00  0.00    +0.000 A 
ATOM     11  C   UNL     1      -2.444  13.027  23.362  0.00  0.00    +0.000 A 
ATOM     12  C   UNL     1      -1.661  14.167  23.253  0.00  0.00    +0.000 A 
ATOM     13  C   UNL     1      -0.458  14.076  22.563  0.00  0.00    +0.000 A 
ATOM     14  N   UNL     1       0.028  12.934  22.009  0.00  0.00    +0.000 NA
BRANCH  11  15
ATOM     15  C   UNL     1      -3.755  13.006  24.113  0.00  0.00    +0.000 C 
BRANCH  15  16
ATOM     16  N   UNL     1      -4.904  13.611  23.453  0.00  0.00    +0.000 NA
ATOM     17  C   UNL     1      -6.215  13.453  24.081  0.00  0.00    +0.000 C 
ATOM     18  C   UNL     1      -7.133  12.428  23.396  0.00  0.00    +0.000 C 
ATOM     19  O   UNL     1      -7.247  12.691  21.992  0.00  0.00    +0.000 OA
ATOM     20  C   UNL     1      -5.962  12.602  21.369  0.00  0.00    +0.000 C 
ATOM     21  C   UNL     1      -4.967  13.602  21.988  0.00  0.00    +0.000 C 
ENDBRANCH  15  16
ENDBRANCH  11  15
ENDBRANCH   5   9
BRANCH   6  22
ATOM     22  N   UNL     1      -0.382  10.838  19.242  0.00  0.00    +0.000 N 
ATOM     23  H   UNL     1      -0.059  11.804  19.361  0.00  0.00    +0.000 HD
BRANCH  22  24
ATOM     24  C   UNL     1      -1.764  10.694  18.765  0.00  0.00    +0.000 C 
ATOM     25  C   UNL     1      -2.552  12.000  18.954  0.00  0.00    +0.000 C 
ATOM     26  C   UNL     1      -3.991  11.853  18.453  0.00  0.00    +0.000 C 
ATOM     27  C   UNL     1      -4.046  11.389  16.997  0.00  0.00    +0.000 C 
ATOM     28  C   UNL     1      -3.203  10.135  16.762  0.00  0.00    +0.000 C 
ATOM     29  C   UNL     1      -1.769  10.304  17.277  0.00  0.00    +0.000 C 
BRANCH  27  30
ATOM     30  O   UNL     1      -5.398  11.131  16.630  0.00  0.00    +0.000 OA
ATOM     31  H   UNL     1      -5.401  10.535  15.867  0.00  0.00    +0.000 HD
ENDBRANCH  27  30
ENDBRANCH  22  24
ENDBRANCH   6  22
BRANCH   1  32
ATOM     32  C   UNL     1       2.577   6.811  19.671  0.00  0.00    +0.000 C 
BRANCH  32  33
ATOM     33  C   UNL     1       2.344   5.389  19.145  0.00  0.00    +0.000 C 
BRANCH  33  35
ATOM     34  C   UNL     1       2.381   3.476  20.797  0.00  0.00    +0.000 C 
ATOM     35  C   UNL     1       1.530   4.540  20.127  0.00  0.00    +0.000 C 
ENDBRANCH  33  35
ENDBRANCH  32  33
ENDBRANCH   1  32
TORSDOF 9
ENDMDL
MODEL 5
REMARK VINA RESULT:      -7.6      4.292      7.978
REMARK  Name = 
REMARK  10 active torsions:
REMARK  status: ('A' for Active; 'I' for Inactive)
REMARK    1  A    between atoms: C_1  and  C_2
REMARK    2  A    between atoms: C_2  and  C_3
REMARK    3  A    between atoms: C_3  and  C_4
REMARK    4  A    between atoms: C_4  and  N_5
REMARK    5  A    between atoms: C_9  and  C_10
REMARK    6  A    between atoms: C_12  and  C_13
REMARK    7  A    between atoms: C_13  and  N_14
REMARK    8  A    between atoms: C_23  and  N_24
REMARK    9  A    between atoms: N_24  and  C_25
REMARK   10  A    between atoms: C_28  and  O_29
REMARK                            x       y       z     vdW  Elec       q    Type
REMARK                         _______ _______ _______ _____ _____    ______ ____
ROOT
ATOM      1  N   UNL     1       2.144   7.045  20.468  0.00  0.00    +0.000 N 
ATOM      2  C   UNL     1       1.430   8.190  20.723  0.00  0.00    +0.000 A 
ATOM      3  N   UNL     1       1.376   8.478  22.016  0.00  0.00    +0.000 NA
ATOM      4  C   UNL     1       0.703   9.591  22.334  0.00  0.00    +0.000 A 
ATOM      5  C   UNL     1       0.083  10.472  21.455  0.00  0.00    +0.000 A 
ATOM      6  C   UNL     1       0.175  10.055  20.116  0.00  0.00    +0.000 A 
ATOM      7  N   UNL     1       0.847   8.922  19.774  0.00  0.00    +0.000 NA
ATOM      8  H   UNL     1       2.703   6.880  21.299  0.00  0.00    +0.000 HD
ENDROOT
BRANCH   5   9
ATOM      9  C   UNL     1      -0.536  11.715  21.985  0.00  0.00    +0.000 A 
ATOM     10  C   UNL     1      -1.776  11.697  22.651  0.00  0.00    +0.000 A 
ATOM     11  C   UNL     1      -2.266  12.818  23.319  0.00  0.00    +0.000 A 
ATOM     12  C   UNL     1      -1.535  13.993  23.222  0.00  0.00    +0.000 A 
ATOM     13  C   UNL     1      -0.357  13.978  22.486  0.00  0.00    +0.000 A 
ATOM     14  N   UNL     1       0.155  12.876  21.874  0.00  0.00    +0.000 NA
BRANCH  11  15
ATOM     15  C   UNL     1      -3.545  12.715  24.116  0.00  0.00    +0.000 C 
BRANCH  15  16
ATOM     16  N   UNL     1      -4.780  12.538  23.364  0.00  0.00    +0.000 NA
ATOM     17  C   UNL     1      -4.844  13.095  22.014  0.00  0.00    +0.000 C 
ATOM     18  C   UNL     1      -5.672  14.383  21.891  0.00  0.00    +0.000 C 
ATOM     19  O   UNL     1      -6.979  14.215  22.456  0.00  0.00    +0.000 OA
ATOM     20  C   UNL     1      -6.875  13.901  23.848  0.00  0.00    +0.000 C 
ATOM     21  C   UNL     1      -6.061  12.612  24.075  0.00  0.00    +0.000 C 
ENDBRANCH  15  16
ENDBRANCH  11  15
ENDBRANCH   5   9
BRANCH   6  22
ATOM     22  N   UNL     1      -0.305  10.845  19.053  0.00  0.00    +0.000 N 
ATOM     23  H   UNL     1       0.028  11.809  19.154  0.00  0.00    +0.000 HD
BRANCH  22  24
ATOM     24  C   UNL     1      -1.723  10.706  18.693  0.00  0.00    +0.000 C 
ATOM     25  C   UNL     1      -2.496  12.001  18.985  0.00  0.00    +0.000 C 
ATOM     26  C   UNL     1      -3.972  11.859  18.606  0.00  0.00    +0.000 C 
ATOM     27  C   UNL     1      -4.151  11.437  17.147  0.00  0.00    +0.000 C 
ATOM     28  C   UNL     1      -3.328  10.194  16.805  0.00  0.00    +0.000 C 
ATOM     29  C   UNL     1      -1.855  10.357  17.200  0.00  0.00    +0.000 C 
BRANCH  27  30
ATOM     30  O   UNL     1      -5.529  11.180  16.891  0.00  0.00    +0.000 OA
ATOM     31  H   UNL     1      -5.928  10.814  17.693  0.00  0.00    +0.000 HD
ENDBRANCH  27  30
ENDBRANCH  22  24
ENDBRANCH   6  22
BRANCH   1  32
ATOM     32  C   UNL     1       2.855   6.953  19.213  0.00  0.00    +0.000 C 
BRANCH  32  33
ATOM     33  C   UNL     1       2.972   5.470  18.838  0.00  0.00    +0.000 C 
BRANCH  33  35
ATOM     34  C   UNL     1       4.720   3.661  19.089  0.00  0.00    +0.000 C 
ATOM     35  C   UNL     1       4.424   5.058  18.574  0.00  0.00    +0.000 C 
ENDBRANCH  33  35
ENDBRANCH  32  33
ENDBRANCH   1  32
TORSDOF 9
ENDMDL
MODEL 6
REMARK VINA RESULT:      -7.5      2.998      9.961
REMARK  Name = 
REMARK  10 active torsions:
REMARK  status: ('A' for Active; 'I' for Inactive)
REMARK    1  A    between atoms: C_1  and  C_2
REMARK    2  A    between atoms: C_2  and  C_3
REMARK    3  A    between atoms: C_3  and  C_4
REMARK    4  A    between atoms: C_4  and  N_5
REMARK    5  A    between atoms: C_9  and  C_10
REMARK    6  A    between atoms: C_12  and  C_13
REMARK    7  A    between atoms: C_13  and  N_14
REMARK    8  A    between atoms: C_23  and  N_24
REMARK    9  A    between atoms: N_24  and  C_25
REMARK   10  A    between atoms: C_28  and  O_29
REMARK                            x       y       z     vdW  Elec       q    Type
REMARK                         _______ _______ _______ _____ _____    ______ ____
ROOT
ATOM      1  N   UNL     1       0.319  15.139  18.928  0.00  0.00    +0.000 N 
ATOM      2  C   UNL     1       0.449  13.772  18.957  0.00  0.00    +0.000 A 
ATOM      3  N   UNL     1       1.704  13.377  18.797  0.00  0.00    +0.000 NA
ATOM      4  C   UNL     1       1.903  12.053  18.827  0.00  0.00    +0.000 A 
ATOM      5  C   UNL     1       0.942  11.069  19.027  0.00  0.00    +0.000 A 
ATOM      6  C   UNL     1      -0.355  11.596  19.154  0.00  0.00    +0.000 A 
ATOM      7  N   UNL     1      -0.578  12.939  19.117  0.00  0.00    +0.000 NA
ATOM      8  H   UNL     1       1.251  15.506  19.097  0.00  0.00    +0.000 HD
ENDROOT
BRANCH   5   9
ATOM      9  C   UNL     1       1.364   9.648  19.128  0.00  0.00    +0.000 A 
ATOM     10  C   UNL     1       2.119   9.028  18.116  0.00  0.00    +0.000 A 
ATOM     11  C   UNL     1       2.684   7.765  18.290  0.00  0.00    +0.000 A 
ATOM     12  C   UNL     1       2.392   7.089  19.465  0.00  0.00    +0.000 A 
ATOM     13  C   UNL     1       1.576   7.713  20.400  0.00  0.00    +0.000 A 
ATOM     14  N   UNL     1       1.063   8.965  20.261  0.00  0.00    +0.000 NA
BRANCH  11  15
ATOM     15  C   UNL     1       3.582   7.192  17.219  0.00  0.00    +0.000 C 
BRANCH  15  16
ATOM     16  N   UNL     1       4.464   6.100  17.611  0.00  0.00    +0.000 NA
ATOM     17  C   UNL     1       5.902   6.361  17.644  0.00  0.00    +0.000 C 
ATOM     18  C   UNL     1       6.688   5.761  16.468  0.00  0.00    +0.000 C 
ATOM     19  O   UNL     1       6.407   4.363  16.315  0.00  0.00    +0.000 OA
ATOM     20  C   UNL     1       5.015   4.169  16.047  0.00  0.00    +0.000 C 
ATOM     21  C   UNL     1       4.139   4.736  17.180  0.00  0.00    +0.000 C 
ENDBRANCH  15  16
ENDBRANCH  11  15
ENDBRANCH   5   9
BRANCH   6  22
ATOM     22  N   UNL     1      -1.466  10.783  19.454  0.00  0.00    +0.000 N 
ATOM     23  H   UNL     1      -1.181  10.011  20.064  0.00  0.00    +0.000 HD
BRANCH  22  24
ATOM     24  C   UNL     1      -2.352  10.411  18.341  0.00  0.00    +0.000 C 
ATOM     25  C   UNL     1      -3.299  11.565  17.980  0.00  0.00    +0.000 C 
ATOM     26  C   UNL     1      -4.219  11.180  16.819  0.00  0.00    +0.000 C 
ATOM     27  C   UNL     1      -3.430  10.718  15.593  0.00  0.00    +0.000 C 
ATOM     28  C   UNL     1      -2.420   9.623  15.939  0.00  0.00    +0.000 C 
ATOM     29  C   UNL     1      -1.515  10.029  17.108  0.00  0.00    +0.000 C 
BRANCH  27  30
ATOM     30  O   UNL     1      -4.332  10.237  14.599  0.00  0.00    +0.000 OA
ATOM     31  H   UNL     1      -4.673  10.994  14.102  0.00  0.00    +0.000 HD
ENDBRANCH  27  30
ENDBRANCH  22  24
ENDBRANCH   6  22
BRANCH   1  32
ATOM     32  C   UNL     1      -0.736  15.739  19.712  0.00  0.00    +0.000 C 
BRANCH  32  33
ATOM     33  C   UNL     1      -1.161  17.043  19.024  0.00  0.00    +0.000 C 
BRANCH  33  35
ATOM     34  C   UNL     1      -0.622  18.624  17.126  0.00  0.00    +0.000 C 
ATOM     35  C   UNL     1      -0.518  17.200  17.642  0.00  0.00    +0.000 C 
ENDBRANCH  33  35
ENDBRANCH  32  33
ENDBRANCH   1  32
TORSDOF 9
ENDMDL
MODEL 7
REMARK VINA RESULT:      -7.5      1.248      1.639
REMARK  Name = 
REMARK  10 active torsions:
REMARK  status: ('A' for Active; 'I' for Inactive)
REMARK    1  A    between atoms: C_1  and  C_2
REMARK    2  A    between atoms: C_2  and  C_3
REMARK    3  A    between atoms: C_3  and  C_4
REMARK    4  A    between atoms: C_4  and  N_5
REMARK    5  A    between atoms: C_9  and  C_10
REMARK    6  A    between atoms: C_12  and  C_13
REMARK    7  A    between atoms: C_13  and  N_14
REMARK    8  A    between atoms: C_23  and  N_24
REMARK    9  A    between atoms: N_24  and  C_25
REMARK   10  A    between atoms: C_28  and  O_29
REMARK                            x       y       z     vdW  Elec       q    Type
REMARK                         _______ _______ _______ _____ _____    ______ ____
ROOT
ATOM      1  N   UNL     1       6.528   4.493  15.607  0.00  0.00    +0.000 N 
ATOM      2  C   UNL     1       5.557   5.099  16.366  0.00  0.00    +0.000 A 
ATOM      3  N   UNL     1       5.898   6.323  16.743  0.00  0.00    +0.000 NA
ATOM      4  C   UNL     1       4.990   6.977  17.478  0.00  0.00    +0.000 A 
ATOM      5  C   UNL     1       3.735   6.515  17.860  0.00  0.00    +0.000 A 
ATOM      6  C   UNL     1       3.491   5.198  17.434  0.00  0.00    +0.000 A 
ATOM      7  N   UNL     1       4.406   4.514  16.694  0.00  0.00    +0.000 NA
ATOM      8  H   UNL     1       7.125   5.243  15.274  0.00  0.00    +0.000 HD
ENDROOT
BRANCH   5   9
ATOM      9  C   UNL     1       2.817   7.422  18.596  0.00  0.00    +0.000 A 
ATOM     10  C   UNL     1       2.184   8.507  17.961  0.00  0.00    +0.000 A 
ATOM     11  C   UNL     1       1.177   9.239  18.587  0.00  0.00    +0.000 A 
ATOM     12  C   UNL     1       0.884   8.926  19.907  0.00  0.00    +0.000 A 
ATOM     13  C   UNL     1       1.594   7.898  20.514  0.00  0.00    +0.000 A 
ATOM     14  N   UNL     1       2.542   7.145  19.895  0.00  0.00    +0.000 NA
BRANCH  11  15
ATOM     15  C   UNL     1       0.448  10.318  17.823  0.00  0.00    +0.000 C 
BRANCH  15  16
ATOM     16  N   UNL     1       0.321  11.616  18.472  0.00  0.00    +0.000 NA
ATOM     17  C   UNL     1       1.491  12.150  19.167  0.00  0.00    +0.000 C 
ATOM     18  C   UNL     1       1.421  12.060  20.700  0.00  0.00    +0.000 C 
ATOM     19  O   UNL     1       0.203  12.631  21.197  0.00  0.00    +0.000 OA
ATOM     20  C   UNL     1      -0.922  11.920  20.672  0.00  0.00    +0.000 C 
ATOM     21  C   UNL     1      -0.943  11.959  19.132  0.00  0.00    +0.000 C 
ENDBRANCH  15  16
ENDBRANCH  11  15
ENDBRANCH   5   9
BRANCH   6  22
ATOM     22  N   UNL     1       2.247   4.566  17.634  0.00  0.00    +0.000 N 
ATOM     23  H   UNL     1       1.493   5.259  17.598  0.00  0.00    +0.000 HD
BRANCH  22  24
ATOM     24  C   UNL     1       2.152   3.590  18.729  0.00  0.00    +0.000 C 
ATOM     25  C   UNL     1       3.450   3.556  19.551  0.00  0.00    +0.000 C 
ATOM     26  C   UNL     1       3.350   2.543  20.695  0.00  0.00    +0.000 C 
ATOM     27  C   UNL     1       2.143   2.812  21.594  0.00  0.00    +0.000 C 
ATOM     28  C   UNL     1       0.846   2.932  20.792  0.00  0.00    +0.000 C 
ATOM     29  C   UNL     1       0.972   3.946  19.650  0.00  0.00    +0.000 C 
BRANCH  27  30
ATOM     30  O   UNL     1       2.017   1.761  22.549  0.00  0.00    +0.000 OA
ATOM     31  H   UNL     1       2.703   1.875  23.222  0.00  0.00    +0.000 HD
ENDBRANCH  27  30
ENDBRANCH  22  24
ENDBRANCH   6  22
BRANCH   1  32
ATOM     32  C   UNL     1       6.110   3.540  14.604  0.00  0.00    +0.000 C 
BRANCH  32  33
ATOM     33  C   UNL     1       5.695   4.317  13.348  0.00  0.00    +0.000 C 
BRANCH  33  35
ATOM     34  C   UNL     1       4.393   3.252  11.461  0.00  0.00    +0.000 C 
ATOM     35  C   UNL     1       5.762   3.449  12.087  0.00  0.00    +0.000 C 
ENDBRANCH  33  35
ENDBRANCH  32  33
ENDBRANCH   1  32
TORSDOF 9
ENDMDL
MODEL 8
REMARK VINA RESULT:      -7.5      3.776     10.888
REMARK  Name = 
REMARK  10 active torsions:
REMARK  status: ('A' for Active; 'I' for Inactive)
REMARK    1  A    between atoms: C_1  and  C_2
REMARK    2  A    between atoms: C_2  and  C_3
REMARK    3  A    between atoms: C_3  and  C_4
REMARK    4  A    between atoms: C_4  and  N_5
REMARK    5  A    between atoms: C_9  and  C_10
REMARK    6  A    between atoms: C_12  and  C_13
REMARK    7  A    between atoms: C_13  and  N_14
REMARK    8  A    between atoms: C_23  and  N_24
REMARK    9  A    between atoms: N_24  and  C_25
REMARK   10  A    between atoms: C_28  and  O_29
REMARK                            x       y       z     vdW  Elec       q    Type
REMARK                         _______ _______ _______ _____ _____    ______ ____
ROOT
ATOM      1  N   UNL     1      -1.736  12.255  23.381  0.00  0.00    +0.000 N 
ATOM      2  C   UNL     1      -0.944  11.613  22.461  0.00  0.00    +0.000 A 
ATOM      3  N   UNL     1      -0.669  10.364  22.811  0.00  0.00    +0.000 NA
ATOM      4  C   UNL     1       0.091   9.675  21.951  0.00  0.00    +0.000 A 
ATOM      5  C   UNL     1       0.596  10.126  20.736  0.00  0.00    +0.000 A 
ATOM      6  C   UNL     1       0.272  11.470  20.481  0.00  0.00    +0.000 A 
ATOM      7  N   UNL     1      -0.493  12.189  21.348  0.00  0.00    +0.000 NA
ATOM      8  H   UNL     1      -2.160  11.520  23.939  0.00  0.00    +0.000 HD
ENDROOT
BRANCH   5   9
ATOM      9  C   UNL     1       1.343   9.184  19.863  0.00  0.00    +0.000 A 
ATOM     10  C   UNL     1       1.730   7.908  20.312  0.00  0.00    +0.000 A 
ATOM     11  C   UNL     1       2.252   6.951  19.444  0.00  0.00    +0.000 A 
ATOM     12  C   UNL     1       2.476   7.332  18.128  0.00  0.00    +0.000 A 
ATOM     13  C   UNL     1       2.150   8.630  17.754  0.00  0.00    +0.000 A 
ATOM     14  N   UNL     1       1.592   9.554  18.582  0.00  0.00    +0.000 NA
BRANCH  11  15
ATOM     15  C   UNL     1       2.544   5.558  19.951  0.00  0.00    +0.000 C 
BRANCH  15  16
ATOM     16  N   UNL     1       2.966   4.571  18.966  0.00  0.00    +0.000 NA
ATOM     17  C   UNL     1       1.947   3.686  18.405  0.00  0.00    +0.000 C 
ATOM     18  C   UNL     1       1.975   2.250  18.954  0.00  0.00    +0.000 C 
ATOM     19  O   UNL     1       3.286   1.681  18.851  0.00  0.00    +0.000 OA
ATOM     20  C   UNL     1       4.218   2.452  19.615  0.00  0.00    +0.000 C 
ATOM     21  C   UNL     1       4.267   3.914  19.132  0.00  0.00    +0.000 C 
ENDBRANCH  15  16
ENDBRANCH  11  15
ENDBRANCH   5   9
BRANCH   6  22
ATOM     22  N   UNL     1       0.606  12.101  19.266  0.00  0.00    +0.000 N 
ATOM     23  H   UNL     1       0.905  11.403  18.579  0.00  0.00    +0.000 HD
BRANCH  22  24
ATOM     24  C   UNL     1       1.441  13.309  19.338  0.00  0.00    +0.000 C 
ATOM     25  C   UNL     1       2.647  13.202  18.393  0.00  0.00    +0.000 C 
ATOM     26  C   UNL     1       3.515  14.461  18.463  0.00  0.00    +0.000 C 
ATOM     27  C   UNL     1       2.709  15.728  18.176  0.00  0.00    +0.000 C 
ATOM     28  C   UNL     1       1.456  15.821  19.048  0.00  0.00    +0.000 C 
ATOM     29  C   UNL     1       0.607  14.547  18.966  0.00  0.00    +0.000 C 
BRANCH  27  30
ATOM     30  O   UNL     1       3.528  16.874  18.396  0.00  0.00    +0.000 OA
ATOM     31  H   UNL     1       3.324  17.532  17.717  0.00  0.00    +0.000 HD
ENDBRANCH  27  30
ENDBRANCH  22  24
ENDBRANCH   6  22
BRANCH   1  32
ATOM     32  C   UNL     1      -2.643  13.273  22.903  0.00  0.00    +0.000 C 
BRANCH  32  33
ATOM     33  C   UNL     1      -4.060  12.685  22.893  0.00  0.00    +0.000 C 
BRANCH  33  35
ATOM     34  C   UNL     1      -6.372  12.807  23.909  0.00  0.00    +0.000 C 
ATOM     35  C   UNL     1      -4.926  13.253  24.023  0.00  0.00    +0.000 C 
ENDBRANCH  33  35
ENDBRANCH  32  33
ENDBRANCH   1  32
TORSDOF 9
ENDMDL
MODEL 9
REMARK VINA RESULT:      -7.5      1.173      1.734
REMARK  Name = 
REMARK  10 active torsions:
REMARK  status: ('A' for Active; 'I' for Inactive)
REMARK    1  A    between atoms: C_1  and  C_2
REMARK    2  A    between atoms: C_2  and  C_3
REMARK    3  A    between atoms: C_3  and  C_4
REMARK    4  A    between atoms: C_4  and  N_5
REMARK    5  A    between atoms: C_9  and  C_10
REMARK    6  A    between atoms: C_12  and  C_13
REMARK    7  A    between atoms: C_13  and  N_14
REMARK    8  A    between atoms: C_23  and  N_24
REMARK    9  A    between atoms: N_24  and  C_25
REMARK   10  A    between atoms: C_28  and  O_29
REMARK                            x       y       z     vdW  Elec       q    Type
REMARK                         _______ _______ _______ _____ _____    ______ ____
ROOT
ATOM      1  N   UNL     1       7.024   5.205  15.135  0.00  0.00    +0.000 N 
ATOM      2  C   UNL     1       6.027   5.607  15.990  0.00  0.00    +0.000 A 
ATOM      3  N   UNL     1       6.193   6.851  16.416  0.00  0.00    +0.000 NA
ATOM      4  C   UNL     1       5.248   7.311  17.245  0.00  0.00    +0.000 A 
ATOM      5  C   UNL     1       4.115   6.631  17.679  0.00  0.00    +0.000 A 
ATOM      6  C   UNL     1       4.055   5.313  17.193  0.00  0.00    +0.000 A 
ATOM      7  N   UNL     1       5.012   4.825  16.356  0.00  0.00    +0.000 NA
ATOM      8  H   UNL     1       7.466   6.059  14.810  0.00  0.00    +0.000 HD
ENDROOT
BRANCH   5   9
ATOM      9  C   UNL     1       3.119   7.339  18.525  0.00  0.00    +0.000 A 
ATOM     10  C   UNL     1       2.423   8.469  18.057  0.00  0.00    +0.000 A 
ATOM     11  C   UNL     1       1.353   9.016  18.763  0.00  0.00    +0.000 A 
ATOM     12  C   UNL     1       1.057   8.470  20.003  0.00  0.00    +0.000 A 
ATOM     13  C   UNL     1       1.827   7.405  20.455  0.00  0.00    +0.000 A 
ATOM     14  N   UNL     1       2.838   6.832  19.751  0.00  0.00    +0.000 NA
BRANCH  11  15
ATOM     15  C   UNL     1       0.564  10.156  18.163  0.00  0.00    +0.000 C 
BRANCH  15  16
ATOM     16  N   UNL     1       0.718  11.465  18.784  0.00  0.00    +0.000 NA
ATOM     17  C   UNL     1       1.133  11.512  20.185  0.00  0.00    +0.000 C 
ATOM     18  C   UNL     1       0.007  11.853  21.175  0.00  0.00    +0.000 C 
ATOM     19  O   UNL     1      -0.681  13.049  20.786  0.00  0.00    +0.000 OA
ATOM     20  C   UNL     1      -1.278  12.875  19.498  0.00  0.00    +0.000 C 
ATOM     21  C   UNL     1      -0.221  12.534  18.430  0.00  0.00    +0.000 C 
ENDBRANCH  15  16
ENDBRANCH  11  15
ENDBRANCH   5   9
BRANCH   6  22
ATOM     22  N   UNL     1       2.948   4.477  17.436  0.00  0.00    +0.000 N 
ATOM     23  H   UNL     1       2.152   4.773  16.861  0.00  0.00    +0.000 HD
BRANCH  22  24
ATOM     24  C   UNL     1       2.628   4.167  18.836  0.00  0.00    +0.000 C 
ATOM     25  C   UNL     1       1.135   3.843  19.002  0.00  0.00    +0.000 C 
ATOM     26  C   UNL     1       0.801   3.514  20.459  0.00  0.00    +0.000 C 
ATOM     27  C   UNL     1       1.668   2.379  21.003  0.00  0.00    +0.000 C 
ATOM     28  C   UNL     1       3.159   2.636  20.779  0.00  0.00    +0.000 C 
ATOM     29  C   UNL     1       3.467   2.969  19.314  0.00  0.00    +0.000 C 
BRANCH  27  30
ATOM     30  O   UNL     1       1.418   2.214  22.397  0.00  0.00    +0.000 OA
ATOM     31  H   UNL     1       0.975   1.363  22.531  0.00  0.00    +0.000 HD
ENDBRANCH  27  30
ENDBRANCH  22  24
ENDBRANCH   6  22
BRANCH   1  32
ATOM     32  C   UNL     1       6.693   4.245  14.108  0.00  0.00    +0.000 C 
BRANCH  32  33
ATOM     33  C   UNL     1       7.436   4.641  12.825  0.00  0.00    +0.000 C 
BRANCH  33  35
ATOM     34  C   UNL     1       5.829   2.889  11.965  0.00  0.00    +0.000 C 
ATOM     35  C   UNL     1       6.881   3.918  11.594  0.00  0.00    +0.000 C 
ENDBRANCH  33  35
ENDBRANCH  32  33
ENDBRANCH   1  32
TORSDOF 9
ENDMDL
