MODEL 1
REMARK VINA RESULT:      -8.7      0.000      0.000
REMARK  Name = 
REMARK  5 active torsions:
REMARK  status: ('A' for Active; 'I' for Inactive)
REMARK    1  A    between atoms: C_1  and  C_2
REMARK    2  A    between atoms: C_4  and  C_5
REMARK    3  A    between atoms: C_11  and  C_12
REMARK    4  A    between atoms: N_14  and  C_15
REMARK    5  A    between atoms: C_19  and  C_20
REMARK                            x       y       z     vdW  Elec       q    Type
REMARK                         _______ _______ _______ _____ _____    ______ ____
ROOT
ATOM      1  C   UNL     1       5.617   2.271  11.554  0.00  0.00    +0.000 C 
ATOM      2  C   UNL     1       6.114   3.354  12.462  0.00  0.00    +0.000 A 
ATOM      3  C   UNL     1       7.153   4.178  12.090  0.00  0.00    +0.000 A 
ATOM      4  C   UNL     1       7.541   5.116  13.018  0.00  0.00    +0.000 A 
ATOM      5  C   UNL     1       8.685   6.047  12.757  0.00  0.00    +0.000 C 
ATOM      6  N   UNL     1       6.948   5.227  14.223  0.00  0.00    +0.000 NA
ATOM      7  C   UNL     1       5.951   4.382  14.531  0.00  0.00    +0.000 A 
ATOM      8  N   UNL     1       5.435   4.400  15.820  0.00  0.00    +0.000 N 
ATOM      9  C   UNL     1       5.647   5.619  16.594  0.00  0.00    +0.000 C 
ATOM     10  C   UNL     1       5.547   5.280  18.087  0.00  0.00    +0.000 C 
ATOM     11  C   UNL     1       4.257   4.518  18.441  0.00  0.00    +0.000 C 
ATOM     12  C   UNL     1       4.071   3.319  17.502  0.00  0.00    +0.000 C 
ATOM     13  C   UNL     1       4.163   3.725  16.029  0.00  0.00    +0.000 C 
ATOM     14  N   UNL     1       5.512   3.452  13.666  0.00  0.00    +0.000 NA
ENDROOT
BRANCH  11  15
ATOM     15  C   UNL     1       3.051   5.457  18.419  0.00  0.00    +0.000 C 
ATOM     16  O   UNL     1       1.925   5.040  18.147  0.00  0.00    +0.000 OA
ATOM     17  N   UNL     1       3.363   6.784  18.679  0.00  0.00    +0.000 N 
ATOM     18  H   UNL     1       4.337   7.052  18.618  0.00  0.00    +0.000 HD
BRANCH  17  19
ATOM     19  C   UNL     1       2.425   7.821  18.870  0.00  0.00    +0.000 A 
ATOM     20  C   UNL     1       2.096   8.734  17.864  0.00  0.00    +0.000 A 
ATOM     21  C   UNL     1       1.174   9.753  18.095  0.00  0.00    +0.000 A 
ATOM     22  C   UNL     1       0.560   9.873  19.337  0.00  0.00    +0.000 A 
ATOM     23  C   UNL     1       0.855   8.962  20.360  0.00  0.00    +0.000 A 
ATOM     24  C   UNL     1       1.782   7.927  20.111  0.00  0.00    +0.000 A 
BRANCH  23  25
ATOM     25  C   UNL     1       0.202   9.097  21.713  0.00  0.00    +0.000 C 
ATOM     26  F   UNL     1      -0.800   8.198  21.928  0.00  0.00    +0.000 F 
ATOM     27  F   UNL     1       1.083   8.922  22.737  0.00  0.00    +0.000 F 
ATOM     28  F   UNL     1      -0.353  10.325  21.904  0.00  0.00    +0.000 F 
ENDBRANCH  23  25
ENDBRANCH  17  19
ENDBRANCH  11  15
TORSDOF 3
ENDMDL
MODEL 2
REMARK VINA RESULT:      -8.3      5.109      9.043
REMARK  Name = 
REMARK  5 active torsions:
REMARK  status: ('A' for Active; 'I' for Inactive)
REMARK    1  A    between atoms: C_1  and  C_2
REMARK    2  A    between atoms: C_4  and  C_5
REMARK    3  A    between atoms: C_11  and  C_12
REMARK    4  A    between atoms: N_14  and  C_15
REMARK    5  A    between atoms: C_19  and  C_20
REMARK                            x       y       z     vdW  Elec       q    Type
REMARK                         _______ _______ _______ _____ _____    ______ ____
ROOT
ATOM      1  C   UNL     1      -3.496  10.226  14.347  0.00  0.00    +0.000 C 
ATOM      2  C   UNL     1      -3.395  10.548  15.806  0.00  0.00    +0.000 A 
ATOM      3  C   UNL     1      -4.415  11.192  16.468  0.00  0.00    +0.000 A 
ATOM      4  C   UNL     1      -4.197  11.460  17.800  0.00  0.00    +0.000 A 
ATOM      5  C   UNL     1      -5.209  12.193  18.626  0.00  0.00    +0.000 C 
ATOM      6  N   UNL     1      -3.053  11.120  18.426  0.00  0.00    +0.000 NA
ATOM      7  C   UNL     1      -2.090  10.508  17.719  0.00  0.00    +0.000 A 
ATOM      8  N   UNL     1      -0.859  10.284  18.323  0.00  0.00    +0.000 N 
ATOM      9  C   UNL     1      -0.838  10.273  19.782  0.00  0.00    +0.000 C 
ATOM     10  C   UNL     1       0.587  10.585  20.258  0.00  0.00    +0.000 C 
ATOM     11  C   UNL     1       1.648   9.685  19.599  0.00  0.00    +0.000 C 
ATOM     12  C   UNL     1       1.472   9.681  18.074  0.00  0.00    +0.000 C 
ATOM     13  C   UNL     1       0.036   9.345  17.664  0.00  0.00    +0.000 C 
ATOM     14  N   UNL     1      -2.244  10.203  16.420  0.00  0.00    +0.000 NA
ENDROOT
BRANCH  11  15
ATOM     15  C   UNL     1       1.600   8.274  20.185  0.00  0.00    +0.000 C 
ATOM     16  O   UNL     1       1.020   8.046  21.246  0.00  0.00    +0.000 OA
ATOM     17  N   UNL     1       2.297   7.331  19.444  0.00  0.00    +0.000 N 
ATOM     18  H   UNL     1       2.952   7.675  18.752  0.00  0.00    +0.000 HD
BRANCH  17  19
ATOM     19  C   UNL     1       2.284   5.938  19.675  0.00  0.00    +0.000 A 
ATOM     20  C   UNL     1       1.876   5.381  20.889  0.00  0.00    +0.000 A 
ATOM     21  C   UNL     1       1.889   4.000  21.085  0.00  0.00    +0.000 A 
ATOM     22  C   UNL     1       2.307   3.153  20.064  0.00  0.00    +0.000 A 
ATOM     23  C   UNL     1       2.704   3.681  18.829  0.00  0.00    +0.000 A 
ATOM     24  C   UNL     1       2.675   5.080  18.639  0.00  0.00    +0.000 A 
BRANCH  23  25
ATOM     25  C   UNL     1       3.171   2.767  17.724  0.00  0.00    +0.000 C 
ATOM     26  F   UNL     1       4.443   3.023  17.304  0.00  0.00    +0.000 F 
ATOM     27  F   UNL     1       3.159   1.455  18.091  0.00  0.00    +0.000 F 
ATOM     28  F   UNL     1       2.389   2.851  16.613  0.00  0.00    +0.000 F 
ENDBRANCH  23  25
ENDBRANCH  17  19
ENDBRANCH  11  15
TORSDOF 3
ENDMDL
MODEL 3
REMARK VINA RESULT:      -7.6      1.505      2.103
REMARK  Name = 
REMARK  5 active torsions:
REMARK  status: ('A' for Active; 'I' for Inactive)
REMARK    1  A    between atoms: C_1  and  C_2
REMARK    2  A    between atoms: C_4  and  C_5
REMARK    3  A    between atoms: C_11  and  C_12
REMARK    4  A    between atoms: N_14  and  C_15
REMARK    5  A    between atoms: C_19  and  C_20
REMARK                            x       y       z     vdW  Elec       q    Type
REMARK                         _______ _______ _______ _____ _____    ______ ____
ROOT
ATOM      1  C   UNL     1       5.438   2.368  11.655  0.00  0.00    +0.000 C 
ATOM      2  C   UNL     1       5.997   3.397  12.590  0.00  0.00    +0.000 A 
ATOM      3  C   UNL     1       7.066   4.185  12.229  0.00  0.00    +0.000 A 
ATOM      4  C   UNL     1       7.510   5.073  13.180  0.00  0.00    +0.000 A 
ATOM      5  C   UNL     1       8.692   5.960  12.931  0.00  0.00    +0.000 C 
ATOM      6  N   UNL     1       6.941   5.170  14.398  0.00  0.00    +0.000 NA
ATOM      7  C   UNL     1       5.911   4.361  14.694  0.00  0.00    +0.000 A 
ATOM      8  N   UNL     1       5.415   4.359  15.992  0.00  0.00    +0.000 N 
ATOM      9  C   UNL     1       5.695   5.540  16.801  0.00  0.00    +0.000 C 
ATOM     10  C   UNL     1       5.602   5.157  18.283  0.00  0.00    +0.000 C 
ATOM     11  C   UNL     1       4.283   4.442  18.634  0.00  0.00    +0.000 C 
ATOM     12  C   UNL     1       4.029   3.284  17.659  0.00  0.00    +0.000 C 
ATOM     13  C   UNL     1       4.118   3.735  16.198  0.00  0.00    +0.000 C 
ATOM     14  N   UNL     1       5.418   3.482  13.806  0.00  0.00    +0.000 NA
ENDROOT
BRANCH  11  15
ATOM     15  C   UNL     1       3.121   5.434  18.662  0.00  0.00    +0.000 C 
ATOM     16  O   UNL     1       2.208   5.368  17.839  0.00  0.00    +0.000 OA
ATOM     17  N   UNL     1       3.232   6.406  19.646  0.00  0.00    +0.000 N 
ATOM     18  H   UNL     1       4.139   6.527  20.079  0.00  0.00    +0.000 HD
BRANCH  17  19
ATOM     19  C   UNL     1       2.230   7.340  19.987  0.00  0.00    +0.000 A 
ATOM     20  C   UNL     1       1.437   7.210  21.131  0.00  0.00    +0.000 A 
ATOM     21  C   UNL     1       0.449   8.147  21.429  0.00  0.00    +0.000 A 
ATOM     22  C   UNL     1       0.240   9.235  20.588  0.00  0.00    +0.000 A 
ATOM     23  C   UNL     1       1.032   9.403  19.444  0.00  0.00    +0.000 A 
ATOM     24  C   UNL     1       2.038   8.454  19.159  0.00  0.00    +0.000 A 
BRANCH  23  25
ATOM     25  C   UNL     1       0.800  10.574  18.522  0.00  0.00    +0.000 C 
ATOM     26  F   UNL     1       1.816  10.781  17.636  0.00  0.00    +0.000 F 
ATOM     27  F   UNL     1      -0.326  10.431  17.769  0.00  0.00    +0.000 F 
ATOM     28  F   UNL     1       0.651  11.747  19.197  0.00  0.00    +0.000 F 
ENDBRANCH  23  25
ENDBRANCH  17  19
ENDBRANCH  11  15
TORSDOF 3
ENDMDL
MODEL 4
REMARK VINA RESULT:      -7.6      6.189      8.188
REMARK  Name = 
REMARK  5 active torsions:
REMARK  status: ('A' for Active; 'I' for Inactive)
REMARK    1  A    between atoms: C_1  and  C_2
REMARK    2  A    between atoms: C_4  and  C_5
REMARK    3  A    between atoms: C_11  and  C_12
REMARK    4  A    between atoms: N_14  and  C_15
REMARK    5  A    between atoms: C_19  and  C_20
REMARK                            x       y       z     vdW  Elec       q    Type
REMARK                         _______ _______ _______ _____ _____    ______ ____
ROOT
ATOM      1  C   UNL     1       4.839   0.899  20.349  0.00  0.00    +0.000 C 
ATOM      2  C   UNL     1       4.293   2.266  20.076  0.00  0.00    +0.000 A 
ATOM      3  C   UNL     1       2.994   2.593  20.395  0.00  0.00    +0.000 A 
ATOM      4  C   UNL     1       2.596   3.869  20.071  0.00  0.00    +0.000 A 
ATOM      5  C   UNL     1       1.197   4.340  20.325  0.00  0.00    +0.000 C 
ATOM      6  N   UNL     1       3.420   4.752  19.472  0.00  0.00    +0.000 NA
ATOM      7  C   UNL     1       4.670   4.365  19.173  0.00  0.00    +0.000 A 
ATOM      8  N   UNL     1       5.474   5.221  18.431  0.00  0.00    +0.000 N 
ATOM      9  C   UNL     1       5.112   6.634  18.443  0.00  0.00    +0.000 C 
ATOM     10  C   UNL     1       5.695   7.305  17.193  0.00  0.00    +0.000 C 
ATOM     11  C   UNL     1       7.202   7.036  17.019  0.00  0.00    +0.000 C 
ATOM     12  C   UNL     1       7.491   5.532  17.130  0.00  0.00    +0.000 C 
ATOM     13  C   UNL     1       6.899   4.928  18.406  0.00  0.00    +0.000 C 
ATOM     14  N   UNL     1       5.129   3.139  19.476  0.00  0.00    +0.000 NA
ENDROOT
BRANCH  11  15
ATOM     15  C   UNL     1       8.017   7.852  18.022  0.00  0.00    +0.000 C 
ATOM     16  O   UNL     1       8.563   7.315  18.985  0.00  0.00    +0.000 OA
ATOM     17  N   UNL     1       8.028   9.215  17.763  0.00  0.00    +0.000 N 
ATOM     18  H   UNL     1       7.335   9.571  17.117  0.00  0.00    +0.000 HD
BRANCH  17  19
ATOM     19  C   UNL     1       8.824  10.168  18.436  0.00  0.00    +0.000 A 
ATOM     20  C   UNL     1       9.079  10.100  19.808  0.00  0.00    +0.000 A 
ATOM     21  C   UNL     1       9.859  11.067  20.441  0.00  0.00    +0.000 A 
ATOM     22  C   UNL     1      10.403  12.116  19.708  0.00  0.00    +0.000 A 
ATOM     23  C   UNL     1      10.181  12.200  18.327  0.00  0.00    +0.000 A 
ATOM     24  C   UNL     1       9.400  11.209  17.695  0.00  0.00    +0.000 A 
BRANCH  23  25
ATOM     25  C   UNL     1      10.758  13.343  17.530  0.00  0.00    +0.000 C 
ATOM     26  F   UNL     1       9.887  14.375  17.346  0.00  0.00    +0.000 F 
ATOM     27  F   UNL     1      11.859  13.888  18.120  0.00  0.00    +0.000 F 
ATOM     28  F   UNL     1      11.153  12.963  16.284  0.00  0.00    +0.000 F 
ENDBRANCH  23  25
ENDBRANCH  17  19
ENDBRANCH  11  15
TORSDOF 3
ENDMDL
MODEL 5
REMARK VINA RESULT:      -7.5      4.406      8.615
REMARK  Name = 
REMARK  5 active torsions:
REMARK  status: ('A' for Active; 'I' for Inactive)
REMARK    1  A    between atoms: C_1  and  C_2
REMARK    2  A    between atoms: C_4  and  C_5
REMARK    3  A    between atoms: C_11  and  C_12
REMARK    4  A    between atoms: N_14  and  C_15
REMARK    5  A    between atoms: C_19  and  C_20
REMARK                            x       y       z     vdW  Elec       q    Type
REMARK                         _______ _______ _______ _____ _____    ______ ____
ROOT
ATOM      1  C   UNL     1      -3.427  10.459  14.286  0.00  0.00    +0.000 C 
ATOM      2  C   UNL     1      -3.328  10.573  15.776  0.00  0.00    +0.000 A 
ATOM      3  C   UNL     1      -4.389  11.024  16.530  0.00  0.00    +0.000 A 
ATOM      4  C   UNL     1      -4.171  11.114  17.885  0.00  0.00    +0.000 A 
ATOM      5  C   UNL     1      -5.228  11.629  18.813  0.00  0.00    +0.000 C 
ATOM      6  N   UNL     1      -2.992  10.787  18.450  0.00  0.00    +0.000 NA
ATOM      7  C   UNL     1      -1.992  10.369  17.657  0.00  0.00    +0.000 A 
ATOM      8  N   UNL     1      -0.736  10.168  18.216  0.00  0.00    +0.000 N 
ATOM      9  C   UNL     1      -0.690   9.947  19.658  0.00  0.00    +0.000 C 
ATOM     10  C   UNL     1       0.711  10.310  20.168  0.00  0.00    +0.000 C 
ATOM     11  C   UNL     1       1.833   9.609  19.380  0.00  0.00    +0.000 C 
ATOM     12  C   UNL     1       1.632   9.812  17.872  0.00  0.00    +0.000 C 
ATOM     13  C   UNL     1       0.223   9.415  17.423  0.00  0.00    +0.000 C 
ATOM     14  N   UNL     1      -2.141  10.244  16.327  0.00  0.00    +0.000 NA
ENDROOT
BRANCH  11  15
ATOM     15  C   UNL     1       1.915   8.130  19.754  0.00  0.00    +0.000 C 
ATOM     16  O   UNL     1       1.444   7.715  20.812  0.00  0.00    +0.000 OA
ATOM     17  N   UNL     1       2.596   7.351  18.830  0.00  0.00    +0.000 N 
ATOM     18  H   UNL     1       3.168   7.833  18.147  0.00  0.00    +0.000 HD
BRANCH  17  19
ATOM     19  C   UNL     1       2.681   5.942  18.854  0.00  0.00    +0.000 A 
ATOM     20  C   UNL     1       3.106   5.194  17.752  0.00  0.00    +0.000 A 
ATOM     21  C   UNL     1       3.165   3.803  17.810  0.00  0.00    +0.000 A 
ATOM     22  C   UNL     1       2.803   3.135  18.975  0.00  0.00    +0.000 A 
ATOM     23  C   UNL     1       2.392   3.858  20.103  0.00  0.00    +0.000 A 
ATOM     24  C   UNL     1       2.348   5.267  20.036  0.00  0.00    +0.000 A 
BRANCH  23  25
ATOM     25  C   UNL     1       1.986   3.138  21.364  0.00  0.00    +0.000 C 
ATOM     26  F   UNL     1       0.656   2.844  21.422  0.00  0.00    +0.000 F 
ATOM     27  F   UNL     1       2.636   1.950  21.519  0.00  0.00    +0.000 F 
ATOM     28  F   UNL     1       2.257   3.859  22.486  0.00  0.00    +0.000 F 
ENDBRANCH  23  25
ENDBRANCH  17  19
ENDBRANCH  11  15
TORSDOF 3
ENDMDL
MODEL 6
REMARK VINA RESULT:      -7.2      3.883      6.519
REMARK  Name = 
REMARK  5 active torsions:
REMARK  status: ('A' for Active; 'I' for Inactive)
REMARK    1  A    between atoms: C_1  and  C_2
REMARK    2  A    between atoms: C_4  and  C_5
REMARK    3  A    between atoms: C_11  and  C_12
REMARK    4  A    between atoms: N_14  and  C_15
REMARK    5  A    between atoms: C_19  and  C_20
REMARK                            x       y       z     vdW  Elec       q    Type
REMARK                         _______ _______ _______ _____ _____    ______ ____
ROOT
ATOM      1  C   UNL     1       2.972   2.967  21.364  0.00  0.00    +0.000 C 
ATOM      2  C   UNL     1       3.015   3.834  20.143  0.00  0.00    +0.000 A 
ATOM      3  C   UNL     1       3.584   3.388  18.971  0.00  0.00    +0.000 A 
ATOM      4  C   UNL     1       3.592   4.282  17.925  0.00  0.00    +0.000 A 
ATOM      5  C   UNL     1       4.217   3.939  16.608  0.00  0.00    +0.000 C 
ATOM      6  N   UNL     1       3.079   5.524  18.034  0.00  0.00    +0.000 NA
ATOM      7  C   UNL     1       2.553   5.903  19.210  0.00  0.00    +0.000 A 
ATOM      8  N   UNL     1       2.154   7.224  19.368  0.00  0.00    +0.000 N 
ATOM      9  C   UNL     1       1.875   7.974  18.148  0.00  0.00    +0.000 C 
ATOM     10  C   UNL     1       2.015   9.472  18.446  0.00  0.00    +0.000 C 
ATOM     11  C   UNL     1       1.192   9.917  19.669  0.00  0.00    +0.000 C 
ATOM     12  C   UNL     1       1.476   9.000  20.866  0.00  0.00    +0.000 C 
ATOM     13  C   UNL     1       1.302   7.521  20.509  0.00  0.00    +0.000 C 
ATOM     14  N   UNL     1       2.499   5.075  20.267  0.00  0.00    +0.000 NA
ENDROOT
BRANCH  11  15
ATOM     15  C   UNL     1      -0.297   9.970  19.328  0.00  0.00    +0.000 C 
ATOM     16  O   UNL     1      -1.152   9.690  20.168  0.00  0.00    +0.000 OA
ATOM     17  N   UNL     1      -0.563  10.306  18.008  0.00  0.00    +0.000 N 
ATOM     18  H   UNL     1       0.205  10.247  17.351  0.00  0.00    +0.000 HD
BRANCH  17  19
ATOM     19  C   UNL     1      -1.842  10.574  17.475  0.00  0.00    +0.000 A 
ATOM     20  C   UNL     1      -2.197  10.241  16.165  0.00  0.00    +0.000 A 
ATOM     21  C   UNL     1      -3.467  10.534  15.670  0.00  0.00    +0.000 A 
ATOM     22  C   UNL     1      -4.406  11.162  16.481  0.00  0.00    +0.000 A 
ATOM     23  C   UNL     1      -4.086  11.491  17.805  0.00  0.00    +0.000 A 
ATOM     24  C   UNL     1      -2.802  11.178  18.299  0.00  0.00    +0.000 A 
BRANCH  23  25
ATOM     25  C   UNL     1      -5.097  12.183  18.684  0.00  0.00    +0.000 C 
ATOM     26  F   UNL     1      -4.538  12.908  19.694  0.00  0.00    +0.000 F 
ATOM     27  F   UNL     1      -5.881  13.057  17.991  0.00  0.00    +0.000 F 
ATOM     28  F   UNL     1      -5.953  11.310  19.283  0.00  0.00    +0.000 F 
ENDBRANCH  23  25
ENDBRANCH  17  19
ENDBRANCH  11  15
TORSDOF 3
ENDMDL
MODEL 7
REMARK VINA RESULT:      -7.2      4.245      8.641
REMARK  Name = 
REMARK  5 active torsions:
REMARK  status: ('A' for Active; 'I' for Inactive)
REMARK    1  A    between atoms: C_1  and  C_2
REMARK    2  A    between atoms: C_4  and  C_5
REMARK    3  A    between atoms: C_11  and  C_12
REMARK    4  A    between atoms: N_14  and  C_15
REMARK    5  A    between atoms: C_19  and  C_20
REMARK                            x       y       z     vdW  Elec       q    Type
REMARK                         _______ _______ _______ _____ _____    ______ ____
ROOT
ATOM      1  C   UNL     1      -3.316  10.445  14.217  0.00  0.00    +0.000 C 
ATOM      2  C   UNL     1      -3.286  10.444  15.715  0.00  0.00    +0.000 A 
ATOM      3  C   UNL     1      -4.407  10.754  16.451  0.00  0.00    +0.000 A 
ATOM      4  C   UNL     1      -4.252  10.749  17.818  0.00  0.00    +0.000 A 
ATOM      5  C   UNL     1      -5.382  11.109  18.734  0.00  0.00    +0.000 C 
ATOM      6  N   UNL     1      -3.076  10.463  18.409  0.00  0.00    +0.000 NA
ATOM      7  C   UNL     1      -2.016  10.185  17.634  0.00  0.00    +0.000 A 
ATOM      8  N   UNL     1      -0.772  10.030  18.233  0.00  0.00    +0.000 N 
ATOM      9  C   UNL     1      -0.767   9.696  19.654  0.00  0.00    +0.000 C 
ATOM     10  C   UNL     1       0.580  10.116  20.255  0.00  0.00    +0.000 C 
ATOM     11  C   UNL     1       1.784   9.565  19.468  0.00  0.00    +0.000 C 
ATOM     12  C   UNL     1       1.629   9.874  17.972  0.00  0.00    +0.000 C 
ATOM     13  C   UNL     1       0.273   9.415  17.429  0.00  0.00    +0.000 C 
ATOM     14  N   UNL     1      -2.101  10.157  16.293  0.00  0.00    +0.000 NA
ENDROOT
BRANCH  11  15
ATOM     15  C   UNL     1       1.962   8.070  19.728  0.00  0.00    +0.000 C 
ATOM     16  O   UNL     1       1.495   7.540  20.736  0.00  0.00    +0.000 OA
ATOM     17  N   UNL     1       2.721   7.416  18.768  0.00  0.00    +0.000 N 
ATOM     18  H   UNL     1       3.274   7.990  18.143  0.00  0.00    +0.000 HD
BRANCH  17  19
ATOM     19  C   UNL     1       2.907   6.019  18.686  0.00  0.00    +0.000 A 
ATOM     20  C   UNL     1       3.953   5.440  17.963  0.00  0.00    +0.000 A 
ATOM     21  C   UNL     1       4.096   4.055  17.894  0.00  0.00    +0.000 A 
ATOM     22  C   UNL     1       3.196   3.225  18.554  0.00  0.00    +0.000 A 
ATOM     23  C   UNL     1       2.149   3.776  19.303  0.00  0.00    +0.000 A 
ATOM     24  C   UNL     1       2.021   5.180  19.375  0.00  0.00    +0.000 A 
BRANCH  23  25
ATOM     25  C   UNL     1       1.163   2.880  20.010  0.00  0.00    +0.000 C 
ATOM     26  F   UNL     1       0.722   3.382  21.198  0.00  0.00    +0.000 F 
ATOM     27  F   UNL     1       0.045   2.646  19.267  0.00  0.00    +0.000 F 
ATOM     28  F   UNL     1       1.684   1.655  20.295  0.00  0.00    +0.000 F 
ENDBRANCH  23  25
ENDBRANCH  17  19
ENDBRANCH  11  15
TORSDOF 3
ENDMDL
MODEL 8
REMARK VINA RESULT:      -7.1      5.115     10.780
REMARK  Name = 
REMARK  5 active torsions:
REMARK  status: ('A' for Active; 'I' for Inactive)
REMARK    1  A    between atoms: C_1  and  C_2
REMARK    2  A    between atoms: C_4  and  C_5
REMARK    3  A    between atoms: C_11  and  C_12
REMARK    4  A    between atoms: N_14  and  C_15
REMARK    5  A    between atoms: C_19  and  C_20
REMARK                            x       y       z     vdW  Elec       q    Type
REMARK                         _______ _______ _______ _____ _____    ______ ____
ROOT
ATOM      1  C   UNL     1      -5.895  13.751  19.863  0.00  0.00    +0.000 C 
ATOM      2  C   UNL     1      -4.858  13.246  20.819  0.00  0.00    +0.000 A 
ATOM      3  C   UNL     1      -5.076  13.253  22.178  0.00  0.00    +0.000 A 
ATOM      4  C   UNL     1      -4.040  12.793  22.958  0.00  0.00    +0.000 A 
ATOM      5  C   UNL     1      -4.131  12.786  24.453  0.00  0.00    +0.000 C 
ATOM      6  N   UNL     1      -2.877  12.362  22.431  0.00  0.00    +0.000 NA
ATOM      7  C   UNL     1      -2.722  12.396  21.098  0.00  0.00    +0.000 A 
ATOM      8  N   UNL     1      -1.477  12.089  20.562  0.00  0.00    +0.000 N 
ATOM      9  C   UNL     1      -0.583  11.296  21.400  0.00  0.00    +0.000 C 
ATOM     10  C   UNL     1       0.862  11.532  20.940  0.00  0.00    +0.000 C 
ATOM     11  C   UNL     1       1.050  11.318  19.427  0.00  0.00    +0.000 C 
ATOM     12  C   UNL     1      -0.006  12.108  18.641  0.00  0.00    +0.000 C 
ATOM     13  C   UNL     1      -1.425  11.815  19.135  0.00  0.00    +0.000 C 
ATOM     14  N   UNL     1      -3.698  12.820  20.277  0.00  0.00    +0.000 NA
ENDROOT
BRANCH  11  15
ATOM     15  C   UNL     1       1.024   9.829  19.083  0.00  0.00    +0.000 C 
ATOM     16  O   UNL     1       0.408   9.413  18.103  0.00  0.00    +0.000 OA
ATOM     17  N   UNL     1       1.703   9.029  19.991  0.00  0.00    +0.000 N 
ATOM     18  H   UNL     1       1.935   9.437  20.888  0.00  0.00    +0.000 HD
BRANCH  17  19
ATOM     19  C   UNL     1       1.964   7.651  19.830  0.00  0.00    +0.000 A 
ATOM     20  C   UNL     1       1.395   6.675  20.653  0.00  0.00    +0.000 A 
ATOM     21  C   UNL     1       1.686   5.324  20.471  0.00  0.00    +0.000 A 
ATOM     22  C   UNL     1       2.550   4.926  19.456  0.00  0.00    +0.000 A 
ATOM     23  C   UNL     1       3.122   5.879  18.602  0.00  0.00    +0.000 A 
ATOM     24  C   UNL     1       2.809   7.243  18.789  0.00  0.00    +0.000 A 
BRANCH  23  25
ATOM     25  C   UNL     1       4.069   5.452  17.510  0.00  0.00    +0.000 C 
ATOM     26  F   UNL     1       4.309   6.424  16.584  0.00  0.00    +0.000 F 
ATOM     27  F   UNL     1       5.291   5.088  17.990  0.00  0.00    +0.000 F 
ATOM     28  F   UNL     1       3.609   4.379  16.810  0.00  0.00    +0.000 F 
ENDBRANCH  23  25
ENDBRANCH  17  19
ENDBRANCH  11  15
TORSDOF 3
ENDMDL
MODEL 9
REMARK VINA RESULT:      -7.1      4.457      9.776
REMARK  Name = 
REMARK  5 active torsions:
REMARK  status: ('A' for Active; 'I' for Inactive)
REMARK    1  A    between atoms: C_1  and  C_2
REMARK    2  A    between atoms: C_4  and  C_5
REMARK    3  A    between atoms: C_11  and  C_12
REMARK    4  A    between atoms: N_14  and  C_15
REMARK    5  A    between atoms: C_19  and  C_20
REMARK                            x       y       z     vdW  Elec       q    Type
REMARK                         _______ _______ _______ _____ _____    ______ ____
ROOT
ATOM      1  C   UNL     1      -3.905  12.831  22.222  0.00  0.00    +0.000 C 
ATOM      2  C   UNL     1      -2.454  13.049  21.920  0.00  0.00    +0.000 A 
ATOM      3  C   UNL     1      -1.770  14.125  22.441  0.00  0.00    +0.000 A 
ATOM      4  C   UNL     1      -0.450  14.238  22.071  0.00  0.00    +0.000 A 
ATOM      5  C   UNL     1       0.395  15.384  22.533  0.00  0.00    +0.000 C 
ATOM      6  N   UNL     1       0.145  13.355  21.245  0.00  0.00    +0.000 NA
ATOM      7  C   UNL     1      -0.582  12.337  20.758  0.00  0.00    +0.000 A 
ATOM      8  N   UNL     1      -0.013  11.509  19.798  0.00  0.00    +0.000 N 
ATOM      9  C   UNL     1       1.445  11.484  19.737  0.00  0.00    +0.000 C 
ATOM     10  C   UNL     1       1.873  11.017  18.340  0.00  0.00    +0.000 C 
ATOM     11  C   UNL     1       1.195   9.701  17.917  0.00  0.00    +0.000 C 
ATOM     12  C   UNL     1      -0.323   9.793  18.121  0.00  0.00    +0.000 C 
ATOM     13  C   UNL     1      -0.685  10.245  19.538  0.00  0.00    +0.000 C 
ATOM     14  N   UNL     1      -1.871  12.158  21.091  0.00  0.00    +0.000 NA
ENDROOT
BRANCH  11  15
ATOM     15  C   UNL     1       1.803   8.514  18.664  0.00  0.00    +0.000 C 
ATOM     16  O   UNL     1       1.714   8.421  19.888  0.00  0.00    +0.000 OA
ATOM     17  N   UNL     1       2.480   7.620  17.847  0.00  0.00    +0.000 N 
ATOM     18  H   UNL     1       2.720   7.932  16.915  0.00  0.00    +0.000 HD
BRANCH  17  19
ATOM     19  C   UNL     1       2.996   6.370  18.256  0.00  0.00    +0.000 A 
ATOM     20  C   UNL     1       4.367   6.111  18.332  0.00  0.00    +0.000 A 
ATOM     21  C   UNL     1       4.839   4.860  18.727  0.00  0.00    +0.000 A 
ATOM     22  C   UNL     1       3.944   3.848  19.059  0.00  0.00    +0.000 A 
ATOM     23  C   UNL     1       2.564   4.084  19.012  0.00  0.00    +0.000 A 
ATOM     24  C   UNL     1       2.098   5.358  18.621  0.00  0.00    +0.000 A 
BRANCH  23  25
ATOM     25  C   UNL     1       1.590   2.986  19.358  0.00  0.00    +0.000 C 
ATOM     26  F   UNL     1       1.199   2.244  18.283  0.00  0.00    +0.000 F 
ATOM     27  F   UNL     1       2.102   2.098  20.256  0.00  0.00    +0.000 F 
ATOM     28  F   UNL     1       0.444   3.462  19.917  0.00  0.00    +0.000 F 
ENDBRANCH  23  25
ENDBRANCH  17  19
ENDBRANCH  11  15
TORSDOF 3
ENDMDL
