MODEL 1
REMARK VINA RESULT:      -8.4      0.000      0.000
REMARK  Name = 
REMARK  6 active torsions:
REMARK  status: ('A' for Active; 'I' for Inactive)
REMARK    1  A    between atoms: C_1  and  O_2
REMARK    2  A    between atoms: O_2  and  C_3
REMARK    3  A    between atoms: C_6  and  C_7
REMARK    4  A    between atoms: C_7  and  C_8
REMARK    5  A    between atoms: C_7  and  C_14
REMARK    6  A    between atoms: C_7  and  N_20
REMARK                            x       y       z     vdW  Elec       q    Type
REMARK                         _______ _______ _______ _____ _____    ______ ____
ROOT
ATOM      1  C   UNL     1      -1.178  12.211  20.667  0.00  0.00    +0.000 C 
ENDROOT
BRANCH   1   2
ATOM      2  N   UNL     1      -2.242  11.635  19.457  0.00  0.00    +0.000 N 
ATOM      3  N   UNL     1      -3.360  12.296  19.574  0.00  0.00    +0.000 NA
ATOM      4  N   UNL     1      -4.255  11.865  18.739  0.00  0.00    +0.000 NA
ATOM      5  C   UNL     1      -3.526  11.297  17.718  0.00  0.00    +0.000 A 
ATOM      6  C   UNL     1      -4.216  11.293  16.460  0.00  0.00    +0.000 A 
ATOM      7  C   UNL     1      -3.862  10.635  15.293  0.00  0.00    +0.000 A 
ATOM      8  C   UNL     1      -2.794   9.851  15.492  0.00  0.00    +0.000 A 
ATOM      9  C   UNL     1      -2.054   9.931  16.813  0.00  0.00    +0.000 A 
ATOM     10  C   UNL     1      -2.120  10.772  18.138  0.00  0.00    +0.000 A 
ENDBRANCH   1   2
BRANCH   1  14
ATOM     11  C   UNL     1      -2.351  14.717  24.523  0.00  0.00    +0.000 A 
ATOM     12  C   UNL     1      -1.088  14.757  23.963  0.00  0.00    +0.000 A 
ATOM     13  C   UNL     1      -0.787  13.953  22.819  0.00  0.00    +0.000 A 
ATOM     14  C   UNL     1      -1.727  13.111  22.083  0.00  0.00    +0.000 A 
ATOM     15  C   UNL     1      -3.001  13.147  22.670  0.00  0.00    +0.000 A 
ATOM     16  C   UNL     1      -3.297  13.922  23.866  0.00  0.00    +0.000 A 
BRANCH  11  18
ATOM     17  C   UNL     1      -1.422  16.108  26.208  0.00  0.00    +0.000 C 
ATOM     18  O   UNL     1      -2.583  15.544  25.594  0.00  0.00    +0.000 OA
ENDBRANCH  11  18
ENDBRANCH   1  14
BRANCH   1  19
ATOM     19  C   UNL     1      -0.170  13.233  19.979  0.00  0.00    +0.000 A 
ATOM     20  C   UNL     1       1.207  13.062  20.086  0.00  0.00    +0.000 A 
ATOM     21  C   UNL     1       2.080  14.104  19.786  0.00  0.00    +0.000 A 
ATOM     22  C   UNL     1       1.625  15.270  19.188  0.00  0.00    +0.000 A 
ATOM     23  C   UNL     1       0.289  15.388  18.856  0.00  0.00    +0.000 A 
ATOM     24  C   UNL     1      -0.596  14.395  19.271  0.00  0.00    +0.000 A 
ENDBRANCH   1  19
BRANCH   1  25
ATOM     25  C   UNL     1      -0.510  10.983  21.276  0.00  0.00    +0.000 A 
ATOM     26  C   UNL     1      -0.768  10.591  22.596  0.00  0.00    +0.000 A 
ATOM     27  C   UNL     1      -0.040   9.575  23.190  0.00  0.00    +0.000 A 
ATOM     28  C   UNL     1       0.925   8.900  22.449  0.00  0.00    +0.000 A 
ATOM     29  C   UNL     1       1.109   9.182  21.098  0.00  0.00    +0.000 A 
ATOM     30  C   UNL     1       0.390  10.211  20.507  0.00  0.00    +0.000 A 
ENDBRANCH   1  25
TORSDOF 5
ENDMDL
MODEL 2
REMARK VINA RESULT:      -8.3      0.529      1.028
REMARK  Name = 
REMARK  6 active torsions:
REMARK  status: ('A' for Active; 'I' for Inactive)
REMARK    1  A    between atoms: C_1  and  O_2
REMARK    2  A    between atoms: O_2  and  C_3
REMARK    3  A    between atoms: C_6  and  C_7
REMARK    4  A    between atoms: C_7  and  C_8
REMARK    5  A    between atoms: C_7  and  C_14
REMARK    6  A    between atoms: C_7  and  N_20
REMARK                            x       y       z     vdW  Elec       q    Type
REMARK                         _______ _______ _______ _____ _____    ______ ____
ROOT
ATOM      1  C   UNL     1      -1.053  12.221  20.651  0.00  0.00    +0.000 C 
ENDROOT
BRANCH   1   2
ATOM      2  N   UNL     1      -2.146  11.653  19.463  0.00  0.00    +0.000 N 
ATOM      3  N   UNL     1      -3.251  12.333  19.592  0.00  0.00    +0.000 NA
ATOM      4  N   UNL     1      -4.166  11.911  18.775  0.00  0.00    +0.000 NA
ATOM      5  C   UNL     1      -3.463  11.321  17.748  0.00  0.00    +0.000 A 
ATOM      6  C   UNL     1      -4.171  11.318  16.501  0.00  0.00    +0.000 A 
ATOM      7  C   UNL     1      -3.847  10.644  15.334  0.00  0.00    +0.000 A 
ATOM      8  C   UNL     1      -2.789   9.844  15.523  0.00  0.00    +0.000 A 
ATOM      9  C   UNL     1      -2.027   9.922  16.832  0.00  0.00    +0.000 A 
ATOM     10  C   UNL     1      -2.059  10.777  18.150  0.00  0.00    +0.000 A 
ENDBRANCH   1   2
BRANCH   1  14
ATOM     11  C   UNL     1      -2.708  14.757  24.306  0.00  0.00    +0.000 A 
ATOM     12  C   UNL     1      -3.515  13.933  23.544  0.00  0.00    +0.000 A 
ATOM     13  C   UNL     1      -2.962  13.219  22.434  0.00  0.00    +0.000 A 
ATOM     14  C   UNL     1      -1.557  13.192  22.037  0.00  0.00    +0.000 A 
ATOM     15  C   UNL     1      -0.782  14.010  22.874  0.00  0.00    +0.000 A 
ATOM     16  C   UNL     1      -1.350  14.779  23.972  0.00  0.00    +0.000 A 
BRANCH  11  18
ATOM     17  C   UNL     1      -3.972  16.606  25.096  0.00  0.00    +0.000 C 
ATOM     18  O   UNL     1      -3.294  15.379  25.380  0.00  0.00    +0.000 OA
ENDBRANCH  11  18
ENDBRANCH   1  14
BRANCH   1  19
ATOM     19  C   UNL     1      -0.002  13.172  19.928  0.00  0.00    +0.000 A 
ATOM     20  C   UNL     1       1.366  12.944  20.040  0.00  0.00    +0.000 A 
ATOM     21  C   UNL     1       2.283  13.936  19.704  0.00  0.00    +0.000 A 
ATOM     22  C   UNL     1       1.879  15.099  19.066  0.00  0.00    +0.000 A 
ATOM     23  C   UNL     1       0.549  15.265  18.731  0.00  0.00    +0.000 A 
ATOM     24  C   UNL     1      -0.378  14.327  19.181  0.00  0.00    +0.000 A 
ENDBRANCH   1  19
BRANCH   1  25
ATOM     25  C   UNL     1      -0.439  10.985  21.301  0.00  0.00    +0.000 A 
ATOM     26  C   UNL     1      -0.763  10.614  22.613  0.00  0.00    +0.000 A 
ATOM     27  C   UNL     1      -0.084   9.588  23.248  0.00  0.00    +0.000 A 
ATOM     28  C   UNL     1       0.897   8.885  22.556  0.00  0.00    +0.000 A 
ATOM     29  C   UNL     1       1.146   9.149  21.212  0.00  0.00    +0.000 A 
ATOM     30  C   UNL     1       0.476  10.186  20.580  0.00  0.00    +0.000 A 
ENDBRANCH   1  25
TORSDOF 5
ENDMDL
MODEL 3
REMARK VINA RESULT:      -8.3      3.037      6.546
REMARK  Name = 
REMARK  6 active torsions:
REMARK  status: ('A' for Active; 'I' for Inactive)
REMARK    1  A    between atoms: C_1  and  O_2
REMARK    2  A    between atoms: O_2  and  C_3
REMARK    3  A    between atoms: C_6  and  C_7
REMARK    4  A    between atoms: C_7  and  C_8
REMARK    5  A    between atoms: C_7  and  C_14
REMARK    6  A    between atoms: C_7  and  N_20
REMARK                            x       y       z     vdW  Elec       q    Type
REMARK                         _______ _______ _______ _____ _____    ______ ____
ROOT
ATOM      1  C   UNL     1      -0.304  11.238  19.328  0.00  0.00    +0.000 C 
ENDROOT
BRANCH   1   2
ATOM      2  N   UNL     1      -1.007  11.681  20.824  0.00  0.00    +0.000 N 
ATOM      3  N   UNL     1      -0.066  11.636  21.725  0.00  0.00    +0.000 NA
ATOM      4  N   UNL     1      -0.531  11.885  22.911  0.00  0.00    +0.000 NA
ATOM      5  C   UNL     1      -1.671  12.625  22.683  0.00  0.00    +0.000 A 
ATOM      6  C   UNL     1      -2.015  13.490  23.774  0.00  0.00    +0.000 A 
ATOM      7  C   UNL     1      -3.184  14.212  23.957  0.00  0.00    +0.000 A 
ATOM      8  C   UNL     1      -4.079  13.921  23.004  0.00  0.00    +0.000 A 
ATOM      9  C   UNL     1      -3.658  13.055  21.833  0.00  0.00    +0.000 A 
ATOM     10  C   UNL     1      -2.348  12.367  21.304  0.00  0.00    +0.000 A 
ENDBRANCH   1   2
BRANCH   1  14
ATOM     11  C   UNL     1       2.470   7.394  19.115  0.00  0.00    +0.000 A 
ATOM     12  C   UNL     1       1.859   7.809  20.283  0.00  0.00    +0.000 A 
ATOM     13  C   UNL     1       1.060   8.995  20.290  0.00  0.00    +0.000 A 
ATOM     14  C   UNL     1       0.729   9.821  19.131  0.00  0.00    +0.000 A 
ATOM     15  C   UNL     1       1.340   9.325  17.969  0.00  0.00    +0.000 A 
ATOM     16  C   UNL     1       2.196   8.148  17.969  0.00  0.00    +0.000 A 
BRANCH  11  18
ATOM     17  C   UNL     1       2.658   5.208  20.023  0.00  0.00    +0.000 C 
ATOM     18  O   UNL     1       3.188   6.225  19.170  0.00  0.00    +0.000 OA
ENDBRANCH  11  18
ENDBRANCH   1  14
BRANCH   1  19
ATOM     19  C   UNL     1       0.650  12.427  18.871  0.00  0.00    +0.000 A 
ATOM     20  C   UNL     1       1.960  12.182  18.471  0.00  0.00    +0.000 A 
ATOM     21  C   UNL     1       2.887  13.217  18.394  0.00  0.00    +0.000 A 
ATOM     22  C   UNL     1       2.495  14.541  18.519  0.00  0.00    +0.000 A 
ATOM     23  C   UNL     1       1.157  14.841  18.692  0.00  0.00    +0.000 A 
ATOM     24  C   UNL     1       0.256  13.797  18.892  0.00  0.00    +0.000 A 
ENDBRANCH   1  19
BRANCH   1  25
ATOM     25  C   UNL     1      -1.460  10.958  18.373  0.00  0.00    +0.000 A 
ATOM     26  C   UNL     1      -2.318   9.866  18.567  0.00  0.00    +0.000 A 
ATOM     27  C   UNL     1      -3.261   9.527  17.613  0.00  0.00    +0.000 A 
ATOM     28  C   UNL     1      -3.392  10.310  16.471  0.00  0.00    +0.000 A 
ATOM     29  C   UNL     1      -2.643  11.474  16.317  0.00  0.00    +0.000 A 
ATOM     30  C   UNL     1      -1.688  11.805  17.266  0.00  0.00    +0.000 A 
ENDBRANCH   1  25
TORSDOF 5
ENDMDL
MODEL 4
REMARK VINA RESULT:      -8.1      2.283      5.186
REMARK  Name = 
REMARK  6 active torsions:
REMARK  status: ('A' for Active; 'I' for Inactive)
REMARK    1  A    between atoms: C_1  and  O_2
REMARK    2  A    between atoms: O_2  and  C_3
REMARK    3  A    between atoms: C_6  and  C_7
REMARK    4  A    between atoms: C_7  and  C_8
REMARK    5  A    between atoms: C_7  and  C_14
REMARK    6  A    between atoms: C_7  and  N_20
REMARK                            x       y       z     vdW  Elec       q    Type
REMARK                         _______ _______ _______ _____ _____    ______ ____
ROOT
ATOM      1  C   UNL     1      -0.418  11.330  19.479  0.00  0.00    +0.000 C 
ENDROOT
BRANCH   1   2
ATOM      2  N   UNL     1       0.639  10.014  19.765  0.00  0.00    +0.000 N 
ATOM      3  N   UNL     1       0.449   9.622  20.994  0.00  0.00    +0.000 NA
ATOM      4  N   UNL     1       1.270   8.672  21.321  0.00  0.00    +0.000 NA
ATOM      5  C   UNL     1       1.614   8.088  20.121  0.00  0.00    +0.000 A 
ATOM      6  C   UNL     1       2.006   6.715  20.248  0.00  0.00    +0.000 A 
ATOM      7  C   UNL     1       2.590   5.900  19.291  0.00  0.00    +0.000 A 
ATOM      8  C   UNL     1       2.880   6.597  18.184  0.00  0.00    +0.000 A 
ATOM      9  C   UNL     1       2.393   8.027  18.061  0.00  0.00    +0.000 A 
ATOM     10  C   UNL     1       1.515   9.034  18.887  0.00  0.00    +0.000 A 
ENDBRANCH   1   2
BRANCH   1  14
ATOM     11  C   UNL     1      -3.256  12.849  22.967  0.00  0.00    +0.000 A 
ATOM     12  C   UNL     1      -2.024  12.269  23.206  0.00  0.00    +0.000 A 
ATOM     13  C   UNL     1      -1.229  11.801  22.113  0.00  0.00    +0.000 A 
ATOM     14  C   UNL     1      -1.543  11.943  20.694  0.00  0.00    +0.000 A 
ATOM     15  C   UNL     1      -2.781  12.580  20.513  0.00  0.00    +0.000 A 
ATOM     16  C   UNL     1      -3.616  13.009  21.624  0.00  0.00    +0.000 A 
BRANCH  11  18
ATOM     17  C   UNL     1      -4.570  12.314  24.871  0.00  0.00    +0.000 C 
ATOM     18  O   UNL     1      -3.948  13.312  24.058  0.00  0.00    +0.000 OA
ENDBRANCH  11  18
ENDBRANCH   1  14
BRANCH   1  19
ATOM     19  C   UNL     1      -1.388  10.921  18.285  0.00  0.00    +0.000 A 
ATOM     20  C   UNL     1      -1.547  11.747  17.177  0.00  0.00    +0.000 A 
ATOM     21  C   UNL     1      -2.620  11.573  16.306  0.00  0.00    +0.000 A 
ATOM     22  C   UNL     1      -3.444  10.462  16.399  0.00  0.00    +0.000 A 
ATOM     23  C   UNL     1      -3.180   9.496  17.351  0.00  0.00    +0.000 A 
ATOM     24  C   UNL     1      -2.184   9.739  18.296  0.00  0.00    +0.000 A 
ENDBRANCH   1  19
BRANCH   1  25
ATOM     25  C   UNL     1       0.465  12.538  19.185  0.00  0.00    +0.000 A 
ATOM     26  C   UNL     1       0.029  13.843  19.453  0.00  0.00    +0.000 A 
ATOM     27  C   UNL     1       0.768  14.937  19.038  0.00  0.00    +0.000 A 
ATOM     28  C   UNL     1       1.983  14.737  18.391  0.00  0.00    +0.000 A 
ATOM     29  C   UNL     1       2.500  13.454  18.230  0.00  0.00    +0.000 A 
ATOM     30  C   UNL     1       1.753  12.358  18.633  0.00  0.00    +0.000 A 
ENDBRANCH   1  25
TORSDOF 5
ENDMDL
MODEL 5
REMARK VINA RESULT:      -8.1      3.203      6.821
REMARK  Name = 
REMARK  6 active torsions:
REMARK  status: ('A' for Active; 'I' for Inactive)
REMARK    1  A    between atoms: C_1  and  O_2
REMARK    2  A    between atoms: O_2  and  C_3
REMARK    3  A    between atoms: C_6  and  C_7
REMARK    4  A    between atoms: C_7  and  C_8
REMARK    5  A    between atoms: C_7  and  C_14
REMARK    6  A    between atoms: C_7  and  N_20
REMARK                            x       y       z     vdW  Elec       q    Type
REMARK                         _______ _______ _______ _____ _____    ______ ____
ROOT
ATOM      1  C   UNL     1       0.164  11.232  19.604  0.00  0.00    +0.000 C 
ENDROOT
BRANCH   1   2
ATOM      2  N   UNL     1       1.248  12.549  19.732  0.00  0.00    +0.000 N 
ATOM      3  N   UNL     1       1.731  12.540  20.944  0.00  0.00    +0.000 NA
ATOM      4  N   UNL     1       2.509  13.557  21.152  0.00  0.00    +0.000 NA
ATOM      5  C   UNL     1       2.950  13.914  19.897  0.00  0.00    +0.000 A 
ATOM      6  C   UNL     1       4.219  14.581  19.908  0.00  0.00    +0.000 A 
ATOM      7  C   UNL     1       4.849  15.239  18.863  0.00  0.00    +0.000 A 
ATOM      8  C   UNL     1       4.055  15.296  17.786  0.00  0.00    +0.000 A 
ATOM      9  C   UNL     1       2.749  14.525  17.789  0.00  0.00    +0.000 A 
ATOM     10  C   UNL     1       1.984  13.531  18.736  0.00  0.00    +0.000 A 
ENDBRANCH   1   2
BRANCH   1  14
ATOM     11  C   UNL     1      -3.121  10.568  16.244  0.00  0.00    +0.000 A 
ATOM     12  C   UNL     1      -2.838   9.619  17.208  0.00  0.00    +0.000 A 
ATOM     13  C   UNL     1      -1.813   9.866  18.175  0.00  0.00    +0.000 A 
ATOM     14  C   UNL     1      -1.044  11.098  18.324  0.00  0.00    +0.000 A 
ATOM     15  C   UNL     1      -1.407  12.039  17.347  0.00  0.00    +0.000 A 
ATOM     16  C   UNL     1      -2.412  11.771  16.329  0.00  0.00    +0.000 A 
BRANCH  11  18
ATOM     17  C   UNL     1      -3.757  10.033  14.019  0.00  0.00    +0.000 C 
ATOM     18  O   UNL     1      -4.143  10.284  15.373  0.00  0.00    +0.000 OA
ENDBRANCH  11  18
ENDBRANCH   1  14
BRANCH   1  19
ATOM     19  C   UNL     1      -0.727  11.208  20.923  0.00  0.00    +0.000 A 
ATOM     20  C   UNL     1      -1.781  12.101  21.092  0.00  0.00    +0.000 A 
ATOM     21  C   UNL     1      -2.340  12.313  22.349  0.00  0.00    +0.000 A 
ATOM     22  C   UNL     1      -2.006  11.507  23.427  0.00  0.00    +0.000 A 
ATOM     23  C   UNL     1      -1.127  10.457  23.245  0.00  0.00    +0.000 A 
ATOM     24  C   UNL     1      -0.478  10.330  22.018  0.00  0.00    +0.000 A 
ENDBRANCH   1  19
BRANCH   1  25
ATOM     25  C   UNL     1       1.020   9.985  19.402  0.00  0.00    +0.000 A 
ATOM     26  C   UNL     1       1.734   9.776  18.215  0.00  0.00    +0.000 A 
ATOM     27  C   UNL     1       2.377   8.573  17.977  0.00  0.00    +0.000 A 
ATOM     28  C   UNL     1       2.356   7.580  18.951  0.00  0.00    +0.000 A 
ATOM     29  C   UNL     1       1.764   7.813  20.190  0.00  0.00    +0.000 A 
ATOM     30  C   UNL     1       1.108   9.012  20.423  0.00  0.00    +0.000 A 
ENDBRANCH   1  25
TORSDOF 5
ENDMDL
MODEL 6
REMARK VINA RESULT:      -7.9      3.112      6.649
REMARK  Name = 
REMARK  6 active torsions:
REMARK  status: ('A' for Active; 'I' for Inactive)
REMARK    1  A    between atoms: C_1  and  O_2
REMARK    2  A    between atoms: O_2  and  C_3
REMARK    3  A    between atoms: C_6  and  C_7
REMARK    4  A    between atoms: C_7  and  C_8
REMARK    5  A    between atoms: C_7  and  C_14
REMARK    6  A    between atoms: C_7  and  N_20
REMARK                            x       y       z     vdW  Elec       q    Type
REMARK                         _______ _______ _______ _____ _____    ______ ____
ROOT
ATOM      1  C   UNL     1      -0.377  11.150  19.537  0.00  0.00    +0.000 C 
ENDROOT
BRANCH   1   2
ATOM      2  N   UNL     1      -1.263  11.549  20.946  0.00  0.00    +0.000 N 
ATOM      3  N   UNL     1      -0.475  11.360  21.968  0.00  0.00    +0.000 NA
ATOM      4  N   UNL     1      -1.094  11.567  23.089  0.00  0.00    +0.000 NA
ATOM      5  C   UNL     1      -2.125  12.418  22.759  0.00  0.00    +0.000 A 
ATOM      6  C   UNL     1      -2.564  13.233  23.854  0.00  0.00    +0.000 A 
ATOM      7  C   UNL     1      -3.688  14.041  23.924  0.00  0.00    +0.000 A 
ATOM      8  C   UNL     1      -4.448  13.895  22.831  0.00  0.00    +0.000 A 
ATOM      9  C   UNL     1      -3.922  13.078  21.667  0.00  0.00    +0.000 A 
ATOM     10  C   UNL     1      -2.604  12.316  21.279  0.00  0.00    +0.000 A 
ENDBRANCH   1   2
BRANCH   1  14
ATOM     11  C   UNL     1       2.471   7.401  18.936  0.00  0.00    +0.000 A 
ATOM     12  C   UNL     1       2.153   8.269  17.908  0.00  0.00    +0.000 A 
ATOM     13  C   UNL     1       1.262   9.363  18.145  0.00  0.00    +0.000 A 
ATOM     14  C   UNL     1       0.680   9.741  19.431  0.00  0.00    +0.000 A 
ATOM     15  C   UNL     1       1.075   8.851  20.442  0.00  0.00    +0.000 A 
ATOM     16  C   UNL     1       1.939   7.706  20.193  0.00  0.00    +0.000 A 
BRANCH  11  18
ATOM     17  C   UNL     1       4.149   6.582  17.469  0.00  0.00    +0.000 C 
ATOM     18  O   UNL     1       3.363   6.398  18.649  0.00  0.00    +0.000 OA
ENDBRANCH  11  18
ENDBRANCH   1  14
BRANCH   1  19
ATOM     19  C   UNL     1       0.619  12.353  19.234  0.00  0.00    +0.000 A 
ATOM     20  C   UNL     1       0.226  13.674  19.421  0.00  0.00    +0.000 A 
ATOM     21  C   UNL     1       0.948  14.720  18.854  0.00  0.00    +0.000 A 
ATOM     22  C   UNL     1       2.180  14.499  18.258  0.00  0.00    +0.000 A 
ATOM     23  C   UNL     1       2.715  13.225  18.252  0.00  0.00    +0.000 A 
ATOM     24  C   UNL     1       1.932  12.167  18.709  0.00  0.00    +0.000 A 
ENDBRANCH   1  19
BRANCH   1  25
ATOM     25  C   UNL     1      -1.405  10.894  18.439  0.00  0.00    +0.000 A 
ATOM     26  C   UNL     1      -1.537  11.762  17.347  0.00  0.00    +0.000 A 
ATOM     27  C   UNL     1      -2.574  11.612  16.442  0.00  0.00    +0.000 A 
ATOM     28  C   UNL     1      -3.465  10.554  16.592  0.00  0.00    +0.000 A 
ATOM     29  C   UNL     1      -3.279   9.603  17.591  0.00  0.00    +0.000 A 
ATOM     30  C   UNL     1      -2.248   9.762  18.506  0.00  0.00    +0.000 A 
ENDBRANCH   1  25
TORSDOF 5
ENDMDL
MODEL 7
REMARK VINA RESULT:      -7.9      2.308      5.147
REMARK  Name = 
REMARK  6 active torsions:
REMARK  status: ('A' for Active; 'I' for Inactive)
REMARK    1  A    between atoms: C_1  and  O_2
REMARK    2  A    between atoms: O_2  and  C_3
REMARK    3  A    between atoms: C_6  and  C_7
REMARK    4  A    between atoms: C_7  and  C_8
REMARK    5  A    between atoms: C_7  and  C_14
REMARK    6  A    between atoms: C_7  and  N_20
REMARK                            x       y       z     vdW  Elec       q    Type
REMARK                         _______ _______ _______ _____ _____    ______ ____
ROOT
ATOM      1  C   UNL     1      -0.645  11.465  19.755  0.00  0.00    +0.000 C 
ENDROOT
BRANCH   1   2
ATOM      2  N   UNL     1       0.511  10.208  19.854  0.00  0.00    +0.000 N 
ATOM      3  N   UNL     1       0.361   9.632  21.015  0.00  0.00    +0.000 NA
ATOM      4  N   UNL     1       1.254   8.711  21.206  0.00  0.00    +0.000 NA
ATOM      5  C   UNL     1       1.633   8.331  19.937  0.00  0.00    +0.000 A 
ATOM      6  C   UNL     1       2.130   6.988  19.869  0.00  0.00    +0.000 A 
ATOM      7  C   UNL     1       2.768   6.364  18.809  0.00  0.00    +0.000 A 
ATOM      8  C   UNL     1       2.996   7.230  17.813  0.00  0.00    +0.000 A 
ATOM      9  C   UNL     1       2.400   8.622  17.892  0.00  0.00    +0.000 A 
ATOM     10  C   UNL     1       1.453   9.432  18.849  0.00  0.00    +0.000 A 
ENDBRANCH   1   2
BRANCH   1  14
ATOM     11  C   UNL     1      -3.737  12.755  23.116  0.00  0.00    +0.000 A 
ATOM     12  C   UNL     1      -3.955  12.991  21.772  0.00  0.00    +0.000 A 
ATOM     13  C   UNL     1      -2.969  12.607  20.809  0.00  0.00    +0.000 A 
ATOM     14  C   UNL     1      -1.730  11.884  21.083  0.00  0.00    +0.000 A 
ATOM     15  C   UNL     1      -1.587  11.632  22.456  0.00  0.00    +0.000 A 
ATOM     16  C   UNL     1      -2.563  12.068  23.444  0.00  0.00    +0.000 A 
BRANCH  11  18
ATOM     17  C   UNL     1      -5.919  13.654  23.379  0.00  0.00    +0.000 C 
ATOM     18  O   UNL     1      -4.742  13.111  23.981  0.00  0.00    +0.000 OA
ENDBRANCH  11  18
ENDBRANCH   1  14
BRANCH   1  19
ATOM     19  C   UNL     1      -1.659  11.099  18.584  0.00  0.00    +0.000 A 
ATOM     20  C   UNL     1      -2.487   9.984  18.675  0.00  0.00    +0.000 A 
ATOM     21  C   UNL     1      -3.118   9.471  17.545  0.00  0.00    +0.000 A 
ATOM     22  C   UNL     1      -3.104  10.160  16.342  0.00  0.00    +0.000 A 
ATOM     23  C   UNL     1      -2.480  11.391  16.269  0.00  0.00    +0.000 A 
ATOM     24  C   UNL     1      -1.746  11.837  17.367  0.00  0.00    +0.000 A 
ENDBRANCH   1  19
BRANCH   1  25
ATOM     25  C   UNL     1       0.137  12.755  19.528  0.00  0.00    +0.000 A 
ATOM     26  C   UNL     1       1.420  12.933  20.063  0.00  0.00    +0.000 A 
ATOM     27  C   UNL     1       2.055  14.161  19.988  0.00  0.00    +0.000 A 
ATOM     28  C   UNL     1       1.432  15.216  19.329  0.00  0.00    +0.000 A 
ATOM     29  C   UNL     1       0.216  15.027  18.677  0.00  0.00    +0.000 A 
ATOM     30  C   UNL     1      -0.427  13.801  18.764  0.00  0.00    +0.000 A 
ENDBRANCH   1  25
TORSDOF 5
ENDMDL
MODEL 8
REMARK VINA RESULT:      -7.9      2.130      4.884
REMARK  Name = 
REMARK  6 active torsions:
REMARK  status: ('A' for Active; 'I' for Inactive)
REMARK    1  A    between atoms: C_1  and  O_2
REMARK    2  A    between atoms: O_2  and  C_3
REMARK    3  A    between atoms: C_6  and  C_7
REMARK    4  A    between atoms: C_7  and  C_8
REMARK    5  A    between atoms: C_7  and  C_14
REMARK    6  A    between atoms: C_7  and  N_20
REMARK                            x       y       z     vdW  Elec       q    Type
REMARK                         _______ _______ _______ _____ _____    ______ ____
ROOT
ATOM      1  C   UNL     1      -0.301  11.407  20.097  0.00  0.00    +0.000 C 
ENDROOT
BRANCH   1   2
ATOM      2  N   UNL     1       0.693  10.022  20.237  0.00  0.00    +0.000 N 
ATOM      3  N   UNL     1       0.509   9.530  21.431  0.00  0.00    +0.000 NA
ATOM      4  N   UNL     1       1.287   8.515  21.650  0.00  0.00    +0.000 NA
ATOM      5  C   UNL     1       1.577   8.027  20.395  0.00  0.00    +0.000 A 
ATOM      6  C   UNL     1       1.902   6.630  20.389  0.00  0.00    +0.000 A 
ATOM      7  C   UNL     1       2.424   5.878  19.348  0.00  0.00    +0.000 A 
ATOM      8  C   UNL     1       2.727   6.657  18.301  0.00  0.00    +0.000 A 
ATOM      9  C   UNL     1       2.310   8.115  18.319  0.00  0.00    +0.000 A 
ATOM     10  C   UNL     1       1.501   9.085  19.253  0.00  0.00    +0.000 A 
ENDBRANCH   1   2
BRANCH   1  14
ATOM     11  C   UNL     1      -2.739  13.468  23.609  0.00  0.00    +0.000 A 
ATOM     12  C   UNL     1      -2.239  14.176  22.532  0.00  0.00    +0.000 A 
ATOM     13  C   UNL     1      -1.484  13.502  21.521  0.00  0.00    +0.000 A 
ATOM     14  C   UNL     1      -1.232  12.066  21.444  0.00  0.00    +0.000 A 
ATOM     15  C   UNL     1      -1.802  11.395  22.538  0.00  0.00    +0.000 A 
ATOM     16  C   UNL     1      -2.526  12.085  23.596  0.00  0.00    +0.000 A 
BRANCH  11  18
ATOM     17  C   UNL     1      -2.763  15.061  25.370  0.00  0.00    +0.000 C 
ATOM     18  O   UNL     1      -3.489  14.169  24.520  0.00  0.00    +0.000 OA
ENDBRANCH  11  18
ENDBRANCH   1  14
BRANCH   1  19
ATOM     19  C   UNL     1      -1.430  11.087  19.022  0.00  0.00    +0.000 A 
ATOM     20  C   UNL     1      -1.208  10.166  18.002  0.00  0.00    +0.000 A 
ATOM     21  C   UNL     1      -2.038  10.126  16.885  0.00  0.00    +0.000 A 
ATOM     22  C   UNL     1      -3.216  10.855  16.842  0.00  0.00    +0.000 A 
ATOM     23  C   UNL     1      -3.589  11.612  17.936  0.00  0.00    +0.000 A 
ATOM     24  C   UNL     1      -2.695  11.745  18.996  0.00  0.00    +0.000 A 
ENDBRANCH   1  19
BRANCH   1  25
ATOM     25  C   UNL     1       0.618  12.564  19.716  0.00  0.00    +0.000 A 
ATOM     26  C   UNL     1       1.798  12.822  20.427  0.00  0.00    +0.000 A 
ATOM     27  C   UNL     1       2.541  13.963  20.178  0.00  0.00    +0.000 A 
ATOM     28  C   UNL     1       2.138  14.837  19.173  0.00  0.00    +0.000 A 
ATOM     29  C   UNL     1       1.044  14.535  18.365  0.00  0.00    +0.000 A 
ATOM     30  C   UNL     1       0.292  13.400  18.625  0.00  0.00    +0.000 A 
ENDBRANCH   1  25
TORSDOF 5
ENDMDL
MODEL 9
REMARK VINA RESULT:      -7.9      2.465      5.195
REMARK  Name = 
REMARK  6 active torsions:
REMARK  status: ('A' for Active; 'I' for Inactive)
REMARK    1  A    between atoms: C_1  and  O_2
REMARK    2  A    between atoms: O_2  and  C_3
REMARK    3  A    between atoms: C_6  and  C_7
REMARK    4  A    between atoms: C_7  and  C_8
REMARK    5  A    between atoms: C_7  and  C_14
REMARK    6  A    between atoms: C_7  and  N_20
REMARK                            x       y       z     vdW  Elec       q    Type
REMARK                         _______ _______ _______ _____ _____    ______ ____
ROOT
ATOM      1  C   UNL     1      -0.133  11.078  19.833  0.00  0.00    +0.000 C 
ENDROOT
BRANCH   1   2
ATOM      2  N   UNL     1       0.880   9.704  19.949  0.00  0.00    +0.000 N 
ATOM      3  N   UNL     1       0.612   9.117  21.082  0.00  0.00    +0.000 NA
ATOM      4  N   UNL     1       1.395   8.102  21.287  0.00  0.00    +0.000 NA
ATOM      5  C   UNL     1       1.797   7.719  20.027  0.00  0.00    +0.000 A 
ATOM      6  C   UNL     1       2.155   6.333  19.940  0.00  0.00    +0.000 A 
ATOM      7  C   UNL     1       2.778   5.674  18.893  0.00  0.00    +0.000 A 
ATOM      8  C   UNL     1       3.145   6.538  17.937  0.00  0.00    +0.000 A 
ATOM      9  C   UNL     1       2.693   7.982  18.031  0.00  0.00    +0.000 A 
ATOM     10  C   UNL     1       1.787   8.861  18.967  0.00  0.00    +0.000 A 
ENDBRANCH   1   2
BRANCH   1  14
ATOM     11  C   UNL     1      -3.219  12.618  23.094  0.00  0.00    +0.000 A 
ATOM     12  C   UNL     1      -3.327  12.940  21.754  0.00  0.00    +0.000 A 
ATOM     13  C   UNL     1      -2.345  12.471  20.825  0.00  0.00    +0.000 A 
ATOM     14  C   UNL     1      -1.229  11.579  21.124  0.00  0.00    +0.000 A 
ATOM     15  C   UNL     1      -1.198  11.250  22.488  0.00  0.00    +0.000 A 
ATOM     16  C   UNL     1      -2.164  11.768  23.446  0.00  0.00    +0.000 A 
BRANCH  11  18
ATOM     17  C   UNL     1      -5.526  13.119  23.352  0.00  0.00    +0.000 C 
ATOM     18  O   UNL     1      -4.216  13.066  23.924  0.00  0.00    +0.000 OA
ENDBRANCH  11  18
ENDBRANCH   1  14
BRANCH   1  19
ATOM     19  C   UNL     1      -1.125  10.847  18.610  0.00  0.00    +0.000 A 
ATOM     20  C   UNL     1      -1.340  11.844  17.664  0.00  0.00    +0.000 A 
ATOM     21  C   UNL     1      -2.431  11.785  16.801  0.00  0.00    +0.000 A 
ATOM     22  C   UNL     1      -3.219  10.647  16.721  0.00  0.00    +0.000 A 
ATOM     23  C   UNL     1      -2.899   9.541  17.486  0.00  0.00    +0.000 A 
ATOM     24  C   UNL     1      -1.884   9.653  18.434  0.00  0.00    +0.000 A 
ENDBRANCH   1  19
BRANCH   1  25
ATOM     25  C   UNL     1       0.788  12.283  19.676  0.00  0.00    +0.000 A 
ATOM     26  C   UNL     1       1.099  13.111  20.764  0.00  0.00    +0.000 A 
ATOM     27  C   UNL     1       1.803  14.288  20.581  0.00  0.00    +0.000 A 
ATOM     28  C   UNL     1       2.251  14.628  19.308  0.00  0.00    +0.000 A 
ATOM     29  C   UNL     1       2.069  13.759  18.235  0.00  0.00    +0.000 A 
ATOM     30  C   UNL     1       1.351  12.586  18.416  0.00  0.00    +0.000 A 
ENDBRANCH   1  25
TORSDOF 5
ENDMDL
