MODEL 1
REMARK VINA RESULT:      -7.1      0.000      0.000
REMARK  Name = 
REMARK  2 active torsions:
REMARK  status: ('A' for Active; 'I' for Inactive)
REMARK    1  A    between atoms: C_7  and  C_8
REMARK    2  A    between atoms: C_8  and  N_9
REMARK                            x       y       z     vdW  Elec       q    Type
REMARK                         _______ _______ _______ _____ _____    ______ ____
ROOT
ATOM      1 CL   UNL     1       1.184   2.556  22.022  0.00  0.00    +0.000 Cl
ATOM      2  C   UNL     1       1.874   3.029  20.515  0.00  0.00    +0.000 A 
ATOM      3  C   UNL     1       1.598   2.268  19.372  0.00  0.00    +0.000 A 
ATOM      4  C   UNL     1       2.141   2.618  18.126  0.00  0.00    +0.000 A 
ATOM      5  C   UNL     1       2.951   3.759  18.057  0.00  0.00    +0.000 A 
ATOM      6  N   UNL     1       3.572   4.354  16.990  0.00  0.00    +0.000 NA
ATOM      7  C   UNL     1       4.127   5.436  17.513  0.00  0.00    +0.000 A 
ATOM      8  O   UNL     1       3.954   5.565  18.869  0.00  0.00    +0.000 OA
ATOM      9  C   UNL     1       3.186   4.488  19.212  0.00  0.00    +0.000 A 
ATOM     10  C   UNL     1       2.686   4.167  20.467  0.00  0.00    +0.000 A 
ENDROOT
BRANCH   7  11
ATOM     11  C   UNL     1       4.749   6.593  16.798  0.00  0.00    +0.000 C 
BRANCH  11  12
ATOM     12  N   UNL     1       6.175   6.535  16.454  0.00  0.00    +0.000 NA
ATOM     13  C   UNL     1       7.097   6.511  17.595  0.00  0.00    +0.000 C 
ATOM     14  C   UNL     1       7.494   5.107  18.099  0.00  0.00    +0.000 C 
ATOM     15  N   UNL     1       7.978   4.231  17.027  0.00  0.00    +0.000 NA
ATOM     16  C   UNL     1       6.991   4.163  15.942  0.00  0.00    +0.000 C 
ATOM     17  C   UNL     1       6.534   5.546  15.430  0.00  0.00    +0.000 C 
ATOM     18  H   UNL     1       8.134   3.295  17.398  0.00  0.00    +0.000 HD
ENDBRANCH  11  12
ENDBRANCH   7  11
TORSDOF 2
ENDMDL
MODEL 2
REMARK VINA RESULT:      -6.8      3.131      5.897
REMARK  Name = 
REMARK  2 active torsions:
REMARK  status: ('A' for Active; 'I' for Inactive)
REMARK    1  A    between atoms: C_7  and  C_8
REMARK    2  A    between atoms: C_8  and  N_9
REMARK                            x       y       z     vdW  Elec       q    Type
REMARK                         _______ _______ _______ _____ _____    ______ ____
ROOT
ATOM      1 CL   UNL     1       6.700   4.344  13.454  0.00  0.00    +0.000 Cl
ATOM      2  C   UNL     1       6.411   4.516  15.145  0.00  0.00    +0.000 A 
ATOM      3  C   UNL     1       7.495   4.759  15.998  0.00  0.00    +0.000 A 
ATOM      4  C   UNL     1       7.303   4.904  17.381  0.00  0.00    +0.000 A 
ATOM      5  C   UNL     1       5.996   4.817  17.878  0.00  0.00    +0.000 A 
ATOM      6  N   UNL     1       5.511   4.956  19.152  0.00  0.00    +0.000 NA
ATOM      7  C   UNL     1       4.200   4.849  19.002  0.00  0.00    +0.000 A 
ATOM      8  O   UNL     1       3.793   4.596  17.716  0.00  0.00    +0.000 OA
ATOM      9  C   UNL     1       4.953   4.588  16.994  0.00  0.00    +0.000 A 
ATOM     10  C   UNL     1       5.100   4.419  15.623  0.00  0.00    +0.000 A 
ENDROOT
BRANCH   7  11
ATOM     11  C   UNL     1       3.128   5.139  20.005  0.00  0.00    +0.000 C 
BRANCH  11  12
ATOM     12  N   UNL     1       2.339   4.026  20.546  0.00  0.00    +0.000 NA
ATOM     13  C   UNL     1       0.993   3.876  19.981  0.00  0.00    +0.000 C 
ATOM     14  C   UNL     1       0.885   2.934  18.763  0.00  0.00    +0.000 C 
ATOM     15  N   UNL     1       1.494   1.620  19.000  0.00  0.00    +0.000 NA
ATOM     16  C   UNL     1       2.884   1.778  19.447  0.00  0.00    +0.000 C 
ATOM     17  C   UNL     1       3.046   2.743  20.641  0.00  0.00    +0.000 C 
ATOM     18  H   UNL     1       1.477   1.079  18.137  0.00  0.00    +0.000 HD
ENDBRANCH  11  12
ENDBRANCH   7  11
TORSDOF 2
ENDMDL
MODEL 3
REMARK VINA RESULT:      -6.7      3.169      6.167
REMARK  Name = 
REMARK  2 active torsions:
REMARK  status: ('A' for Active; 'I' for Inactive)
REMARK    1  A    between atoms: C_7  and  C_8
REMARK    2  A    between atoms: C_8  and  N_9
REMARK                            x       y       z     vdW  Elec       q    Type
REMARK                         _______ _______ _______ _____ _____    ______ ____
ROOT
ATOM      1 CL   UNL     1       8.240   9.179  17.509  0.00  0.00    +0.000 Cl
ATOM      2  C   UNL     1       7.613   7.623  17.910  0.00  0.00    +0.000 A 
ATOM      3  C   UNL     1       8.268   6.857  18.882  0.00  0.00    +0.000 A 
ATOM      4  C   UNL     1       7.790   5.586  19.238  0.00  0.00    +0.000 A 
ATOM      5  C   UNL     1       6.633   5.115  18.604  0.00  0.00    +0.000 A 
ATOM      6  N   UNL     1       5.928   3.952  18.774  0.00  0.00    +0.000 NA
ATOM      7  C   UNL     1       4.890   4.094  17.965  0.00  0.00    +0.000 A 
ATOM      8  O   UNL     1       4.893   5.255  17.233  0.00  0.00    +0.000 OA
ATOM      9  C   UNL     1       6.012   5.914  17.657  0.00  0.00    +0.000 A 
ATOM     10  C   UNL     1       6.460   7.168  17.262  0.00  0.00    +0.000 A 
ENDROOT
BRANCH   7  11
ATOM     11  C   UNL     1       3.658   3.249  17.885  0.00  0.00    +0.000 C 
BRANCH  11  12
ATOM     12  N   UNL     1       3.093   2.694  19.121  0.00  0.00    +0.000 NA
ATOM     13  C   UNL     1       2.950   3.644  20.229  0.00  0.00    +0.000 C 
ATOM     14  C   UNL     1       1.588   4.366  20.315  0.00  0.00    +0.000 C 
ATOM     15  N   UNL     1       0.449   3.442  20.277  0.00  0.00    +0.000 NA
ATOM     16  C   UNL     1       0.536   2.576  19.095  0.00  0.00    +0.000 C 
ATOM     17  C   UNL     1       1.896   1.862  18.946  0.00  0.00    +0.000 C 
ATOM     18  H   UNL     1      -0.418   3.975  20.241  0.00  0.00    +0.000 HD
ENDBRANCH  11  12
ENDBRANCH   7  11
TORSDOF 2
ENDMDL
MODEL 4
REMARK VINA RESULT:      -6.7      3.020      5.881
REMARK  Name = 
REMARK  2 active torsions:
REMARK  status: ('A' for Active; 'I' for Inactive)
REMARK    1  A    between atoms: C_7  and  C_8
REMARK    2  A    between atoms: C_8  and  N_9
REMARK                            x       y       z     vdW  Elec       q    Type
REMARK                         _______ _______ _______ _____ _____    ______ ____
ROOT
ATOM      1 CL   UNL     1       8.307   7.920  18.168  0.00  0.00    +0.000 Cl
ATOM      2  C   UNL     1       6.999   6.814  17.972  0.00  0.00    +0.000 A 
ATOM      3  C   UNL     1       6.140   6.965  16.875  0.00  0.00    +0.000 A 
ATOM      4  C   UNL     1       5.062   6.088  16.679  0.00  0.00    +0.000 A 
ATOM      5  C   UNL     1       4.882   5.049  17.602  0.00  0.00    +0.000 A 
ATOM      6  N   UNL     1       3.959   4.037  17.643  0.00  0.00    +0.000 NA
ATOM      7  C   UNL     1       4.326   3.319  18.692  0.00  0.00    +0.000 A 
ATOM      8  O   UNL     1       5.403   3.824  19.378  0.00  0.00    +0.000 OA
ATOM      9  C   UNL     1       5.764   4.932  18.664  0.00  0.00    +0.000 A 
ATOM     10  C   UNL     1       6.831   5.788  18.907  0.00  0.00    +0.000 A 
ENDROOT
BRANCH   7  11
ATOM     11  C   UNL     1       3.835   1.968  19.106  0.00  0.00    +0.000 C 
BRANCH  11  12
ATOM     12  N   UNL     1       2.614   1.871  19.916  0.00  0.00    +0.000 NA
ATOM     13  C   UNL     1       2.625   2.640  21.165  0.00  0.00    +0.000 C 
ATOM     14  C   UNL     1       2.059   4.073  21.070  0.00  0.00    +0.000 C 
ATOM     15  N   UNL     1       0.732   4.122  20.446  0.00  0.00    +0.000 NA
ATOM     16  C   UNL     1       0.761   3.458  19.137  0.00  0.00    +0.000 C 
ATOM     17  C   UNL     1       1.356   2.033  19.177  0.00  0.00    +0.000 C 
ATOM     18  H   UNL     1       0.452   5.094  20.323  0.00  0.00    +0.000 HD
ENDBRANCH  11  12
ENDBRANCH   7  11
TORSDOF 2
ENDMDL
MODEL 5
REMARK VINA RESULT:      -6.7      3.092      5.981
REMARK  Name = 
REMARK  2 active torsions:
REMARK  status: ('A' for Active; 'I' for Inactive)
REMARK    1  A    between atoms: C_7  and  C_8
REMARK    2  A    between atoms: C_8  and  N_9
REMARK                            x       y       z     vdW  Elec       q    Type
REMARK                         _______ _______ _______ _____ _____    ______ ____
ROOT
ATOM      1 CL   UNL     1       8.210   8.879  17.490  0.00  0.00    +0.000 Cl
ATOM      2  C   UNL     1       7.444   7.375  17.846  0.00  0.00    +0.000 A 
ATOM      3  C   UNL     1       7.983   6.560  18.849  0.00  0.00    +0.000 A 
ATOM      4  C   UNL     1       7.391   5.328  19.169  0.00  0.00    +0.000 A 
ATOM      5  C   UNL     1       6.238   4.948  18.468  0.00  0.00    +0.000 A 
ATOM      6  N   UNL     1       5.438   3.842  18.592  0.00  0.00    +0.000 NA
ATOM      7  C   UNL     1       4.461   4.064  17.727  0.00  0.00    +0.000 A 
ATOM      8  O   UNL     1       4.594   5.223  17.003  0.00  0.00    +0.000 OA
ATOM      9  C   UNL     1       5.734   5.794  17.493  0.00  0.00    +0.000 A 
ATOM     10  C   UNL     1       6.298   7.010  17.131  0.00  0.00    +0.000 A 
ENDROOT
BRANCH   7  11
ATOM     11  C   UNL     1       3.176   3.315  17.573  0.00  0.00    +0.000 C 
BRANCH  11  12
ATOM     12  N   UNL     1       1.974   3.816  18.250  0.00  0.00    +0.000 NA
ATOM     13  C   UNL     1       1.127   2.791  18.869  0.00  0.00    +0.000 C 
ATOM     14  C   UNL     1       1.435   2.479  20.350  0.00  0.00    +0.000 C 
ATOM     15  N   UNL     1       1.486   3.682  21.188  0.00  0.00    +0.000 NA
ATOM     16  C   UNL     1       2.432   4.654  20.626  0.00  0.00    +0.000 C 
ATOM     17  C   UNL     1       2.185   4.969  19.134  0.00  0.00    +0.000 C 
ATOM     18  H   UNL     1       1.785   3.427  22.128  0.00  0.00    +0.000 HD
ENDBRANCH  11  12
ENDBRANCH   7  11
TORSDOF 2
ENDMDL
MODEL 6
REMARK VINA RESULT:      -6.7      1.361      1.871
REMARK  Name = 
REMARK  2 active torsions:
REMARK  status: ('A' for Active; 'I' for Inactive)
REMARK    1  A    between atoms: C_7  and  C_8
REMARK    2  A    between atoms: C_8  and  N_9
REMARK                            x       y       z     vdW  Elec       q    Type
REMARK                         _______ _______ _______ _____ _____    ______ ____
ROOT
ATOM      1 CL   UNL     1       1.482   2.737  21.312  0.00  0.00    +0.000 Cl
ATOM      2  C   UNL     1       2.036   4.065  20.362  0.00  0.00    +0.000 A 
ATOM      3  C   UNL     1       1.776   5.370  20.801  0.00  0.00    +0.000 A 
ATOM      4  C   UNL     1       2.209   6.479  20.058  0.00  0.00    +0.000 A 
ATOM      5  C   UNL     1       2.922   6.242  18.875  0.00  0.00    +0.000 A 
ATOM      6  N   UNL     1       3.493   7.112  17.983  0.00  0.00    +0.000 NA
ATOM      7  C   UNL     1       4.095   6.318  17.112  0.00  0.00    +0.000 A 
ATOM      8  O   UNL     1       3.913   4.977  17.344  0.00  0.00    +0.000 OA
ATOM      9  C   UNL     1       3.167   4.934  18.488  0.00  0.00    +0.000 A 
ATOM     10  C   UNL     1       2.741   3.809  19.181  0.00  0.00    +0.000 A 
ENDROOT
BRANCH   7  11
ATOM     11  C   UNL     1       5.068   6.693  16.039  0.00  0.00    +0.000 C 
BRANCH  11  12
ATOM     12  N   UNL     1       6.506   6.566  16.305  0.00  0.00    +0.000 NA
ATOM     13  C   UNL     1       6.937   6.983  17.645  0.00  0.00    +0.000 C 
ATOM     14  C   UNL     1       6.971   5.866  18.710  0.00  0.00    +0.000 C 
ATOM     15  N   UNL     1       7.720   4.682  18.272  0.00  0.00    +0.000 NA
ATOM     16  C   UNL     1       7.199   4.197  16.987  0.00  0.00    +0.000 C 
ATOM     17  C   UNL     1       7.110   5.291  15.901  0.00  0.00    +0.000 C 
ATOM     18  H   UNL     1       7.629   3.947  18.970  0.00  0.00    +0.000 HD
ENDBRANCH  11  12
ENDBRANCH   7  11
TORSDOF 2
ENDMDL
MODEL 7
REMARK VINA RESULT:      -6.4      3.796      5.757
REMARK  Name = 
REMARK  2 active torsions:
REMARK  status: ('A' for Active; 'I' for Inactive)
REMARK    1  A    between atoms: C_7  and  C_8
REMARK    2  A    between atoms: C_8  and  N_9
REMARK                            x       y       z     vdW  Elec       q    Type
REMARK                         _______ _______ _______ _____ _____    ______ ____
ROOT
ATOM      1 CL   UNL     1      -0.060  10.961  20.634  0.00  0.00    +0.000 Cl
ATOM      2  C   UNL     1       0.867   9.754  19.823  0.00  0.00    +0.000 A 
ATOM      3  C   UNL     1       1.293   9.992  18.510  0.00  0.00    +0.000 A 
ATOM      4  C   UNL     1       2.049   9.035  17.815  0.00  0.00    +0.000 A 
ATOM      5  C   UNL     1       2.377   7.845  18.478  0.00  0.00    +0.000 A 
ATOM      6  N   UNL     1       3.123   6.770  18.071  0.00  0.00    +0.000 NA
ATOM      7  C   UNL     1       3.156   5.989  19.139  0.00  0.00    +0.000 A 
ATOM      8  O   UNL     1       2.434   6.458  20.209  0.00  0.00    +0.000 OA
ATOM      9  C   UNL     1       1.945   7.660  19.781  0.00  0.00    +0.000 A 
ATOM     10  C   UNL     1       1.180   8.570  20.499  0.00  0.00    +0.000 A 
ENDROOT
BRANCH   7  11
ATOM     11  C   UNL     1       4.004   4.780  19.375  0.00  0.00    +0.000 C 
BRANCH  11  12
ATOM     12  N   UNL     1       3.369   3.456  19.393  0.00  0.00    +0.000 NA
ATOM     13  C   UNL     1       3.370   2.776  20.692  0.00  0.00    +0.000 C 
ATOM     14  C   UNL     1       2.127   3.024  21.574  0.00  0.00    +0.000 C 
ATOM     15  N   UNL     1       0.866   2.782  20.866  0.00  0.00    +0.000 NA
ATOM     16  C   UNL     1       0.821   3.565  19.625  0.00  0.00    +0.000 C 
ATOM     17  C   UNL     1       2.063   3.377  18.727  0.00  0.00    +0.000 C 
ATOM     18  H   UNL     1       0.085   3.052  21.462  0.00  0.00    +0.000 HD
ENDBRANCH  11  12
ENDBRANCH   7  11
TORSDOF 2
ENDMDL
MODEL 8
REMARK VINA RESULT:      -6.3      3.269      5.894
REMARK  Name = 
REMARK  2 active torsions:
REMARK  status: ('A' for Active; 'I' for Inactive)
REMARK    1  A    between atoms: C_7  and  C_8
REMARK    2  A    between atoms: C_8  and  N_9
REMARK                            x       y       z     vdW  Elec       q    Type
REMARK                         _______ _______ _______ _____ _____    ______ ____
ROOT
ATOM      1 CL   UNL     1       6.074   3.511  12.312  0.00  0.00    +0.000 Cl
ATOM      2  C   UNL     1       6.037   3.989  13.969  0.00  0.00    +0.000 A 
ATOM      3  C   UNL     1       7.199   4.511  14.551  0.00  0.00    +0.000 A 
ATOM      4  C   UNL     1       7.211   4.911  15.897  0.00  0.00    +0.000 A 
ATOM      5  C   UNL     1       6.025   4.788  16.632  0.00  0.00    +0.000 A 
ATOM      6  N   UNL     1       5.735   5.129  17.927  0.00  0.00    +0.000 NA
ATOM      7  C   UNL     1       4.444   4.857  18.041  0.00  0.00    +0.000 A 
ATOM      8  O   UNL     1       3.877   4.309  16.918  0.00  0.00    +0.000 OA
ATOM      9  C   UNL     1       4.897   4.278  16.009  0.00  0.00    +0.000 A 
ATOM     10  C   UNL     1       4.845   3.852  14.688  0.00  0.00    +0.000 A 
ENDROOT
BRANCH   7  11
ATOM     11  C   UNL     1       3.516   5.228  19.154  0.00  0.00    +0.000 C 
BRANCH  11  12
ATOM     12  N   UNL     1       2.916   4.163  19.967  0.00  0.00    +0.000 NA
ATOM     13  C   UNL     1       1.486   3.929  19.741  0.00  0.00    +0.000 C 
ATOM     14  C   UNL     1       1.145   2.863  18.677  0.00  0.00    +0.000 C 
ATOM     15  N   UNL     1       1.847   1.594  18.897  0.00  0.00    +0.000 NA
ATOM     16  C   UNL     1       3.294   1.823  18.997  0.00  0.00    +0.000 C 
ATOM     17  C   UNL     1       3.680   2.910  20.023  0.00  0.00    +0.000 C 
ATOM     18  H   UNL     1       1.660   0.965  18.117  0.00  0.00    +0.000 HD
ENDBRANCH  11  12
ENDBRANCH   7  11
TORSDOF 2
ENDMDL
MODEL 9
REMARK VINA RESULT:      -6.3      3.300      6.254
REMARK  Name = 
REMARK  2 active torsions:
REMARK  status: ('A' for Active; 'I' for Inactive)
REMARK    1  A    between atoms: C_7  and  C_8
REMARK    2  A    between atoms: C_8  and  N_9
REMARK                            x       y       z     vdW  Elec       q    Type
REMARK                         _______ _______ _______ _____ _____    ______ ____
ROOT
ATOM      1 CL   UNL     1       6.356   3.647  12.479  0.00  0.00    +0.000 Cl
ATOM      2  C   UNL     1       6.300   4.064  14.151  0.00  0.00    +0.000 A 
ATOM      3  C   UNL     1       7.083   5.130  14.612  0.00  0.00    +0.000 A 
ATOM      4  C   UNL     1       7.067   5.501  15.966  0.00  0.00    +0.000 A 
ATOM      5  C   UNL     1       6.233   4.786  16.836  0.00  0.00    +0.000 A 
ATOM      6  N   UNL     1       5.986   4.947  18.174  0.00  0.00    +0.000 NA
ATOM      7  C   UNL     1       5.059   4.039  18.433  0.00  0.00    +0.000 A 
ATOM      8  O   UNL     1       4.716   3.254  17.361  0.00  0.00    +0.000 OA
ATOM      9  C   UNL     1       5.467   3.747  16.331  0.00  0.00    +0.000 A 
ATOM     10  C   UNL     1       5.466   3.334  15.006  0.00  0.00    +0.000 A 
ENDROOT
BRANCH   7  11
ATOM     11  C   UNL     1       4.235   3.886  19.673  0.00  0.00    +0.000 C 
BRANCH  11  12
ATOM     12  N   UNL     1       2.896   4.485  19.717  0.00  0.00    +0.000 NA
ATOM     13  C   UNL     1       2.016   4.141  18.595  0.00  0.00    +0.000 C 
ATOM     14  C   UNL     1       1.115   2.906  18.811  0.00  0.00    +0.000 C 
ATOM     15  N   UNL     1       0.355   2.965  20.064  0.00  0.00    +0.000 NA
ATOM     16  C   UNL     1       1.261   3.186  21.198  0.00  0.00    +0.000 C 
ATOM     17  C   UNL     1       2.208   4.391  21.010  0.00  0.00    +0.000 C 
ATOM     18  H   UNL     1      -0.144   2.088  20.198  0.00  0.00    +0.000 HD
ENDBRANCH  11  12
ENDBRANCH   7  11
TORSDOF 2
ENDMDL
