MODEL 1
REMARK VINA RESULT:      -8.6      0.000      0.000
REMARK  Name = 
REMARK  8 active torsions:
REMARK  status: ('A' for Active; 'I' for Inactive)
REMARK    1  A    between atoms: C_1  and  O_2
REMARK    2  A    between atoms: O_2  and  C_3
REMARK    3  A    between atoms: C_8  and  N_9
REMARK    4  A    between atoms: C_10  and  C_12
REMARK    5  A    between atoms: C_12  and  N_13
REMARK    6  A    between atoms: C_16  and  C_17
REMARK    7  A    between atoms: C_22  and  N_23
REMARK    8  A    between atoms: C_24  and  C_26
REMARK                            x       y       z     vdW  Elec       q    Type
REMARK                         _______ _______ _______ _____ _____    ______ ____
ROOT
ATOM      1  N   UNL     1       1.279   8.763  20.118  0.00  0.00    +0.000 N 
ATOM      2  N   UNL     1       1.827   8.728  18.892  0.00  0.00    +0.000 NA
ATOM      3  N   UNL     1       2.246   7.477  18.749  0.00  0.00    +0.000 NA
ATOM      4  C   UNL     1       1.953   6.825  19.923  0.00  0.00    +0.000 A 
ATOM      5  N   UNL     1       1.387   7.636  20.836  0.00  0.00    +0.000 NA
ENDROOT
BRANCH   4   6
ATOM      6  C   UNL     1       2.137   5.401  20.141  0.00  0.00    +0.000 A 
ATOM      7  C   UNL     1       0.993   4.654  20.499  0.00  0.00    +0.000 A 
ATOM      8  C   UNL     1       1.040   3.267  20.588  0.00  0.00    +0.000 A 
ATOM      9  C   UNL     1       2.233   2.610  20.334  0.00  0.00    +0.000 A 
ATOM     10  C   UNL     1       3.379   3.339  20.000  0.00  0.00    +0.000 A 
ATOM     11  C   UNL     1       3.357   4.738  19.883  0.00  0.00    +0.000 A 
BRANCH  11  12
ATOM     12  N   UNL     1       4.518   5.464  19.498  0.00  0.00    +0.000 N 
ATOM     13  C   UNL     1       5.170   5.392  18.276  0.00  0.00    +0.000 C 
ATOM     14  O   UNL     1       4.793   4.729  17.312  0.00  0.00    +0.000 OA
ATOM     15  H   UNL     1       4.873   6.168  20.141  0.00  0.00    +0.000 HD
BRANCH  13  16
ATOM     16  C   UNL     1       6.364   6.210  18.180  0.00  0.00    +0.000 A 
ATOM     17  C   UNL     1       7.564   6.107  18.860  0.00  0.00    +0.000 A 
ATOM     18  C   UNL     1       8.383   7.165  18.400  0.00  0.00    +0.000 A 
ATOM     19  C   UNL     1       7.634   7.846  17.469  0.00  0.00    +0.000 A 
ATOM     20  O   UNL     1       6.409   7.276  17.324  0.00  0.00    +0.000 OA
ENDBRANCH  13  16
ENDBRANCH  11  12
ENDBRANCH   4   6
BRANCH   1  21
ATOM     21  C   UNL     1       0.535   9.888  20.617  0.00  0.00    +0.000 C 
BRANCH  21  23
ATOM     22  N   UNL     1      -1.424   9.977  19.129  0.00  0.00    +0.000 N 
ATOM     23  C   UNL     1      -0.222  10.564  19.499  0.00  0.00    +0.000 C 
ATOM     24  O   UNL     1       0.227  11.612  19.034  0.00  0.00    +0.000 OA
ATOM     25  H   UNL     1      -1.825   9.235  19.702  0.00  0.00    +0.000 HD
BRANCH  22  31
ATOM     26  C   UNL     1      -3.259  11.294  18.169  0.00  0.00    +0.000 A 
ATOM     27  C   UNL     1      -4.061  11.635  17.069  0.00  0.00    +0.000 A 
ATOM     28  C   UNL     1      -3.825  11.072  15.814  0.00  0.00    +0.000 A 
ATOM     29  C   UNL     1      -2.803  10.148  15.651  0.00  0.00    +0.000 A 
ATOM     30  C   UNL     1      -2.016   9.784  16.743  0.00  0.00    +0.000 A 
ATOM     31  C   UNL     1      -2.220  10.350  18.010  0.00  0.00    +0.000 A 
BRANCH  26  33
ATOM     32  C   UNL     1      -4.705  12.441  19.656  0.00  0.00    +0.000 C 
ATOM     33  O   UNL     1      -3.428  11.841  19.423  0.00  0.00    +0.000 OA
ENDBRANCH  26  33
ENDBRANCH  22  31
ENDBRANCH  21  23
ENDBRANCH   1  21
TORSDOF 7
ENDMDL
MODEL 2
REMARK VINA RESULT:      -8.3      2.668      3.622
REMARK  Name = 
REMARK  8 active torsions:
REMARK  status: ('A' for Active; 'I' for Inactive)
REMARK    1  A    between atoms: C_1  and  O_2
REMARK    2  A    between atoms: O_2  and  C_3
REMARK    3  A    between atoms: C_8  and  N_9
REMARK    4  A    between atoms: C_10  and  C_12
REMARK    5  A    between atoms: C_12  and  N_13
REMARK    6  A    between atoms: C_16  and  C_17
REMARK    7  A    between atoms: C_22  and  N_23
REMARK    8  A    between atoms: C_24  and  C_26
REMARK                            x       y       z     vdW  Elec       q    Type
REMARK                         _______ _______ _______ _____ _____    ______ ____
ROOT
ATOM      1  N   UNL     1       2.481   8.406  18.015  0.00  0.00    +0.000 N 
ATOM      2  N   UNL     1       3.708   8.105  17.557  0.00  0.00    +0.000 NA
ATOM      3  N   UNL     1       3.939   6.877  18.003  0.00  0.00    +0.000 NA
ATOM      4  C   UNL     1       2.839   6.510  18.740  0.00  0.00    +0.000 A 
ATOM      5  N   UNL     1       1.916   7.487  18.812  0.00  0.00    +0.000 NA
ENDROOT
BRANCH   4   6
ATOM      6  C   UNL     1       2.632   5.188  19.305  0.00  0.00    +0.000 A 
ATOM      7  C   UNL     1       1.787   5.097  20.433  0.00  0.00    +0.000 A 
ATOM      8  C   UNL     1       1.415   3.862  20.954  0.00  0.00    +0.000 A 
ATOM      9  C   UNL     1       1.895   2.704  20.364  0.00  0.00    +0.000 A 
ATOM     10  C   UNL     1       2.749   2.780  19.260  0.00  0.00    +0.000 A 
ATOM     11  C   UNL     1       3.126   4.011  18.700  0.00  0.00    +0.000 A 
BRANCH  11  12
ATOM     12  N   UNL     1       3.960   4.074  17.549  0.00  0.00    +0.000 N 
ATOM     13  C   UNL     1       5.343   4.166  17.536  0.00  0.00    +0.000 C 
ATOM     14  O   UNL     1       6.063   4.142  18.532  0.00  0.00    +0.000 OA
ATOM     15  H   UNL     1       3.521   3.961  16.638  0.00  0.00    +0.000 HD
BRANCH  13  16
ATOM     16  C   UNL     1       5.929   4.266  16.213  0.00  0.00    +0.000 A 
ATOM     17  C   UNL     1       5.466   3.784  15.001  0.00  0.00    +0.000 A 
ATOM     18  C   UNL     1       6.428   4.141  14.028  0.00  0.00    +0.000 A 
ATOM     19  C   UNL     1       7.416   4.819  14.704  0.00  0.00    +0.000 A 
ATOM     20  O   UNL     1       7.126   4.903  16.028  0.00  0.00    +0.000 OA
ENDBRANCH  13  16
ENDBRANCH  11  12
ENDBRANCH   4   6
BRANCH   1  21
ATOM     21  C   UNL     1       1.756   9.582  17.614  0.00  0.00    +0.000 C 
BRANCH  21  23
ATOM     22  N   UNL     1       1.147  10.260  19.901  0.00  0.00    +0.000 N 
ATOM     23  C   UNL     1       0.695   9.925  18.632  0.00  0.00    +0.000 C 
ATOM     24  O   UNL     1      -0.482   9.953  18.269  0.00  0.00    +0.000 OA
ATOM     25  H   UNL     1       2.141  10.417  20.062  0.00  0.00    +0.000 HD
BRANCH  22  31
ATOM     26  C   UNL     1      -0.249  11.737  21.278  0.00  0.00    +0.000 A 
ATOM     27  C   UNL     1      -1.031  11.945  22.425  0.00  0.00    +0.000 A 
ATOM     28  C   UNL     1      -1.267  10.904  23.323  0.00  0.00    +0.000 A 
ATOM     29  C   UNL     1      -0.707   9.655  23.098  0.00  0.00    +0.000 A 
ATOM     30  C   UNL     1       0.091   9.445  21.974  0.00  0.00    +0.000 A 
ATOM     31  C   UNL     1       0.327  10.468  21.045  0.00  0.00    +0.000 A 
BRANCH  26  33
ATOM     32  C   UNL     1      -1.176  13.263  19.719  0.00  0.00    +0.000 C 
ATOM     33  O   UNL     1      -0.008  12.720  20.342  0.00  0.00    +0.000 OA
ENDBRANCH  26  33
ENDBRANCH  22  31
ENDBRANCH  21  23
ENDBRANCH   1  21
TORSDOF 7
ENDMDL
MODEL 3
REMARK VINA RESULT:      -8.3      2.443      3.221
REMARK  Name = 
REMARK  8 active torsions:
REMARK  status: ('A' for Active; 'I' for Inactive)
REMARK    1  A    between atoms: C_1  and  O_2
REMARK    2  A    between atoms: O_2  and  C_3
REMARK    3  A    between atoms: C_8  and  N_9
REMARK    4  A    between atoms: C_10  and  C_12
REMARK    5  A    between atoms: C_12  and  N_13
REMARK    6  A    between atoms: C_16  and  C_17
REMARK    7  A    between atoms: C_22  and  N_23
REMARK    8  A    between atoms: C_24  and  C_26
REMARK                            x       y       z     vdW  Elec       q    Type
REMARK                         _______ _______ _______ _____ _____    ______ ____
ROOT
ATOM      1  N   UNL     1       1.908   8.032  18.825  0.00  0.00    +0.000 N 
ATOM      2  N   UNL     1       1.823   7.834  20.152  0.00  0.00    +0.000 NA
ATOM      3  N   UNL     1       2.008   6.529  20.307  0.00  0.00    +0.000 NA
ATOM      4  C   UNL     1       2.165   5.999  19.049  0.00  0.00    +0.000 A 
ATOM      5  N   UNL     1       2.050   6.926  18.080  0.00  0.00    +0.000 NA
ENDROOT
BRANCH   4   6
ATOM      6  C   UNL     1       2.514   4.615  18.778  0.00  0.00    +0.000 A 
ATOM      7  C   UNL     1       1.454   3.683  18.729  0.00  0.00    +0.000 A 
ATOM      8  C   UNL     1       1.671   2.367  18.335  0.00  0.00    +0.000 A 
ATOM      9  C   UNL     1       2.953   1.962  18.001  0.00  0.00    +0.000 A 
ATOM     10  C   UNL     1       4.016   2.869  18.066  0.00  0.00    +0.000 A 
ATOM     11  C   UNL     1       3.823   4.208  18.440  0.00  0.00    +0.000 A 
BRANCH  11  12
ATOM     12  N   UNL     1       4.906   5.131  18.459  0.00  0.00    +0.000 N 
ATOM     13  C   UNL     1       5.482   5.751  17.360  0.00  0.00    +0.000 C 
ATOM     14  O   UNL     1       5.092   5.638  16.200  0.00  0.00    +0.000 OA
ATOM     15  H   UNL     1       5.251   5.439  19.365  0.00  0.00    +0.000 HD
BRANCH  13  16
ATOM     16  C   UNL     1       6.609   6.609  17.673  0.00  0.00    +0.000 A 
ATOM     17  C   UNL     1       7.640   6.420  18.576  0.00  0.00    +0.000 A 
ATOM     18  C   UNL     1       8.462   7.569  18.497  0.00  0.00    +0.000 A 
ATOM     19  C   UNL     1       7.883   8.385  17.553  0.00  0.00    +0.000 A 
ATOM     20  O   UNL     1       6.761   7.814  17.044  0.00  0.00    +0.000 OA
ENDBRANCH  13  16
ENDBRANCH  11  12
ENDBRANCH   4   6
BRANCH   1  21
ATOM     21  C   UNL     1       1.946   9.337  18.224  0.00  0.00    +0.000 C 
BRANCH  21  23
ATOM     22  N   UNL     1       1.106  11.083  19.743  0.00  0.00    +0.000 N 
ATOM     23  C   UNL     1       0.804  10.188  18.726  0.00  0.00    +0.000 C 
ATOM     24  O   UNL     1      -0.291  10.090  18.171  0.00  0.00    +0.000 OA
ATOM     25  H   UNL     1       2.078  11.251  20.001  0.00  0.00    +0.000 HD
BRANCH  22  31
ATOM     26  C   UNL     1      -0.150  11.537  21.803  0.00  0.00    +0.000 A 
ATOM     27  C   UNL     1      -1.105  12.294  22.499  0.00  0.00    +0.000 A 
ATOM     28  C   UNL     1      -1.726  13.387  21.894  0.00  0.00    +0.000 A 
ATOM     29  C   UNL     1      -1.419  13.719  20.582  0.00  0.00    +0.000 A 
ATOM     30  C   UNL     1      -0.490  12.958  19.873  0.00  0.00    +0.000 A 
ATOM     31  C   UNL     1       0.163  11.867  20.465  0.00  0.00    +0.000 A 
BRANCH  26  33
ATOM     32  C   UNL     1      -0.293   9.596  23.156  0.00  0.00    +0.000 C 
ATOM     33  O   UNL     1       0.516  10.467  22.361  0.00  0.00    +0.000 OA
ENDBRANCH  26  33
ENDBRANCH  22  31
ENDBRANCH  21  23
ENDBRANCH   1  21
TORSDOF 7
ENDMDL
MODEL 4
REMARK VINA RESULT:      -8.2      1.842      2.542
REMARK  Name = 
REMARK  8 active torsions:
REMARK  status: ('A' for Active; 'I' for Inactive)
REMARK    1  A    between atoms: C_1  and  O_2
REMARK    2  A    between atoms: O_2  and  C_3
REMARK    3  A    between atoms: C_8  and  N_9
REMARK    4  A    between atoms: C_10  and  C_12
REMARK    5  A    between atoms: C_12  and  N_13
REMARK    6  A    between atoms: C_16  and  C_17
REMARK    7  A    between atoms: C_22  and  N_23
REMARK    8  A    between atoms: C_24  and  C_26
REMARK                            x       y       z     vdW  Elec       q    Type
REMARK                         _______ _______ _______ _____ _____    ______ ____
ROOT
ATOM      1  N   UNL     1       2.151   8.363  18.761  0.00  0.00    +0.000 N 
ATOM      2  N   UNL     1       2.199   7.847  17.521  0.00  0.00    +0.000 NA
ATOM      3  N   UNL     1       2.336   6.541  17.708  0.00  0.00    +0.000 NA
ATOM      4  C   UNL     1       2.394   6.339  19.066  0.00  0.00    +0.000 A 
ATOM      5  N   UNL     1       2.335   7.489  19.762  0.00  0.00    +0.000 NA
ENDROOT
BRANCH   4   6
ATOM      6  C   UNL     1       2.418   5.033  19.703  0.00  0.00    +0.000 A 
ATOM      7  C   UNL     1       1.608   4.862  20.846  0.00  0.00    +0.000 A 
ATOM      8  C   UNL     1       1.454   3.612  21.438  0.00  0.00    +0.000 A 
ATOM      9  C   UNL     1       2.121   2.522  20.902  0.00  0.00    +0.000 A 
ATOM     10  C   UNL     1       2.943   2.682  19.783  0.00  0.00    +0.000 A 
ATOM     11  C   UNL     1       3.101   3.926  19.153  0.00  0.00    +0.000 A 
BRANCH  11  12
ATOM     12  N   UNL     1       3.906   4.066  17.988  0.00  0.00    +0.000 N 
ATOM     13  C   UNL     1       5.282   4.237  17.950  0.00  0.00    +0.000 C 
ATOM     14  O   UNL     1       6.023   4.227  18.931  0.00  0.00    +0.000 OA
ATOM     15  H   UNL     1       3.455   3.953  17.083  0.00  0.00    +0.000 HD
BRANCH  13  16
ATOM     16  C   UNL     1       5.833   4.405  16.618  0.00  0.00    +0.000 A 
ATOM     17  C   UNL     1       7.120   4.730  16.228  0.00  0.00    +0.000 A 
ATOM     18  C   UNL     1       7.113   4.781  14.815  0.00  0.00    +0.000 A 
ATOM     19  C   UNL     1       5.827   4.484  14.431  0.00  0.00    +0.000 A 
ATOM     20  O   UNL     1       5.040   4.251  15.514  0.00  0.00    +0.000 OA
ENDBRANCH  13  16
ENDBRANCH  11  12
ENDBRANCH   4   6
BRANCH   1  21
ATOM     21  C   UNL     1       1.827   9.738  19.032  0.00  0.00    +0.000 C 
BRANCH  21  23
ATOM     22  N   UNL     1      -0.346  10.644  18.311  0.00  0.00    +0.000 N 
ATOM     23  C   UNL     1       0.343   9.900  19.259  0.00  0.00    +0.000 C 
ATOM     24  O   UNL     1      -0.173   9.319  20.214  0.00  0.00    +0.000 OA
ATOM     25  H   UNL     1       0.115  10.913  17.442  0.00  0.00    +0.000 HD
BRANCH  22  31
ATOM     26  C   UNL     1      -2.631  10.646  17.413  0.00  0.00    +0.000 A 
ATOM     27  C   UNL     1      -3.964  11.076  17.493  0.00  0.00    +0.000 A 
ATOM     28  C   UNL     1      -4.393  11.873  18.554  0.00  0.00    +0.000 A 
ATOM     29  C   UNL     1      -3.491  12.269  19.531  0.00  0.00    +0.000 A 
ATOM     30  C   UNL     1      -2.159  11.868  19.448  0.00  0.00    +0.000 A 
ATOM     31  C   UNL     1      -1.707  11.050  18.403  0.00  0.00    +0.000 A 
BRANCH  26  33
ATOM     32  C   UNL     1      -2.912   9.876  15.190  0.00  0.00    +0.000 C 
ATOM     33  O   UNL     1      -2.160   9.833  16.405  0.00  0.00    +0.000 OA
ENDBRANCH  26  33
ENDBRANCH  22  31
ENDBRANCH  21  23
ENDBRANCH   1  21
TORSDOF 7
ENDMDL
MODEL 5
REMARK VINA RESULT:      -8.2      2.653      3.668
REMARK  Name = 
REMARK  8 active torsions:
REMARK  status: ('A' for Active; 'I' for Inactive)
REMARK    1  A    between atoms: C_1  and  O_2
REMARK    2  A    between atoms: O_2  and  C_3
REMARK    3  A    between atoms: C_8  and  N_9
REMARK    4  A    between atoms: C_10  and  C_12
REMARK    5  A    between atoms: C_12  and  N_13
REMARK    6  A    between atoms: C_16  and  C_17
REMARK    7  A    between atoms: C_22  and  N_23
REMARK    8  A    between atoms: C_24  and  C_26
REMARK                            x       y       z     vdW  Elec       q    Type
REMARK                         _______ _______ _______ _____ _____    ______ ____
ROOT
ATOM      1  N   UNL     1       2.172   8.240  18.123  0.00  0.00    +0.000 N 
ATOM      2  N   UNL     1       3.335   8.015  17.488  0.00  0.00    +0.000 NA
ATOM      3  N   UNL     1       3.774   6.869  17.993  0.00  0.00    +0.000 NA
ATOM      4  C   UNL     1       2.857   6.476  18.938  0.00  0.00    +0.000 A 
ATOM      5  N   UNL     1       1.853   7.361  19.083  0.00  0.00    +0.000 NA
ENDROOT
BRANCH   4   6
ATOM      6  C   UNL     1       2.897   5.207  19.644  0.00  0.00    +0.000 A 
ATOM      7  C   UNL     1       2.144   5.110  20.835  0.00  0.00    +0.000 A 
ATOM      8  C   UNL     1       2.004   3.898  21.501  0.00  0.00    +0.000 A 
ATOM      9  C   UNL     1       2.628   2.770  20.994  0.00  0.00    +0.000 A 
ATOM     10  C   UNL     1       3.395   2.855  19.827  0.00  0.00    +0.000 A 
ATOM     11  C   UNL     1       3.537   4.061  19.123  0.00  0.00    +0.000 A 
BRANCH  11  12
ATOM     12  N   UNL     1       4.283   4.125  17.913  0.00  0.00    +0.000 N 
ATOM     13  C   UNL     1       5.653   4.303  17.796  0.00  0.00    +0.000 C 
ATOM     14  O   UNL     1       6.440   4.369  18.738  0.00  0.00    +0.000 OA
ATOM     15  H   UNL     1       3.790   3.945  17.041  0.00  0.00    +0.000 HD
BRANCH  13  16
ATOM     16  C   UNL     1       6.138   4.381  16.431  0.00  0.00    +0.000 A 
ATOM     17  C   UNL     1       7.135   5.174  15.890  0.00  0.00    +0.000 A 
ATOM     18  C   UNL     1       7.192   4.867  14.510  0.00  0.00    +0.000 A 
ATOM     19  C   UNL     1       6.229   3.908  14.296  0.00  0.00    +0.000 A 
ATOM     20  O   UNL     1       5.584   3.603  15.451  0.00  0.00    +0.000 OA
ENDBRANCH  13  16
ENDBRANCH  11  12
ENDBRANCH   4   6
BRANCH   1  21
ATOM     21  C   UNL     1       1.262   9.291  17.752  0.00  0.00    +0.000 C 
BRANCH  21  23
ATOM     22  N   UNL     1      -0.137   9.834  19.704  0.00  0.00    +0.000 N 
ATOM     23  C   UNL     1       0.966  10.180  18.935  0.00  0.00    +0.000 C 
ATOM     24  O   UNL     1       1.742  11.103  19.186  0.00  0.00    +0.000 OA
ATOM     25  H   UNL     1      -0.601   8.939  19.553  0.00  0.00    +0.000 HD
BRANCH  22  31
ATOM     26  C   UNL     1      -0.566  10.161  22.098  0.00  0.00    +0.000 A 
ATOM     27  C   UNL     1      -1.137  10.914  23.136  0.00  0.00    +0.000 A 
ATOM     28  C   UNL     1      -1.796  12.113  22.867  0.00  0.00    +0.000 A 
ATOM     29  C   UNL     1      -1.913  12.560  21.558  0.00  0.00    +0.000 A 
ATOM     30  C   UNL     1      -1.371  11.808  20.517  0.00  0.00    +0.000 A 
ATOM     31  C   UNL     1      -0.685  10.609  20.764  0.00  0.00    +0.000 A 
BRANCH  26  33
ATOM     32  C   UNL     1       1.524   9.139  22.550  0.00  0.00    +0.000 C 
ATOM     33  O   UNL     1       0.122   8.986  22.310  0.00  0.00    +0.000 OA
ENDBRANCH  26  33
ENDBRANCH  22  31
ENDBRANCH  21  23
ENDBRANCH   1  21
TORSDOF 7
ENDMDL
MODEL 6
REMARK VINA RESULT:      -8.2      1.555      2.427
REMARK  Name = 
REMARK  8 active torsions:
REMARK  status: ('A' for Active; 'I' for Inactive)
REMARK    1  A    between atoms: C_1  and  O_2
REMARK    2  A    between atoms: O_2  and  C_3
REMARK    3  A    between atoms: C_8  and  N_9
REMARK    4  A    between atoms: C_10  and  C_12
REMARK    5  A    between atoms: C_12  and  N_13
REMARK    6  A    between atoms: C_16  and  C_17
REMARK    7  A    between atoms: C_22  and  N_23
REMARK    8  A    between atoms: C_24  and  C_26
REMARK                            x       y       z     vdW  Elec       q    Type
REMARK                         _______ _______ _______ _____ _____    ______ ____
ROOT
ATOM      1  N   UNL     1       1.936   8.111  18.651  0.00  0.00    +0.000 N 
ATOM      2  N   UNL     1       1.822   8.013  19.987  0.00  0.00    +0.000 NA
ATOM      3  N   UNL     1       1.957   6.717  20.240  0.00  0.00    +0.000 NA
ATOM      4  C   UNL     1       2.116   6.092  19.026  0.00  0.00    +0.000 A 
ATOM      5  N   UNL     1       2.050   6.949  17.991  0.00  0.00    +0.000 NA
ENDROOT
BRANCH   4   6
ATOM      6  C   UNL     1       2.418   4.681  18.862  0.00  0.00    +0.000 A 
ATOM      7  C   UNL     1       1.325   3.787  18.844  0.00  0.00    +0.000 A 
ATOM      8  C   UNL     1       1.503   2.440  18.549  0.00  0.00    +0.000 A 
ATOM      9  C   UNL     1       2.777   1.966  18.284  0.00  0.00    +0.000 A 
ATOM     10  C   UNL     1       3.872   2.835  18.320  0.00  0.00    +0.000 A 
ATOM     11  C   UNL     1       3.720   4.203  18.594  0.00  0.00    +0.000 A 
BRANCH  11  12
ATOM     12  N   UNL     1       4.837   5.086  18.584  0.00  0.00    +0.000 N 
ATOM     13  C   UNL     1       5.389   5.705  17.472  0.00  0.00    +0.000 C 
ATOM     14  O   UNL     1       4.946   5.629  16.328  0.00  0.00    +0.000 OA
ATOM     15  H   UNL     1       5.232   5.363  19.480  0.00  0.00    +0.000 HD
BRANCH  13  16
ATOM     16  C   UNL     1       6.560   6.514  17.752  0.00  0.00    +0.000 A 
ATOM     17  C   UNL     1       7.592   6.298  18.648  0.00  0.00    +0.000 A 
ATOM     18  C   UNL     1       8.467   7.403  18.532  0.00  0.00    +0.000 A 
ATOM     19  C   UNL     1       7.917   8.223  17.575  0.00  0.00    +0.000 A 
ATOM     20  O   UNL     1       6.762   7.696  17.092  0.00  0.00    +0.000 OA
ENDBRANCH  13  16
ENDBRANCH  11  12
ENDBRANCH   4   6
BRANCH   1  21
ATOM     21  C   UNL     1       2.031   9.367  17.958  0.00  0.00    +0.000 C 
BRANCH  21  23
ATOM     22  N   UNL     1      -0.037  10.055  19.104  0.00  0.00    +0.000 N 
ATOM     23  C   UNL     1       1.227  10.429  18.669  0.00  0.00    +0.000 C 
ATOM     24  O   UNL     1       1.752  11.524  18.877  0.00  0.00    +0.000 OA
ATOM     25  H   UNL     1      -0.313   9.074  19.079  0.00  0.00    +0.000 HD
BRANCH  22  31
ATOM     26  C   UNL     1      -2.108  11.350  18.865  0.00  0.00    +0.000 A 
ATOM     27  C   UNL     1      -3.054  12.235  19.405  0.00  0.00    +0.000 A 
ATOM     28  C   UNL     1      -2.942  12.680  20.722  0.00  0.00    +0.000 A 
ATOM     29  C   UNL     1      -1.874  12.266  21.504  0.00  0.00    +0.000 A 
ATOM     30  C   UNL     1      -0.916  11.405  20.970  0.00  0.00    +0.000 A 
ATOM     31  C   UNL     1      -1.016  10.927  19.656  0.00  0.00    +0.000 A 
BRANCH  26  33
ATOM     32  C   UNL     1      -3.180   9.845  17.380  0.00  0.00    +0.000 C 
ATOM     33  O   UNL     1      -2.186  10.854  17.581  0.00  0.00    +0.000 OA
ENDBRANCH  26  33
ENDBRANCH  22  31
ENDBRANCH  21  23
ENDBRANCH   1  21
TORSDOF 7
ENDMDL
MODEL 7
REMARK VINA RESULT:      -8.1      1.222      2.086
REMARK  Name = 
REMARK  8 active torsions:
REMARK  status: ('A' for Active; 'I' for Inactive)
REMARK    1  A    between atoms: C_1  and  O_2
REMARK    2  A    between atoms: O_2  and  C_3
REMARK    3  A    between atoms: C_8  and  N_9
REMARK    4  A    between atoms: C_10  and  C_12
REMARK    5  A    between atoms: C_12  and  N_13
REMARK    6  A    between atoms: C_16  and  C_17
REMARK    7  A    between atoms: C_22  and  N_23
REMARK    8  A    between atoms: C_24  and  C_26
REMARK                            x       y       z     vdW  Elec       q    Type
REMARK                         _______ _______ _______ _____ _____    ______ ____
ROOT
ATOM      1  N   UNL     1       1.850   8.322  19.269  0.00  0.00    +0.000 N 
ATOM      2  N   UNL     1       1.529   8.447  20.568  0.00  0.00    +0.000 NA
ATOM      3  N   UNL     1       1.559   7.207  21.041  0.00  0.00    +0.000 NA
ATOM      4  C   UNL     1       1.870   6.388  19.982  0.00  0.00    +0.000 A 
ATOM      5  N   UNL     1       2.006   7.065  18.827  0.00  0.00    +0.000 NA
ENDROOT
BRANCH   4   6
ATOM      6  C   UNL     1       2.124   4.962  20.093  0.00  0.00    +0.000 A 
ATOM      7  C   UNL     1       1.027   4.138  20.429  0.00  0.00    +0.000 A 
ATOM      8  C   UNL     1       1.139   2.752  20.418  0.00  0.00    +0.000 A 
ATOM      9  C   UNL     1       2.352   2.172  20.086  0.00  0.00    +0.000 A 
ATOM     10  C   UNL     1       3.453   2.976  19.773  0.00  0.00    +0.000 A 
ATOM     11  C   UNL     1       3.364   4.377  19.756  0.00  0.00    +0.000 A 
BRANCH  11  12
ATOM     12  N   UNL     1       4.480   5.182  19.392  0.00  0.00    +0.000 N 
ATOM     13  C   UNL     1       5.009   5.332  18.119  0.00  0.00    +0.000 C 
ATOM     14  O   UNL     1       4.543   4.834  17.096  0.00  0.00    +0.000 OA
ATOM     15  H   UNL     1       4.893   5.774  20.109  0.00  0.00    +0.000 HD
BRANCH  13  16
ATOM     16  C   UNL     1       6.185   6.179  18.050  0.00  0.00    +0.000 A 
ATOM     17  C   UNL     1       6.482   7.211  17.177  0.00  0.00    +0.000 A 
ATOM     18  C   UNL     1       7.763   7.690  17.538  0.00  0.00    +0.000 A 
ATOM     19  C   UNL     1       8.166   6.924  18.607  0.00  0.00    +0.000 A 
ATOM     20  O   UNL     1       7.219   6.006  18.929  0.00  0.00    +0.000 OA
ENDBRANCH  13  16
ENDBRANCH  11  12
ENDBRANCH   4   6
BRANCH   1  21
ATOM     21  C   UNL     1       2.113   9.445  18.410  0.00  0.00    +0.000 C 
BRANCH  21  23
ATOM     22  N   UNL     1      -0.241  10.002  18.872  0.00  0.00    +0.000 N 
ATOM     23  C   UNL     1       1.020  10.478  18.537  0.00  0.00    +0.000 C 
ATOM     24  O   UNL     1       1.316  11.667  18.405  0.00  0.00    +0.000 OA
ATOM     25  H   UNL     1      -0.355   9.034  19.169  0.00  0.00    +0.000 HD
BRANCH  22  31
ATOM     26  C   UNL     1      -2.364  10.664  17.833  0.00  0.00    +0.000 A 
ATOM     27  C   UNL     1      -3.528  11.448  17.847  0.00  0.00    +0.000 A 
ATOM     28  C   UNL     1      -3.794  12.309  18.911  0.00  0.00    +0.000 A 
ATOM     29  C   UNL     1      -2.890  12.415  19.959  0.00  0.00    +0.000 A 
ATOM     30  C   UNL     1      -1.719  11.659  19.943  0.00  0.00    +0.000 A 
ATOM     31  C   UNL     1      -1.438  10.770  18.895  0.00  0.00    +0.000 A 
BRANCH  26  33
ATOM     32  C   UNL     1      -2.857   9.913  15.640  0.00  0.00    +0.000 C 
ATOM     33  O   UNL     1      -2.065   9.774  16.823  0.00  0.00    +0.000 OA
ENDBRANCH  26  33
ENDBRANCH  22  31
ENDBRANCH  21  23
ENDBRANCH   1  21
TORSDOF 7
ENDMDL
MODEL 8
REMARK VINA RESULT:      -8.1      1.622      1.814
REMARK  Name = 
REMARK  8 active torsions:
REMARK  status: ('A' for Active; 'I' for Inactive)
REMARK    1  A    between atoms: C_1  and  O_2
REMARK    2  A    between atoms: O_2  and  C_3
REMARK    3  A    between atoms: C_8  and  N_9
REMARK    4  A    between atoms: C_10  and  C_12
REMARK    5  A    between atoms: C_12  and  N_13
REMARK    6  A    between atoms: C_16  and  C_17
REMARK    7  A    between atoms: C_22  and  N_23
REMARK    8  A    between atoms: C_24  and  C_26
REMARK                            x       y       z     vdW  Elec       q    Type
REMARK                         _______ _______ _______ _____ _____    ______ ____
ROOT
ATOM      1  N   UNL     1       2.021   8.200  19.354  0.00  0.00    +0.000 N 
ATOM      2  N   UNL     1       2.190   7.916  18.052  0.00  0.00    +0.000 NA
ATOM      3  N   UNL     1       2.291   6.594  18.008  0.00  0.00    +0.000 NA
ATOM      4  C   UNL     1       2.208   6.147  19.305  0.00  0.00    +0.000 A 
ATOM      5  N   UNL     1       2.092   7.154  20.191  0.00  0.00    +0.000 NA
ENDROOT
BRANCH   4   6
ATOM      6  C   UNL     1       2.153   4.748  19.690  0.00  0.00    +0.000 A 
ATOM      7  C   UNL     1       1.273   4.406  20.740  0.00  0.00    +0.000 A 
ATOM      8  C   UNL     1       1.044   3.077  21.082  0.00  0.00    +0.000 A 
ATOM      9  C   UNL     1       1.704   2.075  20.390  0.00  0.00    +0.000 A 
ATOM     10  C   UNL     1       2.594   2.401  19.361  0.00  0.00    +0.000 A 
ATOM     11  C   UNL     1       2.830   3.731  18.981  0.00  0.00    +0.000 A 
BRANCH  11  12
ATOM     12  N   UNL     1       3.704   4.047  17.904  0.00  0.00    +0.000 N 
ATOM     13  C   UNL     1       5.087   4.136  17.962  0.00  0.00    +0.000 C 
ATOM     14  O   UNL     1       5.770   3.887  18.953  0.00  0.00    +0.000 OA
ATOM     15  H   UNL     1       3.299   4.142  16.975  0.00  0.00    +0.000 HD
BRANCH  13  16
ATOM     16  C   UNL     1       5.719   4.527  16.716  0.00  0.00    +0.000 A 
ATOM     17  C   UNL     1       5.164   4.713  15.462  0.00  0.00    +0.000 A 
ATOM     18  C   UNL     1       6.225   5.073  14.599  0.00  0.00    +0.000 A 
ATOM     19  C   UNL     1       7.359   5.087  15.378  0.00  0.00    +0.000 A 
ATOM     20  O   UNL     1       7.066   4.759  16.663  0.00  0.00    +0.000 OA
ENDBRANCH  13  16
ENDBRANCH  11  12
ENDBRANCH   4   6
BRANCH   1  21
ATOM     21  C   UNL     1       1.687   9.511  19.840  0.00  0.00    +0.000 C 
BRANCH  21  23
ATOM     22  N   UNL     1      -0.590   9.833  18.958  0.00  0.00    +0.000 N 
ATOM     23  C   UNL     1       0.745  10.207  18.887  0.00  0.00    +0.000 C 
ATOM     24  O   UNL     1       1.193  11.097  18.162  0.00  0.00    +0.000 OA
ATOM     25  H   UNL     1      -0.912   9.244  19.726  0.00  0.00    +0.000 HD
BRANCH  22  31
ATOM     26  C   UNL     1      -2.522  11.256  18.443  0.00  0.00    +0.000 A 
ATOM     27  C   UNL     1      -3.551  11.633  17.566  0.00  0.00    +0.000 A 
ATOM     28  C   UNL     1      -3.671  11.037  16.311  0.00  0.00    +0.000 A 
ATOM     29  C   UNL     1      -2.781  10.043  15.929  0.00  0.00    +0.000 A 
ATOM     30  C   UNL     1      -1.770   9.644  16.802  0.00  0.00    +0.000 A 
ATOM     31  C   UNL     1      -1.615  10.242  18.061  0.00  0.00    +0.000 A 
BRANCH  26  33
ATOM     32  C   UNL     1      -3.422  12.645  20.139  0.00  0.00    +0.000 C 
ATOM     33  O   UNL     1      -2.338  11.832  19.682  0.00  0.00    +0.000 OA
ENDBRANCH  26  33
ENDBRANCH  22  31
ENDBRANCH  21  23
ENDBRANCH   1  21
TORSDOF 7
ENDMDL
MODEL 9
REMARK VINA RESULT:      -8.1      1.743      2.640
REMARK  Name = 
REMARK  8 active torsions:
REMARK  status: ('A' for Active; 'I' for Inactive)
REMARK    1  A    between atoms: C_1  and  O_2
REMARK    2  A    between atoms: O_2  and  C_3
REMARK    3  A    between atoms: C_8  and  N_9
REMARK    4  A    between atoms: C_10  and  C_12
REMARK    5  A    between atoms: C_12  and  N_13
REMARK    6  A    between atoms: C_16  and  C_17
REMARK    7  A    between atoms: C_22  and  N_23
REMARK    8  A    between atoms: C_24  and  C_26
REMARK                            x       y       z     vdW  Elec       q    Type
REMARK                         _______ _______ _______ _____ _____    ______ ____
ROOT
ATOM      1  N   UNL     1       1.452   7.389  20.777  0.00  0.00    +0.000 N 
ATOM      2  N   UNL     1       1.949   7.996  19.687  0.00  0.00    +0.000 NA
ATOM      3  N   UNL     1       2.401   7.006  18.929  0.00  0.00    +0.000 NA
ATOM      4  C   UNL     1       2.178   5.842  19.624  0.00  0.00    +0.000 A 
ATOM      5  N   UNL     1       1.625   6.060  20.832  0.00  0.00    +0.000 NA
ENDROOT
BRANCH   4   6
ATOM      6  C   UNL     1       2.415   4.510  19.095  0.00  0.00    +0.000 A 
ATOM      7  C   UNL     1       1.312   3.628  19.058  0.00  0.00    +0.000 A 
ATOM      8  C   UNL     1       1.405   2.387  18.439  0.00  0.00    +0.000 A 
ATOM      9  C   UNL     1       2.606   2.004  17.864  0.00  0.00    +0.000 A 
ATOM     10  C   UNL     1       3.713   2.857  17.913  0.00  0.00    +0.000 A 
ATOM     11  C   UNL     1       3.642   4.125  18.513  0.00  0.00    +0.000 A 
BRANCH  11  12
ATOM     12  N   UNL     1       4.763   5.002  18.517  0.00  0.00    +0.000 N 
ATOM     13  C   UNL     1       5.251   5.722  17.437  0.00  0.00    +0.000 C 
ATOM     14  O   UNL     1       4.739   5.756  16.320  0.00  0.00    +0.000 OA
ATOM     15  H   UNL     1       5.213   5.193  19.409  0.00  0.00    +0.000 HD
BRANCH  13  16
ATOM     16  C   UNL     1       6.443   6.499  17.719  0.00  0.00    +0.000 A 
ATOM     17  C   UNL     1       7.464   6.258  18.622  0.00  0.00    +0.000 A 
ATOM     18  C   UNL     1       8.370   7.337  18.506  0.00  0.00    +0.000 A 
ATOM     19  C   UNL     1       7.849   8.168  17.542  0.00  0.00    +0.000 A 
ATOM     20  O   UNL     1       6.682   7.672  17.055  0.00  0.00    +0.000 OA
ENDBRANCH  13  16
ENDBRANCH  11  12
ENDBRANCH   4   6
BRANCH   1  21
ATOM     21  C   UNL     1       0.694   8.077  21.787  0.00  0.00    +0.000 C 
BRANCH  21  23
ATOM     22  N   UNL     1      -0.366   9.968  20.620  0.00  0.00    +0.000 N 
ATOM     23  C   UNL     1       0.633   9.556  21.491  0.00  0.00    +0.000 C 
ATOM     24  O   UNL     1       1.414  10.306  22.079  0.00  0.00    +0.000 OA
ATOM     25  H   UNL     1      -1.099   9.316  20.343  0.00  0.00    +0.000 HD
BRANCH  22  31
ATOM     26  C   UNL     1      -0.685  11.458  18.696  0.00  0.00    +0.000 A 
ATOM     27  C   UNL     1      -0.797  12.755  18.172  0.00  0.00    +0.000 A 
ATOM     28  C   UNL     1      -0.769  13.867  19.013  0.00  0.00    +0.000 A 
ATOM     29  C   UNL     1      -0.603  13.697  20.380  0.00  0.00    +0.000 A 
ATOM     30  C   UNL     1      -0.466  12.414  20.908  0.00  0.00    +0.000 A 
ATOM     31  C   UNL     1      -0.513  11.278  20.087  0.00  0.00    +0.000 A 
BRANCH  26  33
ATOM     32  C   UNL     1      -1.918  10.189  17.118  0.00  0.00    +0.000 C 
ATOM     33  O   UNL     1      -0.738  10.322  17.916  0.00  0.00    +0.000 OA
ENDBRANCH  26  33
ENDBRANCH  22  31
ENDBRANCH  21  23
ENDBRANCH   1  21
TORSDOF 7
ENDMDL
