MODEL 1
REMARK VINA RESULT:      -6.8      0.000      0.000
REMARK  Name = 
REMARK  6 active torsions:
REMARK  status: ('A' for Active; 'I' for Inactive)
REMARK    1  A    between atoms: C_1  and  C_2
REMARK    2  A    between atoms: C_2  and  C_3
REMARK    3  A    between atoms: C_2  and  C_4
REMARK    4  A    between atoms: C_4  and  N_5
REMARK    5  A    between atoms: N_12  and  S_13
REMARK    6  A    between atoms: S_13  and  C_14
REMARK                            x       y       z     vdW  Elec       q    Type
REMARK                         _______ _______ _______ _____ _____    ______ ____
ROOT
ATOM      1  N   UNL     1       5.714   3.934  14.415  0.00  0.00    +0.000 N 
ATOM      2  C   UNL     1       6.108   4.726  15.474  0.00  0.00    +0.000 C 
ATOM      3  O   UNL     1       7.114   5.426  15.413  0.00  0.00    +0.000 OA
ATOM      4  N   UNL     1       5.275   4.678  16.595  0.00  0.00    +0.000 N 
ATOM      5  C   UNL     1       4.107   3.796  16.718  0.00  0.00    +0.000 C 
ATOM      6  C   UNL     1       4.092   2.855  17.921  0.00  0.00    +0.000 C 
ATOM      7  C   UNL     1       4.295   3.417  19.316  0.00  0.00    +0.000 C 
ATOM      8  N   UNL     1       4.093   4.864  19.427  0.00  0.00    +0.000 NA
ATOM      9  C   UNL     1       5.244   5.670  18.964  0.00  0.00    +0.000 C 
ATOM     10  C   UNL     1       5.293   5.882  17.450  0.00  0.00    +0.000 C 
ATOM     11  H   UNL     1       4.715   3.866  14.291  0.00  0.00    +0.000 HD
ENDROOT
BRANCH   8  12
ATOM     12  S   UNL     1       2.551   5.539  19.466  0.00  0.00    +0.000 S 
ATOM     13  C   UNL     1       1.777   4.644  20.802  0.00  0.00    +0.000 C 
ATOM     14  O   UNL     1       2.670   6.920  19.870  0.00  0.00    +0.000 OA
ATOM     15  O   UNL     1       1.863   5.167  18.247  0.00  0.00    +0.000 OA
ENDBRANCH   8  12
BRANCH   1  16
ATOM     16  C   UNL     1       6.468   3.891  13.174  0.00  0.00    +0.000 C 
BRANCH  16  18
ATOM     17  C   UNL     1       4.708   3.237  11.480  0.00  0.00    +0.000 C 
ATOM     18  C   UNL     1       5.973   2.795  12.223  0.00  0.00    +0.000 C 
ATOM     19  C   UNL     1       7.068   2.439  11.217  0.00  0.00    +0.000 C 
ENDBRANCH  16  18
ENDBRANCH   1  16
TORSDOF 3
ENDMDL
MODEL 2
REMARK VINA RESULT:      -6.6      1.710      2.024
REMARK  Name = 
REMARK  6 active torsions:
REMARK  status: ('A' for Active; 'I' for Inactive)
REMARK    1  A    between atoms: C_1  and  C_2
REMARK    2  A    between atoms: C_2  and  C_3
REMARK    3  A    between atoms: C_2  and  C_4
REMARK    4  A    between atoms: C_4  and  N_5
REMARK    5  A    between atoms: N_12  and  S_13
REMARK    6  A    between atoms: S_13  and  C_14
REMARK                            x       y       z     vdW  Elec       q    Type
REMARK                         _______ _______ _______ _____ _____    ______ ____
ROOT
ATOM      1  N   UNL     1       5.287   4.576  15.376  0.00  0.00    +0.000 N 
ATOM      2  C   UNL     1       5.707   4.200  16.635  0.00  0.00    +0.000 C 
ATOM      3  O   UNL     1       6.892   4.237  16.954  0.00  0.00    +0.000 OA
ATOM      4  N   UNL     1       4.692   3.796  17.506  0.00  0.00    +0.000 N 
ATOM      5  C   UNL     1       3.278   3.676  17.126  0.00  0.00    +0.000 C 
ATOM      6  C   UNL     1       2.629   2.312  17.351  0.00  0.00    +0.000 C 
ATOM      7  C   UNL     1       2.715   1.657  18.717  0.00  0.00    +0.000 C 
ATOM      8  N   UNL     1       3.070   2.567  19.811  0.00  0.00    +0.000 NA
ATOM      9  C   UNL     1       4.515   2.869  19.895  0.00  0.00    +0.000 C 
ATOM     10  C   UNL     1       4.983   3.973  18.943  0.00  0.00    +0.000 C 
ATOM     11  H   UNL     1       4.395   5.048  15.355  0.00  0.00    +0.000 HD
ENDROOT
BRANCH   8  12
ATOM     12  S   UNL     1       1.945   3.627  20.477  0.00  0.00    +0.000 S 
ATOM     13  C   UNL     1       1.415   2.751  21.939  0.00  0.00    +0.000 C 
ATOM     14  O   UNL     1       2.641   4.818  20.903  0.00  0.00    +0.000 OA
ATOM     15  O   UNL     1       0.806   3.698  19.586  0.00  0.00    +0.000 OA
ENDBRANCH   8  12
BRANCH   1  16
ATOM     16  C   UNL     1       6.224   5.036  14.366  0.00  0.00    +0.000 C 
BRANCH  16  18
ATOM     17  C   UNL     1       5.195   3.512  12.629  0.00  0.00    +0.000 C 
ATOM     18  C   UNL     1       6.496   3.977  13.290  0.00  0.00    +0.000 C 
ATOM     19  C   UNL     1       7.446   4.537  12.231  0.00  0.00    +0.000 C 
ENDBRANCH  16  18
ENDBRANCH   1  16
TORSDOF 3
ENDMDL
MODEL 3
REMARK VINA RESULT:      -6.6      4.238      7.720
REMARK  Name = 
REMARK  6 active torsions:
REMARK  status: ('A' for Active; 'I' for Inactive)
REMARK    1  A    between atoms: C_1  and  C_2
REMARK    2  A    between atoms: C_2  and  C_3
REMARK    3  A    between atoms: C_2  and  C_4
REMARK    4  A    between atoms: C_4  and  N_5
REMARK    5  A    between atoms: N_12  and  S_13
REMARK    6  A    between atoms: S_13  and  C_14
REMARK                            x       y       z     vdW  Elec       q    Type
REMARK                         _______ _______ _______ _____ _____    ______ ____
ROOT
ATOM      1  N   UNL     1       1.489   7.993  21.357  0.00  0.00    +0.000 N 
ATOM      2  C   UNL     1       1.923   7.660  20.091  0.00  0.00    +0.000 C 
ATOM      3  O   UNL     1       2.085   8.511  19.222  0.00  0.00    +0.000 OA
ATOM      4  N   UNL     1       2.174   6.300  19.886  0.00  0.00    +0.000 N 
ATOM      5  C   UNL     1       1.921   5.255  20.886  0.00  0.00    +0.000 C 
ATOM      6  C   UNL     1       1.000   4.115  20.457  0.00  0.00    +0.000 C 
ATOM      7  C   UNL     1       1.293   3.356  19.177  0.00  0.00    +0.000 C 
ATOM      8  N   UNL     1       2.658   3.520  18.666  0.00  0.00    +0.000 NA
ATOM      9  C   UNL     1       2.878   4.786  17.934  0.00  0.00    +0.000 C 
ATOM     10  C   UNL     1       3.163   5.990  18.834  0.00  0.00    +0.000 C 
ATOM     11  H   UNL     1       1.898   7.444  22.099  0.00  0.00    +0.000 HD
ENDROOT
BRANCH   8  12
ATOM     12  S   UNL     1       3.960   2.704  19.354  0.00  0.00    +0.000 S 
ATOM     13  C   UNL     1       3.990   1.182  18.424  0.00  0.00    +0.000 C 
ATOM     14  O   UNL     1       5.166   3.435  19.045  0.00  0.00    +0.000 OA
ATOM     15  O   UNL     1       3.613   2.365  20.718  0.00  0.00    +0.000 OA
ENDBRANCH   8  12
BRANCH   1  16
ATOM     16  C   UNL     1       1.203   9.369  21.727  0.00  0.00    +0.000 C 
BRANCH  16  18
ATOM     17  C   UNL     1      -0.736  10.378  22.999  0.00  0.00    +0.000 C 
ATOM     18  C   UNL     1      -0.298   9.684  21.705  0.00  0.00    +0.000 C 
ATOM     19  C   UNL     1      -0.632  10.567  20.503  0.00  0.00    +0.000 C 
ENDBRANCH  16  18
ENDBRANCH   1  16
TORSDOF 3
ENDMDL
MODEL 4
REMARK VINA RESULT:      -6.6      1.123      1.123
REMARK  Name = 
REMARK  6 active torsions:
REMARK  status: ('A' for Active; 'I' for Inactive)
REMARK    1  A    between atoms: C_1  and  C_2
REMARK    2  A    between atoms: C_2  and  C_3
REMARK    3  A    between atoms: C_2  and  C_4
REMARK    4  A    between atoms: C_4  and  N_5
REMARK    5  A    between atoms: N_12  and  S_13
REMARK    6  A    between atoms: S_13  and  C_14
REMARK                            x       y       z     vdW  Elec       q    Type
REMARK                         _______ _______ _______ _____ _____    ______ ____
ROOT
ATOM      1  N   UNL     1       5.541   4.082  15.041  0.00  0.00    +0.000 N 
ATOM      2  C   UNL     1       5.582   4.925  16.132  0.00  0.00    +0.000 C 
ATOM      3  O   UNL     1       6.300   5.921  16.149  0.00  0.00    +0.000 OA
ATOM      4  N   UNL     1       4.743   4.569  17.192  0.00  0.00    +0.000 N 
ATOM      5  C   UNL     1       3.929   3.347  17.225  0.00  0.00    +0.000 C 
ATOM      6  C   UNL     1       4.151   2.417  18.416  0.00  0.00    +0.000 C 
ATOM      7  C   UNL     1       4.068   2.970  19.826  0.00  0.00    +0.000 C 
ATOM      8  N   UNL     1       3.389   4.265  19.936  0.00  0.00    +0.000 NA
ATOM      9  C   UNL     1       4.234   5.420  19.562  0.00  0.00    +0.000 C 
ATOM     10  C   UNL     1       4.306   5.684  18.056  0.00  0.00    +0.000 C 
ATOM     11  H   UNL     1       4.631   3.691  14.847  0.00  0.00    +0.000 HD
ENDROOT
BRANCH   8  12
ATOM     12  S   UNL     1       1.712   4.390  19.872  0.00  0.00    +0.000 S 
ATOM     13  C   UNL     1       1.187   2.940  20.771  0.00  0.00    +0.000 C 
ATOM     14  O   UNL     1       1.314   5.551  20.634  0.00  0.00    +0.000 OA
ATOM     15  O   UNL     1       1.296   4.214  18.496  0.00  0.00    +0.000 OA
ENDBRANCH   8  12
BRANCH   1  16
ATOM     16  C   UNL     1       6.344   4.331  13.856  0.00  0.00    +0.000 C 
BRANCH  16  18
ATOM     17  C   UNL     1       4.654   3.525  12.156  0.00  0.00    +0.000 C 
ATOM     18  C   UNL     1       6.059   3.326  12.732  0.00  0.00    +0.000 C 
ATOM     19  C   UNL     1       7.100   3.471  11.623  0.00  0.00    +0.000 C 
ENDBRANCH  16  18
ENDBRANCH   1  16
TORSDOF 3
ENDMDL
MODEL 5
REMARK VINA RESULT:      -6.5      0.926      1.128
REMARK  Name = 
REMARK  6 active torsions:
REMARK  status: ('A' for Active; 'I' for Inactive)
REMARK    1  A    between atoms: C_1  and  C_2
REMARK    2  A    between atoms: C_2  and  C_3
REMARK    3  A    between atoms: C_2  and  C_4
REMARK    4  A    between atoms: C_4  and  N_5
REMARK    5  A    between atoms: N_12  and  S_13
REMARK    6  A    between atoms: S_13  and  C_14
REMARK                            x       y       z     vdW  Elec       q    Type
REMARK                         _______ _______ _______ _____ _____    ______ ____
ROOT
ATOM      1  N   UNL     1       5.530   3.987  14.563  0.00  0.00    +0.000 N 
ATOM      2  C   UNL     1       5.830   4.817  15.623  0.00  0.00    +0.000 C 
ATOM      3  O   UNL     1       6.746   5.631  15.563  0.00  0.00    +0.000 OA
ATOM      4  N   UNL     1       5.010   4.669  16.746  0.00  0.00    +0.000 N 
ATOM      5  C   UNL     1       3.955   3.655  16.870  0.00  0.00    +0.000 C 
ATOM      6  C   UNL     1       4.053   2.716  18.070  0.00  0.00    +0.000 C 
ATOM      7  C   UNL     1       4.192   3.295  19.466  0.00  0.00    +0.000 C 
ATOM      8  N   UNL     1       3.821   4.709  19.581  0.00  0.00    +0.000 NA
ATOM      9  C   UNL     1       4.868   5.645  19.118  0.00  0.00    +0.000 C 
ATOM     10  C   UNL     1       4.889   5.865  17.603  0.00  0.00    +0.000 C 
ATOM     11  H   UNL     1       4.545   3.802  14.442  0.00  0.00    +0.000 HD
ENDROOT
BRANCH   8  12
ATOM     12  S   UNL     1       2.210   5.197  19.624  0.00  0.00    +0.000 S 
ATOM     13  C   UNL     1       2.353   6.970  19.774  0.00  0.00    +0.000 C 
ATOM     14  O   UNL     1       1.615   4.909  18.340  0.00  0.00    +0.000 OA
ATOM     15  O   UNL     1       1.621   4.710  20.854  0.00  0.00    +0.000 OA
ENDBRANCH   8  12
BRANCH   1  16
ATOM     16  C   UNL     1       6.281   4.035  13.321  0.00  0.00    +0.000 C 
BRANCH  16  18
ATOM     17  C   UNL     1       4.610   3.326  11.560  0.00  0.00    +0.000 C 
ATOM     18  C   UNL     1       5.868   2.931  12.340  0.00  0.00    +0.000 C 
ATOM     19  C   UNL     1       7.011   2.638  11.368  0.00  0.00    +0.000 C 
ENDBRANCH  16  18
ENDBRANCH   1  16
TORSDOF 3
ENDMDL
MODEL 6
REMARK VINA RESULT:      -6.5      2.616      6.994
REMARK  Name = 
REMARK  6 active torsions:
REMARK  status: ('A' for Active; 'I' for Inactive)
REMARK    1  A    between atoms: C_1  and  C_2
REMARK    2  A    between atoms: C_2  and  C_3
REMARK    3  A    between atoms: C_2  and  C_4
REMARK    4  A    between atoms: C_4  and  N_5
REMARK    5  A    between atoms: N_12  and  S_13
REMARK    6  A    between atoms: S_13  and  C_14
REMARK                            x       y       z     vdW  Elec       q    Type
REMARK                         _______ _______ _______ _____ _____    ______ ____
ROOT
ATOM      1  N   UNL     1       2.694   6.672  19.833  0.00  0.00    +0.000 N 
ATOM      2  C   UNL     1       2.778   5.480  19.144  0.00  0.00    +0.000 C 
ATOM      3  O   UNL     1       1.918   4.611  19.254  0.00  0.00    +0.000 OA
ATOM      4  N   UNL     1       3.895   5.349  18.314  0.00  0.00    +0.000 N 
ATOM      5  C   UNL     1       4.973   6.342  18.219  0.00  0.00    +0.000 C 
ATOM      6  C   UNL     1       6.386   5.838  18.505  0.00  0.00    +0.000 C 
ATOM      7  C   UNL     1       6.915   4.627  17.760  0.00  0.00    +0.000 C 
ATOM      8  N   UNL     1       6.172   4.284  16.543  0.00  0.00    +0.000 NA
ATOM      9  C   UNL     1       4.915   3.546  16.795  0.00  0.00    +0.000 C 
ATOM     10  C   UNL     1       3.727   4.437  17.165  0.00  0.00    +0.000 C 
ATOM     11  H   UNL     1       3.034   7.474  19.325  0.00  0.00    +0.000 HD
ENDROOT
BRANCH   8  12
ATOM     12  S   UNL     1       6.370   5.152  15.114  0.00  0.00    +0.000 S 
ATOM     13  C   UNL     1       6.021   3.921  13.870  0.00  0.00    +0.000 C 
ATOM     14  O   UNL     1       5.334   6.155  15.046  0.00  0.00    +0.000 OA
ATOM     15  O   UNL     1       7.769   5.503  14.987  0.00  0.00    +0.000 OA
ENDBRANCH   8  12
BRANCH   1  16
ATOM     16  C   UNL     1       1.582   6.961  20.722  0.00  0.00    +0.000 C 
BRANCH  16  18
ATOM     17  C   UNL     1       1.245   9.097  19.411  0.00  0.00    +0.000 C 
ATOM     18  C   UNL     1       1.269   8.460  20.804  0.00  0.00    +0.000 C 
ATOM     19  C   UNL     1      -0.075   8.679  21.498  0.00  0.00    +0.000 C 
ENDBRANCH  16  18
ENDBRANCH   1  16
TORSDOF 3
ENDMDL
MODEL 7
REMARK VINA RESULT:      -6.4      1.968      2.563
REMARK  Name = 
REMARK  6 active torsions:
REMARK  status: ('A' for Active; 'I' for Inactive)
REMARK    1  A    between atoms: C_1  and  C_2
REMARK    2  A    between atoms: C_2  and  C_3
REMARK    3  A    between atoms: C_2  and  C_4
REMARK    4  A    between atoms: C_4  and  N_5
REMARK    5  A    between atoms: N_12  and  S_13
REMARK    6  A    between atoms: S_13  and  C_14
REMARK                            x       y       z     vdW  Elec       q    Type
REMARK                         _______ _______ _______ _____ _____    ______ ____
ROOT
ATOM      1  N   UNL     1       5.295   4.952  15.807  0.00  0.00    +0.000 N 
ATOM      2  C   UNL     1       5.689   4.372  16.995  0.00  0.00    +0.000 C 
ATOM      3  O   UNL     1       6.873   4.291  17.309  0.00  0.00    +0.000 OA
ATOM      4  N   UNL     1       4.650   3.904  17.803  0.00  0.00    +0.000 N 
ATOM      5  C   UNL     1       3.233   3.924  17.419  0.00  0.00    +0.000 C 
ATOM      6  C   UNL     1       2.503   2.583  17.445  0.00  0.00    +0.000 C 
ATOM      7  C   UNL     1       2.547   1.731  18.700  0.00  0.00    +0.000 C 
ATOM      8  N   UNL     1       2.952   2.448  19.913  0.00  0.00    +0.000 NA
ATOM      9  C   UNL     1       4.413   2.649  20.032  0.00  0.00    +0.000 C 
ATOM     10  C   UNL     1       4.947   3.851  19.249  0.00  0.00    +0.000 C 
ATOM     11  H   UNL     1       4.433   5.473  15.861  0.00  0.00    +0.000 HD
ENDROOT
BRANCH   8  12
ATOM     12  S   UNL     1       1.890   3.463  20.734  0.00  0.00    +0.000 S 
ATOM     13  C   UNL     1       2.608   5.072  20.455  0.00  0.00    +0.000 C 
ATOM     14  O   UNL     1       0.614   3.425  20.058  0.00  0.00    +0.000 OA
ATOM     15  O   UNL     1       2.000   3.185  22.151  0.00  0.00    +0.000 OA
ENDBRANCH   8  12
BRANCH   1  16
ATOM     16  C   UNL     1       6.260   5.500  14.869  0.00  0.00    +0.000 C 
BRANCH  16  18
ATOM     17  C   UNL     1       5.652   3.697  13.203  0.00  0.00    +0.000 C 
ATOM     18  C   UNL     1       6.797   4.444  13.894  0.00  0.00    +0.000 C 
ATOM     19  C   UNL     1       7.692   5.105  12.846  0.00  0.00    +0.000 C 
ENDBRANCH  16  18
ENDBRANCH   1  16
TORSDOF 3
ENDMDL
MODEL 8
REMARK VINA RESULT:      -6.3      4.161      7.711
REMARK  Name = 
REMARK  6 active torsions:
REMARK  status: ('A' for Active; 'I' for Inactive)
REMARK    1  A    between atoms: C_1  and  C_2
REMARK    2  A    between atoms: C_2  and  C_3
REMARK    3  A    between atoms: C_2  and  C_4
REMARK    4  A    between atoms: C_4  and  N_5
REMARK    5  A    between atoms: N_12  and  S_13
REMARK    6  A    between atoms: S_13  and  C_14
REMARK                            x       y       z     vdW  Elec       q    Type
REMARK                         _______ _______ _______ _____ _____    ______ ____
ROOT
ATOM      1  N   UNL     1       1.565   7.790  21.397  0.00  0.00    +0.000 N 
ATOM      2  C   UNL     1       1.859   7.487  20.084  0.00  0.00    +0.000 C 
ATOM      3  O   UNL     1       1.936   8.360  19.224  0.00  0.00    +0.000 OA
ATOM      4  N   UNL     1       2.073   6.132  19.819  0.00  0.00    +0.000 N 
ATOM      5  C   UNL     1       1.917   5.062  20.813  0.00  0.00    +0.000 C 
ATOM      6  C   UNL     1       0.944   3.941  20.457  0.00  0.00    +0.000 C 
ATOM      7  C   UNL     1       1.090   3.214  19.133  0.00  0.00    +0.000 C 
ATOM      8  N   UNL     1       2.394   3.381  18.484  0.00  0.00    +0.000 NA
ATOM      9  C   UNL     1       2.548   4.664  17.765  0.00  0.00    +0.000 C 
ATOM     10  C   UNL     1       2.940   5.842  18.659  0.00  0.00    +0.000 C 
ATOM     11  H   UNL     1       2.045   7.219  22.076  0.00  0.00    +0.000 HD
ENDROOT
BRANCH   8  12
ATOM     12  S   UNL     1       3.754   2.538  19.008  0.00  0.00    +0.000 S 
ATOM     13  C   UNL     1       5.089   3.589  18.460  0.00  0.00    +0.000 C 
ATOM     14  O   UNL     1       3.758   2.536  20.452  0.00  0.00    +0.000 OA
ATOM     15  O   UNL     1       3.843   1.305  18.252  0.00  0.00    +0.000 OA
ENDBRANCH   8  12
BRANCH   1  16
ATOM     16  C   UNL     1       1.335   9.158  21.830  0.00  0.00    +0.000 C 
BRANCH  16  18
ATOM     17  C   UNL     1      -0.621  10.041  23.167  0.00  0.00    +0.000 C 
ATOM     18  C   UNL     1      -0.150   9.542  21.798  0.00  0.00    +0.000 C 
ATOM     19  C   UNL     1      -0.391  10.620  20.741  0.00  0.00    +0.000 C 
ENDBRANCH  16  18
ENDBRANCH   1  16
TORSDOF 3
ENDMDL
MODEL 9
REMARK VINA RESULT:      -6.1      3.864      7.323
REMARK  Name = 
REMARK  6 active torsions:
REMARK  status: ('A' for Active; 'I' for Inactive)
REMARK    1  A    between atoms: C_1  and  C_2
REMARK    2  A    between atoms: C_2  and  C_3
REMARK    3  A    between atoms: C_2  and  C_4
REMARK    4  A    between atoms: C_4  and  N_5
REMARK    5  A    between atoms: N_12  and  S_13
REMARK    6  A    between atoms: S_13  and  C_14
REMARK                            x       y       z     vdW  Elec       q    Type
REMARK                         _______ _______ _______ _____ _____    ______ ____
ROOT
ATOM      1  N   UNL     1       1.201   8.853  19.351  0.00  0.00    +0.000 N 
ATOM      2  C   UNL     1       2.043   8.615  18.285  0.00  0.00    +0.000 C 
ATOM      3  O   UNL     1       2.171   9.427  17.373  0.00  0.00    +0.000 OA
ATOM      4  N   UNL     1       2.738   7.403  18.334  0.00  0.00    +0.000 N 
ATOM      5  C   UNL     1       2.549   6.386  19.376  0.00  0.00    +0.000 C 
ATOM      6  C   UNL     1       2.168   4.987  18.897  0.00  0.00    +0.000 C 
ATOM      7  C   UNL     1       3.012   4.300  17.840  0.00  0.00    +0.000 C 
ATOM      8  N   UNL     1       4.349   4.874  17.657  0.00  0.00    +0.000 NA
ATOM      9  C   UNL     1       4.368   6.103  16.834  0.00  0.00    +0.000 C 
ATOM     10  C   UNL     1       4.022   7.379  17.604  0.00  0.00    +0.000 C 
ATOM     11  H   UNL     1       1.538   8.507  20.237  0.00  0.00    +0.000 HD
ENDROOT
BRANCH   8  12
ATOM     12  S   UNL     1       5.598   4.565  18.743  0.00  0.00    +0.000 S 
ATOM     13  C   UNL     1       7.025   4.497  17.674  0.00  0.00    +0.000 C 
ATOM     14  O   UNL     1       5.744   5.715  19.604  0.00  0.00    +0.000 OA
ATOM     15  O   UNL     1       5.407   3.236  19.287  0.00  0.00    +0.000 OA
ENDBRANCH   8  12
BRANCH   1  16
ATOM     16  C   UNL     1       0.425  10.078  19.450  0.00  0.00    +0.000 C 
BRANCH  16  18
ATOM     17  C   UNL     1      -0.200   8.892  21.595  0.00  0.00    +0.000 C 
ATOM     18  C   UNL     1      -0.396  10.150  20.744  0.00  0.00    +0.000 C 
ATOM     19  C   UNL     1       0.002  11.388  21.548  0.00  0.00    +0.000 C 
ENDBRANCH  16  18
ENDBRANCH   1  16
TORSDOF 3
ENDMDL
