MODEL 1
REMARK VINA RESULT:      -6.8      0.000      0.000
REMARK  Name = 
REMARK  12 active torsions:
REMARK  status: ('A' for Active; 'I' for Inactive)
REMARK    1  A    between atoms: C_1  and  C_2
REMARK    2  A    between atoms: C_6  and  C_7
REMARK    3  A    between atoms: C_8  and  C_9
REMARK    4  A    between atoms: C_9  and  N_10
REMARK    5  A    between atoms: N_10  and  C_11
REMARK    6  A    between atoms: C_11  and  C_12
REMARK    7  A    between atoms: C_12  and  C_13
REMARK    8  A    between atoms: C_12  and  C_14
REMARK    9  A    between atoms: C_15  and  C_17
REMARK   10  A    between atoms: C_19  and  C_20
REMARK   11  A    between atoms: C_20  and  O_22
REMARK   12  A    between atoms: N_24  and  C_25
REMARK                            x       y       z     vdW  Elec       q    Type
REMARK                         _______ _______ _______ _____ _____    ______ ____
ROOT
ATOM      1  N   UNL     1       4.584   5.425  18.735  0.00  0.00    +0.000 N 
ATOM      2  C   UNL     1       5.900   4.959  18.463  0.00  0.00    +0.000 C 
ATOM      3  O   UNL     1       6.568   4.411  19.330  0.00  0.00    +0.000 OA
ENDROOT
BRANCH   2   4
ATOM      4  C   UNL     1       6.439   5.158  17.119  0.00  0.00    +0.000 A 
ATOM      5  C   UNL     1       6.377   4.327  16.011  0.00  0.00    +0.000 A 
ATOM      6  C   UNL     1       6.996   5.014  14.953  0.00  0.00    +0.000 A 
ATOM      7  N   UNL     1       7.511   6.184  15.371  0.00  0.00    +0.000 NA
ATOM      8  N   UNL     1       7.243   6.199  16.705  0.00  0.00    +0.000 N 
ATOM      9  C   UNL     1       7.794   7.291  17.479  0.00  0.00    +0.000 C 
BRANCH   6  10
ATOM     10  C   UNL     1       7.109   4.601  13.553  0.00  0.00    +0.000 C 
ATOM     11  O   UNL     1       6.519   3.647  13.066  0.00  0.00    +0.000 OA
BRANCH  10  12
ATOM     12  O   UNL     1       7.940   5.408  12.841  0.00  0.00    +0.000 OA
ATOM     13  H   UNL     1       7.697   6.333  13.086  0.00  0.00    +0.000 HD
ENDBRANCH  10  12
ENDBRANCH   6  10
ENDBRANCH   2   4
BRANCH   1  14
ATOM     14  C   UNL     1       4.009   5.033  20.025  0.00  0.00    +0.000 C 
BRANCH  14  22
ATOM     15  C   UNL     1       4.354   2.003  19.354  0.00  0.00    +0.000 C 
ATOM     16  C   UNL     1       3.029   2.670  19.588  0.00  0.00    +0.000 A 
ATOM     17  C   UNL     1       1.883   1.922  19.248  0.00  0.00    +0.000 A 
ATOM     18  C   UNL     1       0.604   2.437  19.423  0.00  0.00    +0.000 A 
ATOM     19  C   UNL     1       0.448   3.680  20.013  0.00  0.00    +0.000 A 
ATOM     20  C   UNL     1       1.566   4.451  20.375  0.00  0.00    +0.000 A 
ATOM     21  C   UNL     1       1.303   5.775  21.045  0.00  0.00    +0.000 C 
ATOM     22  C   UNL     1       2.887   3.991  20.082  0.00  0.00    +0.000 A 
ENDBRANCH  14  22
ENDBRANCH   1  14
BRANCH   1  23
ATOM     23  C   UNL     1       4.014   6.566  17.978  0.00  0.00    +0.000 C 
BRANCH  23  24
ATOM     24  C   UNL     1       2.576   7.077  18.238  0.00  0.00    +0.000 C 
ATOM     25  C   UNL     1       2.352   8.527  17.798  0.00  0.00    +0.000 C 
ATOM     26  C   UNL     1       1.578   6.191  17.473  0.00  0.00    +0.000 C 
ENDBRANCH  23  24
ENDBRANCH   1  23
TORSDOF 7
ENDMDL
MODEL 2
REMARK VINA RESULT:      -6.7      0.816      1.114
REMARK  Name = 
REMARK  12 active torsions:
REMARK  status: ('A' for Active; 'I' for Inactive)
REMARK    1  A    between atoms: C_1  and  C_2
REMARK    2  A    between atoms: C_6  and  C_7
REMARK    3  A    between atoms: C_8  and  C_9
REMARK    4  A    between atoms: C_9  and  N_10
REMARK    5  A    between atoms: N_10  and  C_11
REMARK    6  A    between atoms: C_11  and  C_12
REMARK    7  A    between atoms: C_12  and  C_13
REMARK    8  A    between atoms: C_12  and  C_14
REMARK    9  A    between atoms: C_15  and  C_17
REMARK   10  A    between atoms: C_19  and  C_20
REMARK   11  A    between atoms: C_20  and  O_22
REMARK   12  A    between atoms: N_24  and  C_25
REMARK                            x       y       z     vdW  Elec       q    Type
REMARK                         _______ _______ _______ _____ _____    ______ ____
ROOT
ATOM      1  N   UNL     1       4.777   4.503  18.292  0.00  0.00    +0.000 N 
ATOM      2  C   UNL     1       6.170   4.482  18.004  0.00  0.00    +0.000 C 
ATOM      3  O   UNL     1       6.991   4.217  18.873  0.00  0.00    +0.000 OA
ENDROOT
BRANCH   2   4
ATOM      4  C   UNL     1       6.598   4.790  16.641  0.00  0.00    +0.000 A 
ATOM      5  C   UNL     1       6.609   3.982  15.514  0.00  0.00    +0.000 A 
ATOM      6  C   UNL     1       7.054   4.780  14.446  0.00  0.00    +0.000 A 
ATOM      7  N   UNL     1       7.400   6.009  14.872  0.00  0.00    +0.000 NA
ATOM      8  N   UNL     1       7.204   5.954  16.217  0.00  0.00    +0.000 N 
ATOM      9  C   UNL     1       7.616   7.105  16.993  0.00  0.00    +0.000 C 
BRANCH   6  10
ATOM     10  C   UNL     1       7.156   4.417  13.032  0.00  0.00    +0.000 C 
ATOM     11  O   UNL     1       7.802   5.043  12.204  0.00  0.00    +0.000 OA
BRANCH  10  12
ATOM     12  O   UNL     1       6.458   3.288  12.737  0.00  0.00    +0.000 OA
ATOM     13  H   UNL     1       5.506   3.551  12.728  0.00  0.00    +0.000 HD
ENDBRANCH  10  12
ENDBRANCH   6  10
ENDBRANCH   2   4
BRANCH   1  14
ATOM     14  C   UNL     1       4.378   3.998  19.609  0.00  0.00    +0.000 C 
BRANCH  14  22
ATOM     15  C   UNL     1       3.723   1.134  18.550  0.00  0.00    +0.000 C 
ATOM     16  C   UNL     1       2.704   2.073  19.128  0.00  0.00    +0.000 A 
ATOM     17  C   UNL     1       1.352   1.714  18.954  0.00  0.00    +0.000 A 
ATOM     18  C   UNL     1       0.323   2.505  19.448  0.00  0.00    +0.000 A 
ATOM     19  C   UNL     1       0.631   3.633  20.191  0.00  0.00    +0.000 A 
ATOM     20  C   UNL     1       1.967   4.018  20.394  0.00  0.00    +0.000 A 
ATOM     21  C   UNL     1       2.211   5.238  21.247  0.00  0.00    +0.000 C 
ATOM     22  C   UNL     1       3.031   3.287  19.783  0.00  0.00    +0.000 A 
ENDBRANCH  14  22
ENDBRANCH   1  14
BRANCH   1  23
ATOM     23  C   UNL     1       3.857   5.364  17.510  0.00  0.00    +0.000 C 
BRANCH  23  24
ATOM     24  C   UNL     1       3.638   6.854  17.867  0.00  0.00    +0.000 C 
ATOM     25  C   UNL     1       4.067   7.819  16.758  0.00  0.00    +0.000 C 
ATOM     26  C   UNL     1       2.144   7.093  18.150  0.00  0.00    +0.000 C 
ENDBRANCH  23  24
ENDBRANCH   1  23
TORSDOF 7
ENDMDL
MODEL 3
REMARK VINA RESULT:      -6.5      3.683      7.262
REMARK  Name = 
REMARK  12 active torsions:
REMARK  status: ('A' for Active; 'I' for Inactive)
REMARK    1  A    between atoms: C_1  and  C_2
REMARK    2  A    between atoms: C_6  and  C_7
REMARK    3  A    between atoms: C_8  and  C_9
REMARK    4  A    between atoms: C_9  and  N_10
REMARK    5  A    between atoms: N_10  and  C_11
REMARK    6  A    between atoms: C_11  and  C_12
REMARK    7  A    between atoms: C_12  and  C_13
REMARK    8  A    between atoms: C_12  and  C_14
REMARK    9  A    between atoms: C_15  and  C_17
REMARK   10  A    between atoms: C_19  and  C_20
REMARK   11  A    between atoms: C_20  and  O_22
REMARK   12  A    between atoms: N_24  and  C_25
REMARK                            x       y       z     vdW  Elec       q    Type
REMARK                         _______ _______ _______ _____ _____    ______ ____
ROOT
ATOM      1  N   UNL     1       2.592   6.092  18.693  0.00  0.00    +0.000 N 
ATOM      2  C   UNL     1       2.572   7.513  18.646  0.00  0.00    +0.000 C 
ATOM      3  O   UNL     1       3.258   8.129  17.840  0.00  0.00    +0.000 OA
ENDROOT
BRANCH   2   4
ATOM      4  C   UNL     1       1.713   8.224  19.591  0.00  0.00    +0.000 A 
ATOM      5  C   UNL     1       1.453   7.952  20.926  0.00  0.00    +0.000 A 
ATOM      6  C   UNL     1       0.610   8.974  21.393  0.00  0.00    +0.000 A 
ATOM      7  N   UNL     1       0.268   9.811  20.397  0.00  0.00    +0.000 NA
ATOM      8  N   UNL     1       0.872   9.277  19.301  0.00  0.00    +0.000 N 
ATOM      9  C   UNL     1       0.583   9.889  18.021  0.00  0.00    +0.000 C 
BRANCH   6  10
ATOM     10  C   UNL     1       0.124   9.189  22.756  0.00  0.00    +0.000 C 
ATOM     11  O   UNL     1       0.700   9.865  23.596  0.00  0.00    +0.000 OA
BRANCH  10  12
ATOM     12  O   UNL     1      -1.059   8.558  22.988  0.00  0.00    +0.000 OA
ATOM     13  H   UNL     1      -1.694   9.263  23.261  0.00  0.00    +0.000 HD
ENDBRANCH  10  12
ENDBRANCH   6  10
ENDBRANCH   2   4
BRANCH   1  14
ATOM     14  C   UNL     1       3.308   5.415  17.607  0.00  0.00    +0.000 C 
BRANCH  14  22
ATOM     15  C   UNL     1       4.878   3.559  19.567  0.00  0.00    +0.000 C 
ATOM     16  C   UNL     1       5.521   4.586  18.681  0.00  0.00    +0.000 A 
ATOM     17  C   UNL     1       6.877   4.874  18.937  0.00  0.00    +0.000 A 
ATOM     18  C   UNL     1       7.576   5.805  18.180  0.00  0.00    +0.000 A 
ATOM     19  C   UNL     1       6.950   6.411  17.103  0.00  0.00    +0.000 A 
ATOM     20  C   UNL     1       5.602   6.143  16.810  0.00  0.00    +0.000 A 
ATOM     21  C   UNL     1       5.013   6.817  15.597  0.00  0.00    +0.000 C 
ATOM     22  C   UNL     1       4.834   5.287  17.658  0.00  0.00    +0.000 A 
ENDBRANCH  14  22
ENDBRANCH   1  14
BRANCH   1  23
ATOM     23  C   UNL     1       2.297   5.373  19.956  0.00  0.00    +0.000 C 
BRANCH  23  24
ATOM     24  C   UNL     1       1.220   4.262  20.027  0.00  0.00    +0.000 C 
ATOM     25  C   UNL     1       1.190   3.359  18.790  0.00  0.00    +0.000 C 
ATOM     26  C   UNL     1       1.490   3.374  21.255  0.00  0.00    +0.000 C 
ENDBRANCH  23  24
ENDBRANCH   1  23
TORSDOF 7
ENDMDL
MODEL 4
REMARK VINA RESULT:      -6.4      2.095      3.457
REMARK  Name = 
REMARK  12 active torsions:
REMARK  status: ('A' for Active; 'I' for Inactive)
REMARK    1  A    between atoms: C_1  and  C_2
REMARK    2  A    between atoms: C_6  and  C_7
REMARK    3  A    between atoms: C_8  and  C_9
REMARK    4  A    between atoms: C_9  and  N_10
REMARK    5  A    between atoms: N_10  and  C_11
REMARK    6  A    between atoms: C_11  and  C_12
REMARK    7  A    between atoms: C_12  and  C_13
REMARK    8  A    between atoms: C_12  and  C_14
REMARK    9  A    between atoms: C_15  and  C_17
REMARK   10  A    between atoms: C_19  and  C_20
REMARK   11  A    between atoms: C_20  and  O_22
REMARK   12  A    between atoms: N_24  and  C_25
REMARK                            x       y       z     vdW  Elec       q    Type
REMARK                         _______ _______ _______ _____ _____    ______ ____
ROOT
ATOM      1  N   UNL     1       4.432   4.249  17.649  0.00  0.00    +0.000 N 
ATOM      2  C   UNL     1       5.747   4.406  18.168  0.00  0.00    +0.000 C 
ATOM      3  O   UNL     1       6.234   3.571  18.919  0.00  0.00    +0.000 OA
ENDROOT
BRANCH   2   4
ATOM      4  C   UNL     1       6.503   5.597  17.785  0.00  0.00    +0.000 A 
ATOM      5  C   UNL     1       6.754   6.754  18.507  0.00  0.00    +0.000 A 
ATOM      6  C   UNL     1       7.583   7.560  17.708  0.00  0.00    +0.000 A 
ATOM      7  N   UNL     1       7.783   7.000  16.501  0.00  0.00    +0.000 NA
ATOM      8  N   UNL     1       7.041   5.861  16.543  0.00  0.00    +0.000 N 
ATOM      9  C   UNL     1       6.945   5.088  15.323  0.00  0.00    +0.000 C 
BRANCH   6  10
ATOM     10  C   UNL     1       8.198   8.842  18.054  0.00  0.00    +0.000 C 
ATOM     11  O   UNL     1       7.989   9.890  17.460  0.00  0.00    +0.000 OA
BRANCH  10  12
ATOM     12  O   UNL     1       9.026   8.745  19.128  0.00  0.00    +0.000 OA
ATOM     13  H   UNL     1       8.490   8.337  19.850  0.00  0.00    +0.000 HD
ENDBRANCH  10  12
ENDBRANCH   6  10
ENDBRANCH   2   4
BRANCH   1  14
ATOM     14  C   UNL     1       3.786   2.956  17.895  0.00  0.00    +0.000 C 
BRANCH  14  22
ATOM     15  C   UNL     1       0.728   3.576  17.751  0.00  0.00    +0.000 C 
ATOM     16  C   UNL     1       1.468   3.267  19.021  0.00  0.00    +0.000 A 
ATOM     17  C   UNL     1       0.774   3.509  20.224  0.00  0.00    +0.000 A 
ATOM     18  C   UNL     1       1.358   3.259  21.459  0.00  0.00    +0.000 A 
ATOM     19  C   UNL     1       2.620   2.691  21.512  0.00  0.00    +0.000 A 
ATOM     20  C   UNL     1       3.339   2.426  20.333  0.00  0.00    +0.000 A 
ATOM     21  C   UNL     1       4.689   1.771  20.482  0.00  0.00    +0.000 C 
ATOM     22  C   UNL     1       2.805   2.798  19.061  0.00  0.00    +0.000 A 
ENDBRANCH  14  22
ENDBRANCH   1  14
BRANCH   1  23
ATOM     23  C   UNL     1       3.619   5.433  17.279  0.00  0.00    +0.000 C 
BRANCH  23  24
ATOM     24  C   UNL     1       2.833   6.243  18.339  0.00  0.00    +0.000 C 
ATOM     25  C   UNL     1       3.412   6.125  19.752  0.00  0.00    +0.000 C 
ATOM     26  C   UNL     1       2.841   7.731  17.947  0.00  0.00    +0.000 C 
ENDBRANCH  23  24
ENDBRANCH   1  23
TORSDOF 7
ENDMDL
MODEL 5
REMARK VINA RESULT:      -6.4      0.406      1.016
REMARK  Name = 
REMARK  12 active torsions:
REMARK  status: ('A' for Active; 'I' for Inactive)
REMARK    1  A    between atoms: C_1  and  C_2
REMARK    2  A    between atoms: C_6  and  C_7
REMARK    3  A    between atoms: C_8  and  C_9
REMARK    4  A    between atoms: C_9  and  N_10
REMARK    5  A    between atoms: N_10  and  C_11
REMARK    6  A    between atoms: C_11  and  C_12
REMARK    7  A    between atoms: C_12  and  C_13
REMARK    8  A    between atoms: C_12  and  C_14
REMARK    9  A    between atoms: C_15  and  C_17
REMARK   10  A    between atoms: C_19  and  C_20
REMARK   11  A    between atoms: C_20  and  O_22
REMARK   12  A    between atoms: N_24  and  C_25
REMARK                            x       y       z     vdW  Elec       q    Type
REMARK                         _______ _______ _______ _____ _____    ______ ____
ROOT
ATOM      1  N   UNL     1       4.668   5.374  19.036  0.00  0.00    +0.000 N 
ATOM      2  C   UNL     1       5.897   4.763  18.665  0.00  0.00    +0.000 C 
ATOM      3  O   UNL     1       6.495   4.025  19.438  0.00  0.00    +0.000 OA
ENDROOT
BRANCH   2   4
ATOM      4  C   UNL     1       6.434   5.042  17.334  0.00  0.00    +0.000 A 
ATOM      5  C   UNL     1       6.370   4.278  16.178  0.00  0.00    +0.000 A 
ATOM      6  C   UNL     1       6.986   5.028  15.162  0.00  0.00    +0.000 A 
ATOM      7  N   UNL     1       7.501   6.172  15.649  0.00  0.00    +0.000 NA
ATOM      8  N   UNL     1       7.235   6.107  16.981  0.00  0.00    +0.000 N 
ATOM      9  C   UNL     1       7.786   7.151  17.818  0.00  0.00    +0.000 C 
BRANCH   6  10
ATOM     10  C   UNL     1       7.097   4.699  13.740  0.00  0.00    +0.000 C 
ATOM     11  O   UNL     1       7.726   5.359  12.926  0.00  0.00    +0.000 OA
BRANCH  10  12
ATOM     12  O   UNL     1       6.428   3.559  13.420  0.00  0.00    +0.000 OA
ATOM     13  H   UNL     1       6.925   3.152  12.671  0.00  0.00    +0.000 HD
ENDBRANCH  10  12
ENDBRANCH   6  10
ENDBRANCH   2   4
BRANCH   1  14
ATOM     14  C   UNL     1       4.067   4.917  20.292  0.00  0.00    +0.000 C 
BRANCH  14  22
ATOM     15  C   UNL     1       4.293   1.841  19.798  0.00  0.00    +0.000 C 
ATOM     16  C   UNL     1       2.995   2.594  19.853  0.00  0.00    +0.000 A 
ATOM     17  C   UNL     1       1.849   1.897  19.419  0.00  0.00    +0.000 A 
ATOM     18  C   UNL     1       0.593   2.492  19.427  0.00  0.00    +0.000 A 
ATOM     19  C   UNL     1       0.451   3.771  19.940  0.00  0.00    +0.000 A 
ATOM     20  C   UNL     1       1.569   4.493  20.391  0.00  0.00    +0.000 A 
ATOM     21  C   UNL     1       1.317   5.863  20.968  0.00  0.00    +0.000 C 
ATOM     22  C   UNL     1       2.883   3.945  20.268  0.00  0.00    +0.000 A 
ENDBRANCH  14  22
ENDBRANCH   1  14
BRANCH   1  23
ATOM     23  C   UNL     1       4.255   6.667  18.437  0.00  0.00    +0.000 C 
BRANCH  23  24
ATOM     24  C   UNL     1       3.047   6.768  17.475  0.00  0.00    +0.000 C 
ATOM     25  C   UNL     1       2.231   5.476  17.379  0.00  0.00    +0.000 C 
ATOM     26  C   UNL     1       2.107   7.887  17.958  0.00  0.00    +0.000 C 
ENDBRANCH  23  24
ENDBRANCH   1  23
TORSDOF 7
ENDMDL
MODEL 6
REMARK VINA RESULT:      -6.2      0.915      1.155
REMARK  Name = 
REMARK  12 active torsions:
REMARK  status: ('A' for Active; 'I' for Inactive)
REMARK    1  A    between atoms: C_1  and  C_2
REMARK    2  A    between atoms: C_6  and  C_7
REMARK    3  A    between atoms: C_8  and  C_9
REMARK    4  A    between atoms: C_9  and  N_10
REMARK    5  A    between atoms: N_10  and  C_11
REMARK    6  A    between atoms: C_11  and  C_12
REMARK    7  A    between atoms: C_12  and  C_13
REMARK    8  A    between atoms: C_12  and  C_14
REMARK    9  A    between atoms: C_15  and  C_17
REMARK   10  A    between atoms: C_19  and  C_20
REMARK   11  A    between atoms: C_20  and  O_22
REMARK   12  A    between atoms: N_24  and  C_25
REMARK                            x       y       z     vdW  Elec       q    Type
REMARK                         _______ _______ _______ _____ _____    ______ ____
ROOT
ATOM      1  N   UNL     1       4.516   5.228  18.536  0.00  0.00    +0.000 N 
ATOM      2  C   UNL     1       5.815   4.719  18.256  0.00  0.00    +0.000 C 
ATOM      3  O   UNL     1       6.407   4.018  19.066  0.00  0.00    +0.000 OA
ENDROOT
BRANCH   2   4
ATOM      4  C   UNL     1       6.429   5.060  16.974  0.00  0.00    +0.000 A 
ATOM      5  C   UNL     1       6.446   4.345  15.785  0.00  0.00    +0.000 A 
ATOM      6  C   UNL     1       7.114   5.144  14.841  0.00  0.00    +0.000 A 
ATOM      7  N   UNL     1       7.584   6.271  15.406  0.00  0.00    +0.000 NA
ATOM      8  N   UNL     1       7.237   6.146  16.716  0.00  0.00    +0.000 N 
ATOM      9  C   UNL     1       7.722   7.160  17.628  0.00  0.00    +0.000 C 
BRANCH   6  10
ATOM     10  C   UNL     1       7.317   4.876  13.417  0.00  0.00    +0.000 C 
ATOM     11  O   UNL     1       6.738   4.000  12.790  0.00  0.00    +0.000 OA
BRANCH  10  12
ATOM     12  O   UNL     1       8.219   5.724  12.854  0.00  0.00    +0.000 OA
ATOM     13  H   UNL     1       7.968   5.797  11.902  0.00  0.00    +0.000 HD
ENDBRANCH  10  12
ENDBRANCH   6  10
ENDBRANCH   2   4
BRANCH   1  14
ATOM     14  C   UNL     1       3.858   4.706  19.737  0.00  0.00    +0.000 C 
BRANCH  14  22
ATOM     15  C   UNL     1       3.209   3.124  17.124  0.00  0.00    +0.000 C 
ATOM     16  C   UNL     1       2.378   3.067  18.373  0.00  0.00    +0.000 A 
ATOM     17  C   UNL     1       1.117   2.448  18.258  0.00  0.00    +0.000 A 
ATOM     18  C   UNL     1       0.263   2.336  19.349  0.00  0.00    +0.000 A 
ATOM     19  C   UNL     1       0.689   2.773  20.592  0.00  0.00    +0.000 A 
ATOM     20  C   UNL     1       1.944   3.386  20.748  0.00  0.00    +0.000 A 
ATOM     21  C   UNL     1       2.341   3.798  22.143  0.00  0.00    +0.000 C 
ATOM     22  C   UNL     1       2.777   3.627  19.613  0.00  0.00    +0.000 A 
ENDBRANCH  14  22
ENDBRANCH   1  14
BRANCH   1  23
ATOM     23  C   UNL     1       4.052   6.494  17.919  0.00  0.00    +0.000 C 
BRANCH  23  24
ATOM     24  C   UNL     1       2.633   7.055  18.184  0.00  0.00    +0.000 C 
ATOM     25  C   UNL     1       2.305   7.213  19.672  0.00  0.00    +0.000 C 
ATOM     26  C   UNL     1       2.503   8.438  17.521  0.00  0.00    +0.000 C 
ENDBRANCH  23  24
ENDBRANCH   1  23
TORSDOF 7
ENDMDL
MODEL 7
REMARK VINA RESULT:      -6.1      1.708      2.606
REMARK  Name = 
REMARK  12 active torsions:
REMARK  status: ('A' for Active; 'I' for Inactive)
REMARK    1  A    between atoms: C_1  and  C_2
REMARK    2  A    between atoms: C_6  and  C_7
REMARK    3  A    between atoms: C_8  and  C_9
REMARK    4  A    between atoms: C_9  and  N_10
REMARK    5  A    between atoms: N_10  and  C_11
REMARK    6  A    between atoms: C_11  and  C_12
REMARK    7  A    between atoms: C_12  and  C_13
REMARK    8  A    between atoms: C_12  and  C_14
REMARK    9  A    between atoms: C_15  and  C_17
REMARK   10  A    between atoms: C_19  and  C_20
REMARK   11  A    between atoms: C_20  and  O_22
REMARK   12  A    between atoms: N_24  and  C_25
REMARK                            x       y       z     vdW  Elec       q    Type
REMARK                         _______ _______ _______ _____ _____    ______ ____
ROOT
ATOM      1  N   UNL     1       3.270   4.972  17.503  0.00  0.00    +0.000 N 
ATOM      2  C   UNL     1       3.920   3.931  16.784  0.00  0.00    +0.000 C 
ATOM      3  O   UNL     1       3.442   2.805  16.733  0.00  0.00    +0.000 OA
ENDROOT
BRANCH   2   4
ATOM      4  C   UNL     1       5.180   4.238  16.111  0.00  0.00    +0.000 A 
ATOM      5  C   UNL     1       5.474   4.267  14.756  0.00  0.00    +0.000 A 
ATOM      6  C   UNL     1       6.811   4.682  14.639  0.00  0.00    +0.000 A 
ATOM      7  N   UNL     1       7.381   4.825  15.849  0.00  0.00    +0.000 NA
ATOM      8  N   UNL     1       6.399   4.458  16.716  0.00  0.00    +0.000 N 
ATOM      9  C   UNL     1       6.750   4.381  18.118  0.00  0.00    +0.000 C 
BRANCH   6  10
ATOM     10  C   UNL     1       7.566   4.954  13.415  0.00  0.00    +0.000 C 
ATOM     11  O   UNL     1       7.322   4.452  12.327  0.00  0.00    +0.000 OA
BRANCH  10  12
ATOM     12  O   UNL     1       8.573   5.846  13.616  0.00  0.00    +0.000 OA
ATOM     13  H   UNL     1       9.163   5.774  12.827  0.00  0.00    +0.000 HD
ENDBRANCH  10  12
ENDBRANCH   6  10
ENDBRANCH   2   4
BRANCH   1  14
ATOM     14  C   UNL     1       1.920   4.680  17.994  0.00  0.00    +0.000 C 
BRANCH  14  22
ATOM     15  C   UNL     1       2.012   6.465  20.554  0.00  0.00    +0.000 C 
ATOM     16  C   UNL     1       1.955   4.965  20.574  0.00  0.00    +0.000 A 
ATOM     17  C   UNL     1       2.197   4.346  21.817  0.00  0.00    +0.000 A 
ATOM     18  C   UNL     1       2.168   2.963  21.955  0.00  0.00    +0.000 A 
ATOM     19  C   UNL     1       1.823   2.179  20.867  0.00  0.00    +0.000 A 
ATOM     20  C   UNL     1       1.565   2.761  19.614  0.00  0.00    +0.000 A 
ATOM     21  C   UNL     1       1.159   1.836  18.494  0.00  0.00    +0.000 C 
ATOM     22  C   UNL     1       1.718   4.169  19.425  0.00  0.00    +0.000 A 
ENDBRANCH  14  22
ENDBRANCH   1  14
BRANCH   1  23
ATOM     23  C   UNL     1       4.051   6.091  18.085  0.00  0.00    +0.000 C 
BRANCH  23  24
ATOM     24  C   UNL     1       4.082   7.491  17.424  0.00  0.00    +0.000 C 
ATOM     25  C   UNL     1       4.524   7.466  15.958  0.00  0.00    +0.000 C 
ATOM     26  C   UNL     1       2.675   8.110  17.484  0.00  0.00    +0.000 C 
ENDBRANCH  23  24
ENDBRANCH   1  23
TORSDOF 7
ENDMDL
MODEL 8
REMARK VINA RESULT:      -6.0      1.165      1.758
REMARK  Name = 
REMARK  12 active torsions:
REMARK  status: ('A' for Active; 'I' for Inactive)
REMARK    1  A    between atoms: C_1  and  C_2
REMARK    2  A    between atoms: C_6  and  C_7
REMARK    3  A    between atoms: C_8  and  C_9
REMARK    4  A    between atoms: C_9  and  N_10
REMARK    5  A    between atoms: N_10  and  C_11
REMARK    6  A    between atoms: C_11  and  C_12
REMARK    7  A    between atoms: C_12  and  C_13
REMARK    8  A    between atoms: C_12  and  C_14
REMARK    9  A    between atoms: C_15  and  C_17
REMARK   10  A    between atoms: C_19  and  C_20
REMARK   11  A    between atoms: C_20  and  O_22
REMARK   12  A    between atoms: N_24  and  C_25
REMARK                            x       y       z     vdW  Elec       q    Type
REMARK                         _______ _______ _______ _____ _____    ______ ____
ROOT
ATOM      1  N   UNL     1       3.836   5.761  18.703  0.00  0.00    +0.000 N 
ATOM      2  C   UNL     1       5.019   4.980  18.588  0.00  0.00    +0.000 C 
ATOM      3  O   UNL     1       5.349   4.200  19.472  0.00  0.00    +0.000 OA
ENDROOT
BRANCH   2   4
ATOM      4  C   UNL     1       5.836   5.136  17.386  0.00  0.00    +0.000 A 
ATOM      5  C   UNL     1       5.768   4.459  16.178  0.00  0.00    +0.000 A 
ATOM      6  C   UNL     1       6.735   5.034  15.336  0.00  0.00    +0.000 A 
ATOM      7  N   UNL     1       7.451   5.967  15.988  0.00  0.00    +0.000 NA
ATOM      8  N   UNL     1       6.948   5.939  17.251  0.00  0.00    +0.000 N 
ATOM      9  C   UNL     1       7.611   6.756  18.245  0.00  0.00    +0.000 C 
BRANCH   6  10
ATOM     10  C   UNL     1       6.998   4.731  13.928  0.00  0.00    +0.000 C 
ATOM     11  O   UNL     1       7.667   5.433  13.185  0.00  0.00    +0.000 OA
BRANCH  10  12
ATOM     12  O   UNL     1       6.421   3.564  13.534  0.00  0.00    +0.000 OA
ATOM     13  H   UNL     1       6.766   3.382  12.627  0.00  0.00    +0.000 HD
ENDBRANCH  10  12
ENDBRANCH   6  10
ENDBRANCH   2   4
BRANCH   1  14
ATOM     14  C   UNL     1       2.946   5.434  19.822  0.00  0.00    +0.000 C 
BRANCH  14  22
ATOM     15  C   UNL     1       2.363   3.484  22.190  0.00  0.00    +0.000 C 
ATOM     16  C   UNL     1       1.937   3.239  20.771  0.00  0.00    +0.000 A 
ATOM     17  C   UNL     1       1.461   1.946  20.476  0.00  0.00    +0.000 A 
ATOM     18  C   UNL     1       1.038   1.605  19.197  0.00  0.00    +0.000 A 
ATOM     19  C   UNL     1       1.013   2.575  18.209  0.00  0.00    +0.000 A 
ATOM     20  C   UNL     1       1.471   3.878  18.468  0.00  0.00    +0.000 A 
ATOM     21  C   UNL     1       1.373   4.879  17.346  0.00  0.00    +0.000 C 
ATOM     22  C   UNL     1       2.030   4.208  19.741  0.00  0.00    +0.000 A 
ENDBRANCH  14  22
ENDBRANCH   1  14
BRANCH   1  23
ATOM     23  C   UNL     1       3.727   7.073  18.021  0.00  0.00    +0.000 C 
BRANCH  23  24
ATOM     24  C   UNL     1       2.429   7.914  18.078  0.00  0.00    +0.000 C 
ATOM     25  C   UNL     1       1.895   8.121  19.498  0.00  0.00    +0.000 C 
ATOM     26  C   UNL     1       2.696   9.301  17.466  0.00  0.00    +0.000 C 
ENDBRANCH  23  24
ENDBRANCH   1  23
TORSDOF 7
ENDMDL
MODEL 9
REMARK VINA RESULT:      -6.0      5.054      7.275
REMARK  Name = 
REMARK  12 active torsions:
REMARK  status: ('A' for Active; 'I' for Inactive)
REMARK    1  A    between atoms: C_1  and  C_2
REMARK    2  A    between atoms: C_6  and  C_7
REMARK    3  A    between atoms: C_8  and  C_9
REMARK    4  A    between atoms: C_9  and  N_10
REMARK    5  A    between atoms: N_10  and  C_11
REMARK    6  A    between atoms: C_11  and  C_12
REMARK    7  A    between atoms: C_12  and  C_13
REMARK    8  A    between atoms: C_12  and  C_14
REMARK    9  A    between atoms: C_15  and  C_17
REMARK   10  A    between atoms: C_19  and  C_20
REMARK   11  A    between atoms: C_20  and  O_22
REMARK   12  A    between atoms: N_24  and  C_25
REMARK                            x       y       z     vdW  Elec       q    Type
REMARK                         _______ _______ _______ _____ _____    ______ ____
ROOT
ATOM      1  N   UNL     1       1.745   8.046  19.442  0.00  0.00    +0.000 N 
ATOM      2  C   UNL     1       1.709   9.034  18.420  0.00  0.00    +0.000 C 
ATOM      3  O   UNL     1       2.663   9.207  17.673  0.00  0.00    +0.000 OA
ENDROOT
BRANCH   2   4
ATOM      4  C   UNL     1       0.501   9.847  18.287  0.00  0.00    +0.000 A 
ATOM      5  C   UNL     1      -0.737   9.509  17.762  0.00  0.00    +0.000 A 
ATOM      6  C   UNL     1      -1.569  10.629  17.929  0.00  0.00    +0.000 A 
ATOM      7  N   UNL     1      -0.886  11.665  18.449  0.00  0.00    +0.000 NA
ATOM      8  N   UNL     1       0.384  11.192  18.565  0.00  0.00    +0.000 N 
ATOM      9  C   UNL     1       1.404  12.130  18.983  0.00  0.00    +0.000 C 
BRANCH   6  10
ATOM     10  C   UNL     1      -2.994  10.747  17.619  0.00  0.00    +0.000 C 
ATOM     11  O   UNL     1      -3.800   9.833  17.715  0.00  0.00    +0.000 OA
BRANCH  10  12
ATOM     12  O   UNL     1      -3.333  12.002  17.218  0.00  0.00    +0.000 OA
ATOM     13  H   UNL     1      -4.048  11.889  16.546  0.00  0.00    +0.000 HD
ENDBRANCH  10  12
ENDBRANCH   6  10
ENDBRANCH   2   4
BRANCH   1  14
ATOM     14  C   UNL     1       2.886   7.126  19.416  0.00  0.00    +0.000 C 
BRANCH  14  22
ATOM     15  C   UNL     1       0.989   4.768  20.189  0.00  0.00    +0.000 C 
ATOM     16  C   UNL     1       2.061   4.680  19.140  0.00  0.00    +0.000 A 
ATOM     17  C   UNL     1       2.364   3.389  18.663  0.00  0.00    +0.000 A 
ATOM     18  C   UNL     1       3.337   3.186  17.691  0.00  0.00    +0.000 A 
ATOM     19  C   UNL     1       3.970   4.280  17.126  0.00  0.00    +0.000 A 
ATOM     20  C   UNL     1       3.686   5.584  17.569  0.00  0.00    +0.000 A 
ATOM     21  C   UNL     1       4.394   6.718  16.872  0.00  0.00    +0.000 C 
ATOM     22  C   UNL     1       2.785   5.798  18.656  0.00  0.00    +0.000 A 
ENDBRANCH  14  22
ENDBRANCH   1  14
BRANCH   1  23
ATOM     23  C   UNL     1       0.942   8.206  20.678  0.00  0.00    +0.000 C 
BRANCH  23  24
ATOM     24  C   UNL     1       1.042   9.479  21.553  0.00  0.00    +0.000 C 
ATOM     25  C   UNL     1      -0.317  10.099  21.890  0.00  0.00    +0.000 C 
ATOM     26  C   UNL     1       1.744   9.130  22.878  0.00  0.00    +0.000 C 
ENDBRANCH  23  24
ENDBRANCH   1  23
TORSDOF 7
ENDMDL
