MODEL 1
REMARK VINA RESULT:      -8.6      0.000      0.000
REMARK  Name = 
REMARK  7 active torsions:
REMARK  status: ('A' for Active; 'I' for Inactive)
REMARK    1  A    between atoms: C_1  and  C_2
REMARK    2  A    between atoms: C_2  and  C_3
REMARK    3  A    between atoms: C_4  and  C_5
REMARK    4  A    between atoms: C_5  and  N_6
REMARK    5  A    between atoms: C_17  and  S_18
REMARK    6  A    between atoms: S_18  and  C_19
REMARK    7  A    between atoms: C_19  and  C_20
REMARK                            x       y       z     vdW  Elec       q    Type
REMARK                         _______ _______ _______ _____ _____    ______ ____
ROOT
ATOM      1  C   UNL     1       1.936   4.108  19.181  0.00  0.00    +0.000 A 
ATOM      2  C   UNL     1       2.780   5.168  19.155  0.00  0.00    +0.000 A 
ATOM      3  N   UNL     1       3.705   5.376  18.131  0.00  0.00    +0.000 NA
ATOM      4  C   UNL     1       3.730   4.525  17.171  0.00  0.00    +0.000 A 
ATOM      5  N   UNL     1       2.954   3.423  17.108  0.00  0.00    +0.000 N 
ATOM      6  C   UNL     1       2.138   3.075  18.130  0.00  0.00    +0.000 A 
ATOM      7  O   UNL     1       1.611   1.968  18.173  0.00  0.00    +0.000 OA
ATOM      8  H   UNL     1       3.097   2.757  16.365  0.00  0.00    +0.000 HD
ENDROOT
BRANCH   1  10
ATOM      9  C   UNL     1       1.324   3.042  21.427  0.00  0.00    +0.000 C 
ATOM     10  C   UNL     1       0.848   3.788  20.178  0.00  0.00    +0.000 C 
ENDBRANCH   1  10
BRANCH   2  11
ATOM     11  C   UNL     1       2.779   6.301  20.191  0.00  0.00    +0.000 C 
BRANCH  11  12
ATOM     12  N   UNL     1       2.231   7.554  19.643  0.00  0.00    +0.000 N 
ATOM     13  C   UNL     1       2.686   7.952  18.305  0.00  0.00    +0.000 C 
ATOM     14  C   UNL     1       1.572   8.594  17.497  0.00  0.00    +0.000 C 
ATOM     15  C   UNL     1       1.026   9.803  18.232  0.00  0.00    +0.000 C 
ATOM     16  C   UNL     1       0.772   9.512  19.688  0.00  0.00    +0.000 A 
ATOM     17  C   UNL     1      -0.071  10.396  20.392  0.00  0.00    +0.000 A 
ATOM     18  C   UNL     1      -0.328  10.212  21.744  0.00  0.00    +0.000 A 
ATOM     19  C   UNL     1       0.241   9.130  22.395  0.00  0.00    +0.000 A 
ATOM     20  C   UNL     1       1.056   8.238  21.688  0.00  0.00    +0.000 A 
ATOM     21  C   UNL     1       1.379   8.410  20.334  0.00  0.00    +0.000 A 
ENDBRANCH  11  12
ENDBRANCH   2  11
BRANCH   4  22
ATOM     22  S   UNL     1       4.747   4.660  15.774  0.00  0.00    +0.000 S 
BRANCH  22  23
ATOM     23  C   UNL     1       6.334   4.094  16.443  0.00  0.00    +0.000 C 
BRANCH  23  24
ATOM     24  C   UNL     1       7.012   5.209  17.209  0.00  0.00    +0.000 A 
ATOM     25  C   UNL     1       7.527   4.983  18.494  0.00  0.00    +0.000 A 
ATOM     26  C   UNL     1       8.106   6.027  19.223  0.00  0.00    +0.000 A 
ATOM     27  C   UNL     1       8.175   7.306  18.675  0.00  0.00    +0.000 A 
ATOM     28  C   UNL     1       7.667   7.544  17.401  0.00  0.00    +0.000 A 
ATOM     29  C   UNL     1       7.087   6.503  16.670  0.00  0.00    +0.000 A 
ENDBRANCH  23  24
ENDBRANCH  22  23
ENDBRANCH   4  22
TORSDOF 6
ENDMDL
MODEL 2
REMARK VINA RESULT:      -8.6      1.569      2.360
REMARK  Name = 
REMARK  7 active torsions:
REMARK  status: ('A' for Active; 'I' for Inactive)
REMARK    1  A    between atoms: C_1  and  C_2
REMARK    2  A    between atoms: C_2  and  C_3
REMARK    3  A    between atoms: C_4  and  C_5
REMARK    4  A    between atoms: C_5  and  N_6
REMARK    5  A    between atoms: C_17  and  S_18
REMARK    6  A    between atoms: S_18  and  C_19
REMARK    7  A    between atoms: C_19  and  C_20
REMARK                            x       y       z     vdW  Elec       q    Type
REMARK                         _______ _______ _______ _____ _____    ______ ____
ROOT
ATOM      1  C   UNL     1       2.821   4.055  18.795  0.00  0.00    +0.000 A 
ATOM      2  C   UNL     1       3.148   5.068  19.635  0.00  0.00    +0.000 A 
ATOM      3  N   UNL     1       4.467   5.443  19.893  0.00  0.00    +0.000 NA
ATOM      4  C   UNL     1       5.397   4.801  19.286  0.00  0.00    +0.000 A 
ATOM      5  N   UNL     1       5.188   3.763  18.451  0.00  0.00    +0.000 N 
ATOM      6  C   UNL     1       3.950   3.247  18.262  0.00  0.00    +0.000 A 
ATOM      7  O   UNL     1       3.790   2.173  17.690  0.00  0.00    +0.000 OA
ATOM      8  H   UNL     1       5.976   3.254  18.082  0.00  0.00    +0.000 HD
ENDROOT
BRANCH   1  10
ATOM      9  C   UNL     1       0.749   2.669  19.379  0.00  0.00    +0.000 C 
ATOM     10  C   UNL     1       1.452   3.581  18.371  0.00  0.00    +0.000 C 
ENDBRANCH   1  10
BRANCH   2  11
ATOM     11  C   UNL     1       2.126   5.969  20.342  0.00  0.00    +0.000 C 
BRANCH  11  12
ATOM     12  N   UNL     1       2.035   7.301  19.717  0.00  0.00    +0.000 N 
ATOM     13  C   UNL     1       2.710   7.479  18.425  0.00  0.00    +0.000 C 
ATOM     14  C   UNL     1       1.921   8.385  17.496  0.00  0.00    +0.000 C 
ATOM     15  C   UNL     1       1.702   9.737  18.149  0.00  0.00    +0.000 C 
ATOM     16  C   UNL     1       1.239   9.605  19.578  0.00  0.00    +0.000 A 
ATOM     17  C   UNL     1       0.643  10.734  20.175  0.00  0.00    +0.000 A 
ATOM     18  C   UNL     1       0.221  10.701  21.498  0.00  0.00    +0.000 A 
ATOM     19  C   UNL     1       0.373   9.532  22.223  0.00  0.00    +0.000 A 
ATOM     20  C   UNL     1       0.941   8.403  21.620  0.00  0.00    +0.000 A 
ATOM     21  C   UNL     1       1.424   8.405  20.302  0.00  0.00    +0.000 A 
ENDBRANCH  11  12
ENDBRANCH   2  11
BRANCH   4  22
ATOM     22  S   UNL     1       7.084   5.176  19.414  0.00  0.00    +0.000 S 
BRANCH  22  23
ATOM     23  C   UNL     1       7.257   6.448  18.135  0.00  0.00    +0.000 C 
BRANCH  23  24
ATOM     24  C   UNL     1       6.735   5.939  16.809  0.00  0.00    +0.000 A 
ATOM     25  C   UNL     1       5.577   6.487  16.238  0.00  0.00    +0.000 A 
ATOM     26  C   UNL     1       5.065   5.979  15.039  0.00  0.00    +0.000 A 
ATOM     27  C   UNL     1       5.706   4.920  14.400  0.00  0.00    +0.000 A 
ATOM     28  C   UNL     1       6.856   4.366  14.956  0.00  0.00    +0.000 A 
ATOM     29  C   UNL     1       7.370   4.871  16.155  0.00  0.00    +0.000 A 
ENDBRANCH  23  24
ENDBRANCH  22  23
ENDBRANCH   4  22
TORSDOF 6
ENDMDL
MODEL 3
REMARK VINA RESULT:      -8.4      1.821      2.770
REMARK  Name = 
REMARK  7 active torsions:
REMARK  status: ('A' for Active; 'I' for Inactive)
REMARK    1  A    between atoms: C_1  and  C_2
REMARK    2  A    between atoms: C_2  and  C_3
REMARK    3  A    between atoms: C_4  and  C_5
REMARK    4  A    between atoms: C_5  and  N_6
REMARK    5  A    between atoms: C_17  and  S_18
REMARK    6  A    between atoms: S_18  and  C_19
REMARK    7  A    between atoms: C_19  and  C_20
REMARK                            x       y       z     vdW  Elec       q    Type
REMARK                         _______ _______ _______ _____ _____    ______ ____
ROOT
ATOM      1  C   UNL     1       2.402   4.004  18.992  0.00  0.00    +0.000 A 
ATOM      2  C   UNL     1       3.174   5.044  19.396  0.00  0.00    +0.000 A 
ATOM      3  N   UNL     1       4.444   5.293  18.876  0.00  0.00    +0.000 NA
ATOM      4  C   UNL     1       4.877   4.503  17.962  0.00  0.00    +0.000 A 
ATOM      5  N   UNL     1       4.206   3.426  17.504  0.00  0.00    +0.000 N 
ATOM      6  C   UNL     1       3.035   3.035  18.059  0.00  0.00    +0.000 A 
ATOM      7  O   UNL     1       2.544   1.940  17.802  0.00  0.00    +0.000 OA
ATOM      8  H   UNL     1       4.652   2.804  16.848  0.00  0.00    +0.000 HD
ENDROOT
BRANCH   1  10
ATOM      9  C   UNL     1       0.884   3.009  20.798  0.00  0.00    +0.000 C 
ATOM     10  C   UNL     1       0.996   3.649  19.413  0.00  0.00    +0.000 C 
ENDBRANCH   1  10
BRANCH   2  11
ATOM     11  C   UNL     1       2.728   6.109  20.408  0.00  0.00    +0.000 C 
BRANCH  11  12
ATOM     12  N   UNL     1       2.313   7.360  19.749  0.00  0.00    +0.000 N 
ATOM     13  C   UNL     1       2.852   7.619  18.408  0.00  0.00    +0.000 C 
ATOM     14  C   UNL     1       1.830   8.291  17.508  0.00  0.00    +0.000 C 
ATOM     15  C   UNL     1       1.363   9.593  18.131  0.00  0.00    +0.000 C 
ATOM     16  C   UNL     1       1.029   9.432  19.592  0.00  0.00    +0.000 A 
ATOM     17  C   UNL     1       0.240  10.433  20.194  0.00  0.00    +0.000 A 
ATOM     18  C   UNL     1      -0.083  10.372  21.543  0.00  0.00    +0.000 A 
ATOM     19  C   UNL     1       0.364   9.297  22.293  0.00  0.00    +0.000 A 
ATOM     20  C   UNL     1       1.124   8.290  21.687  0.00  0.00    +0.000 A 
ATOM     21  C   UNL     1       1.513   8.334  20.340  0.00  0.00    +0.000 A 
ENDBRANCH  11  12
ENDBRANCH   2  11
BRANCH   4  22
ATOM     22  S   UNL     1       6.389   4.700  17.139  0.00  0.00    +0.000 S 
BRANCH  22  23
ATOM     23  C   UNL     1       5.881   5.689  15.707  0.00  0.00    +0.000 C 
BRANCH  23  24
ATOM     24  C   UNL     1       6.256   4.986  14.420  0.00  0.00    +0.000 A 
ATOM     25  C   UNL     1       7.419   5.343  13.724  0.00  0.00    +0.000 A 
ATOM     26  C   UNL     1       7.737   4.731  12.506  0.00  0.00    +0.000 A 
ATOM     27  C   UNL     1       6.895   3.756  11.975  0.00  0.00    +0.000 A 
ATOM     28  C   UNL     1       5.736   3.392  12.657  0.00  0.00    +0.000 A 
ATOM     29  C   UNL     1       5.416   4.003  13.873  0.00  0.00    +0.000 A 
ENDBRANCH  23  24
ENDBRANCH  22  23
ENDBRANCH   4  22
TORSDOF 6
ENDMDL
MODEL 4
REMARK VINA RESULT:      -8.3      4.132      7.015
REMARK  Name = 
REMARK  7 active torsions:
REMARK  status: ('A' for Active; 'I' for Inactive)
REMARK    1  A    between atoms: C_1  and  C_2
REMARK    2  A    between atoms: C_2  and  C_3
REMARK    3  A    between atoms: C_4  and  C_5
REMARK    4  A    between atoms: C_5  and  N_6
REMARK    5  A    between atoms: C_17  and  S_18
REMARK    6  A    between atoms: S_18  and  C_19
REMARK    7  A    between atoms: C_19  and  C_20
REMARK                            x       y       z     vdW  Elec       q    Type
REMARK                         _______ _______ _______ _____ _____    ______ ____
ROOT
ATOM      1  C   UNL     1      -0.564  10.944  21.858  0.00  0.00    +0.000 A 
ATOM      2  C   UNL     1      -0.327  11.173  20.543  0.00  0.00    +0.000 A 
ATOM      3  N   UNL     1       0.459  10.330  19.757  0.00  0.00    +0.000 NA
ATOM      4  C   UNL     1       0.955   9.287  20.315  0.00  0.00    +0.000 A 
ATOM      5  N   UNL     1       0.804   8.975  21.619  0.00  0.00    +0.000 N 
ATOM      6  C   UNL     1       0.180   9.815  22.478  0.00  0.00    +0.000 A 
ATOM      7  O   UNL     1       0.241   9.643  23.691  0.00  0.00    +0.000 OA
ATOM      8  H   UNL     1       1.299   8.185  22.002  0.00  0.00    +0.000 HD
ENDROOT
BRANCH   1  10
ATOM      9  C   UNL     1      -0.989  13.165  23.058  0.00  0.00    +0.000 C 
ATOM     10  C   UNL     1      -1.437  11.723  22.812  0.00  0.00    +0.000 C 
ENDBRANCH   1  10
BRANCH   2  11
ATOM     11  C   UNL     1      -0.941  12.329  19.742  0.00  0.00    +0.000 C 
BRANCH  11  12
ATOM     12  N   UNL     1      -2.101  11.895  18.943  0.00  0.00    +0.000 N 
ATOM     13  C   UNL     1      -1.822  11.304  17.629  0.00  0.00    +0.000 C 
ATOM     14  C   UNL     1      -2.778  10.169  17.306  0.00  0.00    +0.000 C 
ATOM     15  C   UNL     1      -4.210  10.665  17.350  0.00  0.00    +0.000 C 
ATOM     16  C   UNL     1      -4.482  11.498  18.576  0.00  0.00    +0.000 A 
ATOM     17  C   UNL     1      -5.829  11.702  18.939  0.00  0.00    +0.000 A 
ATOM     18  C   UNL     1      -6.161  12.484  20.037  0.00  0.00    +0.000 A 
ATOM     19  C   UNL     1      -5.147  13.049  20.792  0.00  0.00    +0.000 A 
ATOM     20  C   UNL     1      -3.809  12.822  20.446  0.00  0.00    +0.000 A 
ATOM     21  C   UNL     1      -3.428  12.078  19.319  0.00  0.00    +0.000 A 
ENDBRANCH  11  12
ENDBRANCH   2  11
BRANCH   4  22
ATOM     22  S   UNL     1       1.883   8.082  19.483  0.00  0.00    +0.000 S 
BRANCH  22  23
ATOM     23  C   UNL     1       1.820   6.713  20.669  0.00  0.00    +0.000 C 
BRANCH  23  24
ATOM     24  C   UNL     1       1.706   5.390  19.942  0.00  0.00    +0.000 A 
ATOM     25  C   UNL     1       2.174   5.255  18.627  0.00  0.00    +0.000 A 
ATOM     26  C   UNL     1       2.020   4.048  17.936  0.00  0.00    +0.000 A 
ATOM     27  C   UNL     1       1.398   2.966  18.555  0.00  0.00    +0.000 A 
ATOM     28  C   UNL     1       0.929   3.087  19.860  0.00  0.00    +0.000 A 
ATOM     29  C   UNL     1       1.080   4.292  20.552  0.00  0.00    +0.000 A 
ENDBRANCH  23  24
ENDBRANCH  22  23
ENDBRANCH   4  22
TORSDOF 6
ENDMDL
MODEL 5
REMARK VINA RESULT:      -8.3      1.762      2.573
REMARK  Name = 
REMARK  7 active torsions:
REMARK  status: ('A' for Active; 'I' for Inactive)
REMARK    1  A    between atoms: C_1  and  C_2
REMARK    2  A    between atoms: C_2  and  C_3
REMARK    3  A    between atoms: C_4  and  C_5
REMARK    4  A    between atoms: C_5  and  N_6
REMARK    5  A    between atoms: C_17  and  S_18
REMARK    6  A    between atoms: S_18  and  C_19
REMARK    7  A    between atoms: C_19  and  C_20
REMARK                            x       y       z     vdW  Elec       q    Type
REMARK                         _______ _______ _______ _____ _____    ______ ____
ROOT
ATOM      1  C   UNL     1       3.021   3.494  19.843  0.00  0.00    +0.000 A 
ATOM      2  C   UNL     1       3.150   4.828  20.050  0.00  0.00    +0.000 A 
ATOM      3  N   UNL     1       4.341   5.518  19.825  0.00  0.00    +0.000 NA
ATOM      4  C   UNL     1       5.343   4.847  19.386  0.00  0.00    +0.000 A 
ATOM      5  N   UNL     1       5.334   3.516  19.170  0.00  0.00    +0.000 N 
ATOM      6  C   UNL     1       4.265   2.754  19.501  0.00  0.00    +0.000 A 
ATOM      7  O   UNL     1       4.339   1.529  19.519  0.00  0.00    +0.000 OA
ATOM      8  H   UNL     1       6.188   3.048  18.910  0.00  0.00    +0.000 HD
ENDROOT
BRANCH   1  10
ATOM      9  C   UNL     1       0.931   2.536  18.716  0.00  0.00    +0.000 C 
ATOM     10  C   UNL     1       1.790   2.629  19.979  0.00  0.00    +0.000 C 
ENDBRANCH   1  10
BRANCH   2  11
ATOM     11  C   UNL     1       2.001   5.751  20.478  0.00  0.00    +0.000 C 
BRANCH  11  12
ATOM     12  N   UNL     1       2.028   7.039  19.762  0.00  0.00    +0.000 N 
ATOM     13  C   UNL     1       2.747   7.076  18.483  0.00  0.00    +0.000 C 
ATOM     14  C   UNL     1       2.054   7.971  17.471  0.00  0.00    +0.000 C 
ATOM     15  C   UNL     1       1.922   9.378  18.024  0.00  0.00    +0.000 C 
ATOM     16  C   UNL     1       1.415   9.381  19.443  0.00  0.00    +0.000 A 
ATOM     17  C   UNL     1       0.892  10.590  19.944  0.00  0.00    +0.000 A 
ATOM     18  C   UNL     1       0.435  10.682  21.252  0.00  0.00    +0.000 A 
ATOM     19  C   UNL     1       0.480   9.558  22.060  0.00  0.00    +0.000 A 
ATOM     20  C   UNL     1       0.974   8.351  21.552  0.00  0.00    +0.000 A 
ATOM     21  C   UNL     1       1.488   8.224  20.252  0.00  0.00    +0.000 A 
ENDBRANCH  11  12
ENDBRANCH   2  11
BRANCH   4  22
ATOM     22  S   UNL     1       6.875   5.542  18.970  0.00  0.00    +0.000 S 
BRANCH  22  23
ATOM     23  C   UNL     1       6.429   6.525  17.514  0.00  0.00    +0.000 C 
BRANCH  23  24
ATOM     24  C   UNL     1       6.289   5.634  16.299  0.00  0.00    +0.000 A 
ATOM     25  C   UNL     1       7.401   5.340  15.496  0.00  0.00    +0.000 A 
ATOM     26  C   UNL     1       7.261   4.561  14.342  0.00  0.00    +0.000 A 
ATOM     27  C   UNL     1       6.009   4.068  13.982  0.00  0.00    +0.000 A 
ATOM     28  C   UNL     1       4.896   4.352  14.770  0.00  0.00    +0.000 A 
ATOM     29  C   UNL     1       5.033   5.131  15.922  0.00  0.00    +0.000 A 
ENDBRANCH  23  24
ENDBRANCH  22  23
ENDBRANCH   4  22
TORSDOF 6
ENDMDL
MODEL 6
REMARK VINA RESULT:      -8.2      3.665      6.463
REMARK  Name = 
REMARK  7 active torsions:
REMARK  status: ('A' for Active; 'I' for Inactive)
REMARK    1  A    between atoms: C_1  and  C_2
REMARK    2  A    between atoms: C_2  and  C_3
REMARK    3  A    between atoms: C_4  and  C_5
REMARK    4  A    between atoms: C_5  and  N_6
REMARK    5  A    between atoms: C_17  and  S_18
REMARK    6  A    between atoms: S_18  and  C_19
REMARK    7  A    between atoms: C_19  and  C_20
REMARK                            x       y       z     vdW  Elec       q    Type
REMARK                         _______ _______ _______ _____ _____    ______ ____
ROOT
ATOM      1  C   UNL     1       0.403  10.669  21.051  0.00  0.00    +0.000 A 
ATOM      2  C   UNL     1       0.411  10.853  19.708  0.00  0.00    +0.000 A 
ATOM      3  N   UNL     1       0.999   9.948  18.823  0.00  0.00    +0.000 NA
ATOM      4  C   UNL     1       1.533   8.892  19.319  0.00  0.00    +0.000 A 
ATOM      5  N   UNL     1       1.603   8.621  20.638  0.00  0.00    +0.000 N 
ATOM      6  C   UNL     1       1.187   9.515  21.566  0.00  0.00    +0.000 A 
ATOM      7  O   UNL     1       1.457   9.369  22.754  0.00  0.00    +0.000 OA
ATOM      8  H   UNL     1       2.118   7.814  20.953  0.00  0.00    +0.000 HD
ENDROOT
BRANCH   1  10
ATOM      9  C   UNL     1      -1.348  10.818  22.914  0.00  0.00    +0.000 C 
ATOM     10  C   UNL     1      -0.244  11.518  22.119  0.00  0.00    +0.000 C 
ENDBRANCH   1  10
BRANCH   2  11
ATOM     11  C   UNL     1      -0.277  12.022  18.991  0.00  0.00    +0.000 C 
BRANCH  11  12
ATOM     12  N   UNL     1      -1.635  11.672  18.535  0.00  0.00    +0.000 N 
ATOM     13  C   UNL     1      -1.741  10.879  17.304  0.00  0.00    +0.000 C 
ATOM     14  C   UNL     1      -2.875   9.872  17.378  0.00  0.00    +0.000 C 
ATOM     15  C   UNL     1      -4.188  10.583  17.642  0.00  0.00    +0.000 C 
ATOM     16  C   UNL     1      -4.066  11.600  18.748  0.00  0.00    +0.000 A 
ATOM     17  C   UNL     1      -5.257  12.054  19.350  0.00  0.00    +0.000 A 
ATOM     18  C   UNL     1      -5.229  13.013  20.353  0.00  0.00    +0.000 A 
ATOM     19  C   UNL     1      -4.007  13.509  20.775  0.00  0.00    +0.000 A 
ATOM     20  C   UNL     1      -2.823  13.037  20.196  0.00  0.00    +0.000 A 
ATOM     21  C   UNL     1      -2.807  12.103  19.148  0.00  0.00    +0.000 A 
ENDBRANCH  11  12
ENDBRANCH   2  11
BRANCH   4  22
ATOM     22  S   UNL     1       2.234   7.619  18.376  0.00  0.00    +0.000 S 
BRANCH  22  23
ATOM     23  C   UNL     1       2.758   6.470  19.676  0.00  0.00    +0.000 C 
BRANCH  23  24
ATOM     24  C   UNL     1       2.147   5.103  19.451  0.00  0.00    +0.000 A 
ATOM     25  C   UNL     1       2.223   4.485  18.194  0.00  0.00    +0.000 A 
ATOM     26  C   UNL     1       1.612   3.246  17.972  0.00  0.00    +0.000 A 
ATOM     27  C   UNL     1       0.920   2.615  19.004  0.00  0.00    +0.000 A 
ATOM     28  C   UNL     1       0.837   3.218  20.256  0.00  0.00    +0.000 A 
ATOM     29  C   UNL     1       1.446   4.456  20.481  0.00  0.00    +0.000 A 
ENDBRANCH  23  24
ENDBRANCH  22  23
ENDBRANCH   4  22
TORSDOF 6
ENDMDL
MODEL 7
REMARK VINA RESULT:      -8.1      2.582      7.681
REMARK  Name = 
REMARK  7 active torsions:
REMARK  status: ('A' for Active; 'I' for Inactive)
REMARK    1  A    between atoms: C_1  and  C_2
REMARK    2  A    between atoms: C_2  and  C_3
REMARK    3  A    between atoms: C_4  and  C_5
REMARK    4  A    between atoms: C_5  and  N_6
REMARK    5  A    between atoms: C_17  and  S_18
REMARK    6  A    between atoms: S_18  and  C_19
REMARK    7  A    between atoms: C_19  and  C_20
REMARK                            x       y       z     vdW  Elec       q    Type
REMARK                         _______ _______ _______ _____ _____    ______ ____
ROOT
ATOM      1  C   UNL     1       2.130   6.127  20.060  0.00  0.00    +0.000 A 
ATOM      2  C   UNL     1       2.504   6.229  18.761  0.00  0.00    +0.000 A 
ATOM      3  N   UNL     1       2.393   7.413  18.031  0.00  0.00    +0.000 NA
ATOM      4  C   UNL     1       1.933   8.445  18.639  0.00  0.00    +0.000 A 
ATOM      5  N   UNL     1       1.508   8.450  19.919  0.00  0.00    +0.000 N 
ATOM      6  C   UNL     1       1.448   7.311  20.647  0.00  0.00    +0.000 A 
ATOM      7  O   UNL     1       0.854   7.274  21.721  0.00  0.00    +0.000 OA
ATOM      8  H   UNL     1       1.076   9.279  20.297  0.00  0.00    +0.000 HD
ENDROOT
BRANCH   1  10
ATOM      9  C   UNL     1       1.209   3.844  20.763  0.00  0.00    +0.000 C 
ATOM     10  C   UNL     1       2.249   4.943  20.989  0.00  0.00    +0.000 C 
ENDBRANCH   1  10
BRANCH   2  11
ATOM     11  C   UNL     1       3.157   5.096  17.957  0.00  0.00    +0.000 C 
BRANCH  11  12
ATOM     12  N   UNL     1       4.617   5.265  17.846  0.00  0.00    +0.000 N 
ATOM     13  C   UNL     1       5.310   5.850  19.001  0.00  0.00    +0.000 C 
ATOM     14  C   UNL     1       6.673   5.217  19.221  0.00  0.00    +0.000 C 
ATOM     15  C   UNL     1       7.528   5.374  17.978  0.00  0.00    +0.000 C 
ATOM     16  C   UNL     1       6.771   5.017  16.724  0.00  0.00    +0.000 A 
ATOM     17  C   UNL     1       7.525   4.752  15.562  0.00  0.00    +0.000 A 
ATOM     18  C   UNL     1       6.899   4.448  14.361  0.00  0.00    +0.000 A 
ATOM     19  C   UNL     1       5.516   4.386  14.319  0.00  0.00    +0.000 A 
ATOM     20  C   UNL     1       4.771   4.622  15.481  0.00  0.00    +0.000 A 
ATOM     21  C   UNL     1       5.358   4.978  16.704  0.00  0.00    +0.000 A 
ENDBRANCH  11  12
ENDBRANCH   2  11
BRANCH   4  22
ATOM     22  S   UNL     1       1.801  10.019  17.925  0.00  0.00    +0.000 S 
BRANCH  22  23
ATOM     23  C   UNL     1       0.661  10.830  19.077  0.00  0.00    +0.000 C 
BRANCH  23  24
ATOM     24  C   UNL     1      -0.754  10.783  18.541  0.00  0.00    +0.000 A 
ATOM     25  C   UNL     1      -1.094   9.908  17.499  0.00  0.00    +0.000 A 
ATOM     26  C   UNL     1      -2.389   9.903  16.967  0.00  0.00    +0.000 A 
ATOM     27  C   UNL     1      -3.354  10.771  17.473  0.00  0.00    +0.000 A 
ATOM     28  C   UNL     1      -3.029  11.645  18.508  0.00  0.00    +0.000 A 
ATOM     29  C   UNL     1      -1.736  11.653  19.040  0.00  0.00    +0.000 A 
ENDBRANCH  23  24
ENDBRANCH  22  23
ENDBRANCH   4  22
TORSDOF 6
ENDMDL
MODEL 8
REMARK VINA RESULT:      -8.0      3.678      6.817
REMARK  Name = 
REMARK  7 active torsions:
REMARK  status: ('A' for Active; 'I' for Inactive)
REMARK    1  A    between atoms: C_1  and  C_2
REMARK    2  A    between atoms: C_2  and  C_3
REMARK    3  A    between atoms: C_4  and  C_5
REMARK    4  A    between atoms: C_5  and  N_6
REMARK    5  A    between atoms: C_17  and  S_18
REMARK    6  A    between atoms: S_18  and  C_19
REMARK    7  A    between atoms: C_19  and  C_20
REMARK                            x       y       z     vdW  Elec       q    Type
REMARK                         _______ _______ _______ _____ _____    ______ ____
ROOT
ATOM      1  C   UNL     1       0.270  10.838  21.191  0.00  0.00    +0.000 A 
ATOM      2  C   UNL     1       0.212  11.144  19.871  0.00  0.00    +0.000 A 
ATOM      3  N   UNL     1       0.754  10.326  18.879  0.00  0.00    +0.000 NA
ATOM      4  C   UNL     1       1.311   9.231  19.250  0.00  0.00    +0.000 A 
ATOM      5  N   UNL     1       1.446   8.840  20.534  0.00  0.00    +0.000 N 
ATOM      6  C   UNL     1       1.077   9.645  21.559  0.00  0.00    +0.000 A 
ATOM      7  O   UNL     1       1.406   9.393  22.714  0.00  0.00    +0.000 OA
ATOM      8  H   UNL     1       1.974   8.010  20.749  0.00  0.00    +0.000 HD
ENDROOT
BRANCH   1  10
ATOM      9  C   UNL     1      -1.319  10.780  23.198  0.00  0.00    +0.000 C 
ATOM     10  C   UNL     1      -0.322  11.585  22.362  0.00  0.00    +0.000 C 
ENDBRANCH   1  10
BRANCH   2  11
ATOM     11  C   UNL     1      -0.509  12.371  19.298  0.00  0.00    +0.000 C 
BRANCH  11  12
ATOM     12  N   UNL     1      -1.968  12.172  19.221  0.00  0.00    +0.000 N 
ATOM     13  C   UNL     1      -2.742  12.430  20.441  0.00  0.00    +0.000 C 
ATOM     14  C   UNL     1      -4.087  13.064  20.132  0.00  0.00    +0.000 C 
ATOM     15  C   UNL     1      -4.883  12.170  19.201  0.00  0.00    +0.000 C 
ATOM     16  C   UNL     1      -4.050  11.671  18.049  0.00  0.00    +0.000 A 
ATOM     17  C   UNL     1      -4.732  11.158  16.926  0.00  0.00    +0.000 A 
ATOM     18  C   UNL     1      -4.035  10.650  15.839  0.00  0.00    +0.000 A 
ATOM     19  C   UNL     1      -2.650  10.672  15.858  0.00  0.00    +0.000 A 
ATOM     20  C   UNL     1      -1.975  11.207  16.962  0.00  0.00    +0.000 A 
ATOM     21  C   UNL     1      -2.637  11.688  18.101  0.00  0.00    +0.000 A 
ENDBRANCH  11  12
ENDBRANCH   2  11
BRANCH   4  22
ATOM     22  S   UNL     1       1.962   8.050  18.161  0.00  0.00    +0.000 S 
BRANCH  22  23
ATOM     23  C   UNL     1       2.827   6.952  19.315  0.00  0.00    +0.000 C 
BRANCH  23  24
ATOM     24  C   UNL     1       2.204   5.573  19.299  0.00  0.00    +0.000 A 
ATOM     25  C   UNL     1       2.041   4.876  18.093  0.00  0.00    +0.000 A 
ATOM     26  C   UNL     1       1.417   3.625  18.072  0.00  0.00    +0.000 A 
ATOM     27  C   UNL     1       0.949   3.059  19.256  0.00  0.00    +0.000 A 
ATOM     28  C   UNL     1       1.105   3.740  20.461  0.00  0.00    +0.000 A 
ATOM     29  C   UNL     1       1.727   4.991  20.484  0.00  0.00    +0.000 A 
ENDBRANCH  23  24
ENDBRANCH  22  23
ENDBRANCH   4  22
TORSDOF 6
ENDMDL
MODEL 9
REMARK VINA RESULT:      -8.0      3.158      5.728
REMARK  Name = 
REMARK  7 active torsions:
REMARK  status: ('A' for Active; 'I' for Inactive)
REMARK    1  A    between atoms: C_1  and  C_2
REMARK    2  A    between atoms: C_2  and  C_3
REMARK    3  A    between atoms: C_4  and  C_5
REMARK    4  A    between atoms: C_5  and  N_6
REMARK    5  A    between atoms: C_17  and  S_18
REMARK    6  A    between atoms: S_18  and  C_19
REMARK    7  A    between atoms: C_19  and  C_20
REMARK                            x       y       z     vdW  Elec       q    Type
REMARK                         _______ _______ _______ _____ _____    ______ ____
ROOT
ATOM      1  C   UNL     1       5.780   5.152  16.383  0.00  0.00    +0.000 A 
ATOM      2  C   UNL     1       5.221   6.163  17.092  0.00  0.00    +0.000 A 
ATOM      3  N   UNL     1       5.972   7.063  17.849  0.00  0.00    +0.000 NA
ATOM      4  C   UNL     1       7.247   6.923  17.847  0.00  0.00    +0.000 A 
ATOM      5  N   UNL     1       7.905   5.940  17.199  0.00  0.00    +0.000 N 
ATOM      6  C   UNL     1       7.241   4.946  16.564  0.00  0.00    +0.000 A 
ATOM      7  O   UNL     1       7.826   3.939  16.175  0.00  0.00    +0.000 OA
ATOM      8  H   UNL     1       8.901   5.845  17.319  0.00  0.00    +0.000 HD
ENDROOT
BRANCH   1  10
ATOM      9  C   UNL     1       5.515   4.247  14.002  0.00  0.00    +0.000 C 
ATOM     10  C   UNL     1       5.109   4.149  15.475  0.00  0.00    +0.000 C 
ENDBRANCH   1  10
BRANCH   2  11
ATOM     11  C   UNL     1       3.722   6.492  17.096  0.00  0.00    +0.000 C 
BRANCH  11  12
ATOM     12  N   UNL     1       3.058   6.045  18.333  0.00  0.00    +0.000 N 
ATOM     13  C   UNL     1       3.066   6.976  19.468  0.00  0.00    +0.000 C 
ATOM     14  C   UNL     1       1.768   6.920  20.254  0.00  0.00    +0.000 C 
ATOM     15  C   UNL     1       1.521   5.509  20.752  0.00  0.00    +0.000 C 
ATOM     16  C   UNL     1       1.745   4.481  19.672  0.00  0.00    +0.000 A 
ATOM     17  C   UNL     1       1.198   3.197  19.872  0.00  0.00    +0.000 A 
ATOM     18  C   UNL     1       1.389   2.188  18.938  0.00  0.00    +0.000 A 
ATOM     19  C   UNL     1       2.109   2.464  17.788  0.00  0.00    +0.000 A 
ATOM     20  C   UNL     1       2.627   3.747  17.578  0.00  0.00    +0.000 A 
ATOM     21  C   UNL     1       2.499   4.784  18.516  0.00  0.00    +0.000 A 
ENDBRANCH  11  12
ENDBRANCH   2  11
BRANCH   4  22
ATOM     22  S   UNL     1       8.347   7.990  18.656  0.00  0.00    +0.000 S 
BRANCH  22  23
ATOM     23  C   UNL     1       8.041   9.542  17.773  0.00  0.00    +0.000 C 
BRANCH  23  24
ATOM     24  C   UNL     1       8.842  10.668  18.390  0.00  0.00    +0.000 A 
ATOM     25  C   UNL     1       8.932  11.914  17.752  0.00  0.00    +0.000 A 
ATOM     26  C   UNL     1       9.716  12.938  18.296  0.00  0.00    +0.000 A 
ATOM     27  C   UNL     1      10.415  12.725  19.482  0.00  0.00    +0.000 A 
ATOM     28  C   UNL     1      10.334  11.493  20.126  0.00  0.00    +0.000 A 
ATOM     29  C   UNL     1       9.553  10.468  19.584  0.00  0.00    +0.000 A 
ENDBRANCH  23  24
ENDBRANCH  22  23
ENDBRANCH   4  22
TORSDOF 6
ENDMDL
