MODEL 1
REMARK VINA RESULT:      -7.6      0.000      0.000
REMARK  Name = 
REMARK  6 active torsions:
REMARK  status: ('A' for Active; 'I' for Inactive)
REMARK    1  A    between atoms: C_1  and  C_2
REMARK    2  A    between atoms: C_2  and  C_3
REMARK    3  A    between atoms: C_2  and  C_4
REMARK    4  A    between atoms: C_4  and  C_5
REMARK    5  A    between atoms: C_5  and  N_6
REMARK    6  A    between atoms: C_12  and  C_13
REMARK                            x       y       z     vdW  Elec       q    Type
REMARK                         _______ _______ _______ _____ _____    ______ ____
ROOT
ATOM      1  N   UNL     1       5.895   6.076  15.514  0.00  0.00    +0.000 NA
ATOM      2  C   UNL     1       6.668   7.081  16.303  0.00  0.00    +0.000 C 
ATOM      3  C   UNL     1       7.391   6.527  17.563  0.00  0.00    +0.000 C 
ATOM      4  C   UNL     1       6.524   5.504  18.193  0.00  0.00    +0.000 A 
ATOM      5  N   UNL     1       6.765   4.799  19.321  0.00  0.00    +0.000 N 
ATOM      6  N   UNL     1       5.800   3.910  19.593  0.00  0.00    +0.000 NA
ATOM      7  C   UNL     1       4.923   4.001  18.568  0.00  0.00    +0.000 A 
ATOM      8  C   UNL     1       5.361   5.003  17.650  0.00  0.00    +0.000 A 
ATOM      9  C   UNL     1       4.807   5.492  16.354  0.00  0.00    +0.000 C 
ATOM     10  H   UNL     1       7.566   4.849  19.943  0.00  0.00    +0.000 HD
ENDROOT
BRANCH   7  11
ATOM     11  C   UNL     1       3.736   3.115  18.418  0.00  0.00    +0.000 C 
ATOM     12  O   UNL     1       3.755   2.174  17.623  0.00  0.00    +0.000 OA
ATOM     13  N   UNL     1       2.619   3.349  19.207  0.00  0.00    +0.000 N 
ATOM     14  C   UNL     1       1.525   2.398  19.219  0.00  0.00    +0.000 C 
ATOM     15  C   UNL     1       0.538   3.056  20.123  0.00  0.00    +0.000 C 
ATOM     16  C   UNL     1       0.967   4.261  20.512  0.00  0.00    +0.000 C 
ATOM     17  C   UNL     1       2.317   4.559  19.955  0.00  0.00    +0.000 C 
ENDBRANCH   7  11
BRANCH   1  18
ATOM     18  C   UNL     1       6.800   5.063  14.937  0.00  0.00    +0.000 C 
BRANCH  18  19
ATOM     19  C   UNL     1       6.125   3.823  14.330  0.00  0.00    +0.000 C 
BRANCH  19  21
ATOM     20  C   UNL     1       5.162   3.430  12.009  0.00  0.00    +0.000 C 
ATOM     21  C   UNL     1       6.434   3.563  12.845  0.00  0.00    +0.000 C 
ATOM     22  C   UNL     1       7.296   4.704  12.298  0.00  0.00    +0.000 C 
ENDBRANCH  19  21
ENDBRANCH  18  19
ENDBRANCH   1  18
TORSDOF 4
ENDMDL
MODEL 2
REMARK VINA RESULT:      -7.5      1.222      1.283
REMARK  Name = 
REMARK  6 active torsions:
REMARK  status: ('A' for Active; 'I' for Inactive)
REMARK    1  A    between atoms: C_1  and  C_2
REMARK    2  A    between atoms: C_2  and  C_3
REMARK    3  A    between atoms: C_2  and  C_4
REMARK    4  A    between atoms: C_4  and  C_5
REMARK    5  A    between atoms: C_5  and  N_6
REMARK    6  A    between atoms: C_12  and  C_13
REMARK                            x       y       z     vdW  Elec       q    Type
REMARK                         _______ _______ _______ _____ _____    ______ ____
ROOT
ATOM      1  N   UNL     1       4.822   4.887  15.493  0.00  0.00    +0.000 NA
ATOM      2  C   UNL     1       5.326   6.291  15.558  0.00  0.00    +0.000 C 
ATOM      3  C   UNL     1       6.432   6.554  16.619  0.00  0.00    +0.000 C 
ATOM      4  C   UNL     1       6.129   5.752  17.826  0.00  0.00    +0.000 A 
ATOM      5  N   UNL     1       6.822   5.711  18.985  0.00  0.00    +0.000 N 
ATOM      6  N   UNL     1       6.312   4.839  19.866  0.00  0.00    +0.000 NA
ATOM      7  C   UNL     1       5.276   4.246  19.230  0.00  0.00    +0.000 A 
ATOM      8  C   UNL     1       5.138   4.799  17.921  0.00  0.00    +0.000 A 
ATOM      9  C   UNL     1       4.202   4.503  16.797  0.00  0.00    +0.000 C 
ATOM     10  H   UNL     1       7.659   6.225  19.244  0.00  0.00    +0.000 HD
ENDROOT
BRANCH   7  11
ATOM     11  C   UNL     1       4.479   3.134  19.814  0.00  0.00    +0.000 C 
ATOM     12  O   UNL     1       4.970   2.010  19.937  0.00  0.00    +0.000 OA
ATOM     13  N   UNL     1       3.184   3.388  20.243  0.00  0.00    +0.000 N 
ATOM     14  C   UNL     1       2.451   2.380  20.983  0.00  0.00    +0.000 C 
ATOM     15  C   UNL     1       1.123   3.028  21.182  0.00  0.00    +0.000 C 
ATOM     16  C   UNL     1       1.068   4.215  20.568  0.00  0.00    +0.000 C 
ATOM     17  C   UNL     1       2.364   4.541  19.907  0.00  0.00    +0.000 C 
ENDBRANCH   7  11
BRANCH   1  18
ATOM     18  C   UNL     1       5.896   3.970  15.062  0.00  0.00    +0.000 C 
BRANCH  18  19
ATOM     19  C   UNL     1       6.485   4.229  13.667  0.00  0.00    +0.000 C 
BRANCH  19  21
ATOM     20  C   UNL     1       4.685   3.516  12.017  0.00  0.00    +0.000 C 
ATOM     21  C   UNL     1       6.076   3.221  12.578  0.00  0.00    +0.000 C 
ATOM     22  C   UNL     1       7.107   3.248  11.447  0.00  0.00    +0.000 C 
ENDBRANCH  19  21
ENDBRANCH  18  19
ENDBRANCH   1  18
TORSDOF 4
ENDMDL
MODEL 3
REMARK VINA RESULT:      -7.4      0.890      1.171
REMARK  Name = 
REMARK  6 active torsions:
REMARK  status: ('A' for Active; 'I' for Inactive)
REMARK    1  A    between atoms: C_1  and  C_2
REMARK    2  A    between atoms: C_2  and  C_3
REMARK    3  A    between atoms: C_2  and  C_4
REMARK    4  A    between atoms: C_4  and  C_5
REMARK    5  A    between atoms: C_5  and  N_6
REMARK    6  A    between atoms: C_12  and  C_13
REMARK                            x       y       z     vdW  Elec       q    Type
REMARK                         _______ _______ _______ _____ _____    ______ ____
ROOT
ATOM      1  N   UNL     1       5.250   4.957  14.893  0.00  0.00    +0.000 NA
ATOM      2  C   UNL     1       6.062   6.149  15.275  0.00  0.00    +0.000 C 
ATOM      3  C   UNL     1       7.011   5.949  16.491  0.00  0.00    +0.000 C 
ATOM      4  C   UNL     1       6.328   5.090  17.486  0.00  0.00    +0.000 A 
ATOM      5  N   UNL     1       6.791   4.696  18.692  0.00  0.00    +0.000 N 
ATOM      6  N   UNL     1       5.947   3.874  19.330  0.00  0.00    +0.000 NA
ATOM      7  C   UNL     1       4.917   3.679  18.476  0.00  0.00    +0.000 A 
ATOM      8  C   UNL     1       5.133   4.433  17.284  0.00  0.00    +0.000 A 
ATOM      9  C   UNL     1       4.351   4.566  16.020  0.00  0.00    +0.000 C 
ATOM     10  H   UNL     1       7.674   4.924  19.140  0.00  0.00    +0.000 HD
ENDROOT
BRANCH   7  11
ATOM     11  C   UNL     1       3.788   2.747  18.747  0.00  0.00    +0.000 C 
ATOM     12  O   UNL     1       3.827   1.584  18.343  0.00  0.00    +0.000 OA
ATOM     13  N   UNL     1       2.703   3.202  19.483  0.00  0.00    +0.000 N 
ATOM     14  C   UNL     1       1.680   2.273  19.921  0.00  0.00    +0.000 C 
ATOM     15  C   UNL     1       0.703   3.169  20.603  0.00  0.00    +0.000 C 
ATOM     16  C   UNL     1       1.069   4.451  20.500  0.00  0.00    +0.000 C 
ATOM     17  C   UNL     1       2.361   4.586  19.769  0.00  0.00    +0.000 C 
ENDBRANCH   7  11
BRANCH   1  18
ATOM     18  C   UNL     1       6.124   3.859  14.433  0.00  0.00    +0.000 C 
BRANCH  18  19
ATOM     19  C   UNL     1       6.318   3.742  12.914  0.00  0.00    +0.000 C 
BRANCH  19  21
ATOM     20  C   UNL     1       4.311   3.337  11.405  0.00  0.00    +0.000 C 
ATOM     21  C   UNL     1       5.436   2.693  12.214  0.00  0.00    +0.000 C 
ATOM     22  C   UNL     1       6.305   1.831  11.295  0.00  0.00    +0.000 C 
ENDBRANCH  19  21
ENDBRANCH  18  19
ENDBRANCH   1  18
TORSDOF 4
ENDMDL
MODEL 4
REMARK VINA RESULT:      -7.1      1.432      1.913
REMARK  Name = 
REMARK  6 active torsions:
REMARK  status: ('A' for Active; 'I' for Inactive)
REMARK    1  A    between atoms: C_1  and  C_2
REMARK    2  A    between atoms: C_2  and  C_3
REMARK    3  A    between atoms: C_2  and  C_4
REMARK    4  A    between atoms: C_4  and  C_5
REMARK    5  A    between atoms: C_5  and  N_6
REMARK    6  A    between atoms: C_12  and  C_13
REMARK                            x       y       z     vdW  Elec       q    Type
REMARK                         _______ _______ _______ _____ _____    ______ ____
ROOT
ATOM      1  N   UNL     1       5.584   5.501  14.790  0.00  0.00    +0.000 NA
ATOM      2  C   UNL     1       7.053   5.726  14.934  0.00  0.00    +0.000 C 
ATOM      3  C   UNL     1       7.751   4.888  16.042  0.00  0.00    +0.000 C 
ATOM      4  C   UNL     1       6.836   4.784  17.202  0.00  0.00    +0.000 A 
ATOM      5  N   UNL     1       7.066   4.165  18.382  0.00  0.00    +0.000 N 
ATOM      6  N   UNL     1       6.010   4.208  19.205  0.00  0.00    +0.000 NA
ATOM      7  C   UNL     1       5.032   4.831  18.508  0.00  0.00    +0.000 A 
ATOM      8  C   UNL     1       5.524   5.203  17.221  0.00  0.00    +0.000 A 
ATOM      9  C   UNL     1       4.882   5.876  16.054  0.00  0.00    +0.000 C 
ATOM     10  H   UNL     1       7.900   3.677  18.691  0.00  0.00    +0.000 HD
ENDROOT
BRANCH   7  11
ATOM     11  C   UNL     1       3.644   5.009  19.016  0.00  0.00    +0.000 C 
ATOM     12  O   UNL     1       3.284   6.091  19.484  0.00  0.00    +0.000 OA
ATOM     13  N   UNL     1       2.756   3.947  18.932  0.00  0.00    +0.000 N 
ATOM     14  C   UNL     1       1.354   4.143  19.244  0.00  0.00    +0.000 C 
ATOM     15  C   UNL     1       0.794   2.770  19.089  0.00  0.00    +0.000 C 
ATOM     16  C   UNL     1       1.756   1.885  18.808  0.00  0.00    +0.000 C 
ATOM     17  C   UNL     1       3.086   2.550  18.698  0.00  0.00    +0.000 C 
ENDBRANCH   7  11
BRANCH   1  18
ATOM     18  C   UNL     1       5.312   4.117  14.356  0.00  0.00    +0.000 C 
BRANCH  18  19
ATOM     19  C   UNL     1       6.015   3.662  13.068  0.00  0.00    +0.000 C 
BRANCH  19  21
ATOM     20  C   UNL     1       4.200   3.430  11.300  0.00  0.00    +0.000 C 
ATOM     21  C   UNL     1       5.210   2.695  12.181  0.00  0.00    +0.000 C 
ATOM     22  C   UNL     1       6.172   1.890  11.304  0.00  0.00    +0.000 C 
ENDBRANCH  19  21
ENDBRANCH  18  19
ENDBRANCH   1  18
TORSDOF 4
ENDMDL
MODEL 5
REMARK VINA RESULT:      -7.0      1.953      3.398
REMARK  Name = 
REMARK  6 active torsions:
REMARK  status: ('A' for Active; 'I' for Inactive)
REMARK    1  A    between atoms: C_1  and  C_2
REMARK    2  A    between atoms: C_2  and  C_3
REMARK    3  A    between atoms: C_2  and  C_4
REMARK    4  A    between atoms: C_4  and  C_5
REMARK    5  A    between atoms: C_5  and  N_6
REMARK    6  A    between atoms: C_12  and  C_13
REMARK                            x       y       z     vdW  Elec       q    Type
REMARK                         _______ _______ _______ _____ _____    ______ ____
ROOT
ATOM      1  N   UNL     1       6.272   4.347  15.452  0.00  0.00    +0.000 NA
ATOM      2  C   UNL     1       5.573   5.378  14.630  0.00  0.00    +0.000 C 
ATOM      3  C   UNL     1       5.037   6.608  15.416  0.00  0.00    +0.000 C 
ATOM      4  C   UNL     1       4.527   6.144  16.727  0.00  0.00    +0.000 A 
ATOM      5  N   UNL     1       3.954   6.887  17.699  0.00  0.00    +0.000 N 
ATOM      6  N   UNL     1       3.650   6.171  18.789  0.00  0.00    +0.000 NA
ATOM      7  C   UNL     1       4.097   4.920  18.538  0.00  0.00    +0.000 A 
ATOM      8  C   UNL     1       4.672   4.870  17.232  0.00  0.00    +0.000 A 
ATOM      9  C   UNL     1       5.333   3.775  16.464  0.00  0.00    +0.000 C 
ATOM     10  H   UNL     1       3.757   7.884  17.705  0.00  0.00    +0.000 HD
ENDROOT
BRANCH   7  11
ATOM     11  C   UNL     1       4.048   3.813  19.531  0.00  0.00    +0.000 C 
ATOM     12  O   UNL     1       5.069   3.186  19.819  0.00  0.00    +0.000 OA
ATOM     13  N   UNL     1       2.841   3.514  20.147  0.00  0.00    +0.000 N 
ATOM     14  C   UNL     1       2.798   2.572  21.247  0.00  0.00    +0.000 C 
ATOM     15  C   UNL     1       1.340   2.503  21.555  0.00  0.00    +0.000 C 
ATOM     16  C   UNL     1       0.629   3.240  20.695  0.00  0.00    +0.000 C 
ATOM     17  C   UNL     1       1.516   3.934  19.718  0.00  0.00    +0.000 C 
ENDBRANCH   7  11
BRANCH   1  18
ATOM     18  C   UNL     1       7.504   4.903  16.044  0.00  0.00    +0.000 C 
BRANCH  18  19
ATOM     19  C   UNL     1       7.739   4.594  17.530  0.00  0.00    +0.000 C 
BRANCH  19  21
ATOM     20  C   UNL     1       7.667   7.127  17.758  0.00  0.00    +0.000 C 
ATOM     21  C   UNL     1       8.081   5.808  18.411  0.00  0.00    +0.000 C 
ATOM     22  C   UNL     1       7.387   5.663  19.769  0.00  0.00    +0.000 C 
ENDBRANCH  19  21
ENDBRANCH  18  19
ENDBRANCH   1  18
TORSDOF 4
ENDMDL
MODEL 6
REMARK VINA RESULT:      -7.0      2.466      6.730
REMARK  Name = 
REMARK  6 active torsions:
REMARK  status: ('A' for Active; 'I' for Inactive)
REMARK    1  A    between atoms: C_1  and  C_2
REMARK    2  A    between atoms: C_2  and  C_3
REMARK    3  A    between atoms: C_2  and  C_4
REMARK    4  A    between atoms: C_4  and  C_5
REMARK    5  A    between atoms: C_5  and  N_6
REMARK    6  A    between atoms: C_12  and  C_13
REMARK                            x       y       z     vdW  Elec       q    Type
REMARK                         _______ _______ _______ _____ _____    ______ ____
ROOT
ATOM      1  N   UNL     1       1.114   4.692  19.944  0.00  0.00    +0.000 NA
ATOM      2  C   UNL     1       0.831   3.388  20.614  0.00  0.00    +0.000 C 
ATOM      3  C   UNL     1       2.069   2.667  21.219  0.00  0.00    +0.000 C 
ATOM      4  C   UNL     1       3.224   2.873  20.314  0.00  0.00    +0.000 A 
ATOM      5  N   UNL     1       4.479   2.392  20.455  0.00  0.00    +0.000 N 
ATOM      6  N   UNL     1       5.306   2.806  19.486  0.00  0.00    +0.000 NA
ATOM      7  C   UNL     1       4.572   3.640  18.714  0.00  0.00    +0.000 A 
ATOM      8  C   UNL     1       3.239   3.712  19.221  0.00  0.00    +0.000 A 
ATOM      9  C   UNL     1       2.039   4.486  18.790  0.00  0.00    +0.000 C 
ATOM     10  H   UNL     1       4.853   1.798  21.189  0.00  0.00    +0.000 HD
ENDROOT
BRANCH   7  11
ATOM     11  C   UNL     1       5.130   4.405  17.567  0.00  0.00    +0.000 C 
ATOM     12  O   UNL     1       4.719   4.206  16.423  0.00  0.00    +0.000 OA
ATOM     13  N   UNL     1       6.102   5.366  17.808  0.00  0.00    +0.000 N 
ATOM     14  C   UNL     1       6.529   6.253  16.745  0.00  0.00    +0.000 C 
ATOM     15  C   UNL     1       7.598   7.056  17.406  0.00  0.00    +0.000 C 
ATOM     16  C   UNL     1       7.817   6.633  18.655  0.00  0.00    +0.000 C 
ATOM     17  C   UNL     1       6.898   5.516  19.015  0.00  0.00    +0.000 C 
ENDBRANCH   7  11
BRANCH   1  18
ATOM     18  C   UNL     1       1.607   5.681  20.922  0.00  0.00    +0.000 C 
BRANCH  18  19
ATOM     19  C   UNL     1       1.989   7.058  20.356  0.00  0.00    +0.000 C 
BRANCH  19  21
ATOM     20  C   UNL     1       1.303   8.815  22.063  0.00  0.00    +0.000 C 
ATOM     21  C   UNL     1       1.017   8.203  20.692  0.00  0.00    +0.000 C 
ATOM     22  C   UNL     1       1.115   9.285  19.613  0.00  0.00    +0.000 C 
ENDBRANCH  19  21
ENDBRANCH  18  19
ENDBRANCH   1  18
TORSDOF 4
ENDMDL
MODEL 7
REMARK VINA RESULT:      -6.9      2.545      6.829
REMARK  Name = 
REMARK  6 active torsions:
REMARK  status: ('A' for Active; 'I' for Inactive)
REMARK    1  A    between atoms: C_1  and  C_2
REMARK    2  A    between atoms: C_2  and  C_3
REMARK    3  A    between atoms: C_2  and  C_4
REMARK    4  A    between atoms: C_4  and  C_5
REMARK    5  A    between atoms: C_5  and  N_6
REMARK    6  A    between atoms: C_12  and  C_13
REMARK                            x       y       z     vdW  Elec       q    Type
REMARK                         _______ _______ _______ _____ _____    ______ ____
ROOT
ATOM      1  N   UNL     1       1.365   5.211  19.530  0.00  0.00    +0.000 NA
ATOM      2  C   UNL     1       0.676   3.903  19.736  0.00  0.00    +0.000 C 
ATOM      3  C   UNL     1       1.489   2.837  20.524  0.00  0.00    +0.000 C 
ATOM      4  C   UNL     1       2.913   2.942  20.129  0.00  0.00    +0.000 A 
ATOM      5  N   UNL     1       3.946   2.185  20.557  0.00  0.00    +0.000 N 
ATOM      6  N   UNL     1       5.122   2.572  20.045  0.00  0.00    +0.000 NA
ATOM      7  C   UNL     1       4.849   3.666  19.297  0.00  0.00    +0.000 A 
ATOM      8  C   UNL     1       3.448   3.936  19.337  0.00  0.00    +0.000 A 
ATOM      9  C   UNL     1       2.612   5.014  18.732  0.00  0.00    +0.000 C 
ATOM     10  H   UNL     1       3.937   1.405  21.209  0.00  0.00    +0.000 HD
ENDROOT
BRANCH   7  11
ATOM     11  C   UNL     1       5.893   4.480  18.617  0.00  0.00    +0.000 C 
ATOM     12  O   UNL     1       6.631   5.220  19.269  0.00  0.00    +0.000 OA
ATOM     13  N   UNL     1       6.039   4.373  17.241  0.00  0.00    +0.000 N 
ATOM     14  C   UNL     1       7.160   5.006  16.577  0.00  0.00    +0.000 C 
ATOM     15  C   UNL     1       6.899   4.700  15.141  0.00  0.00    +0.000 C 
ATOM     16  C   UNL     1       5.740   4.050  14.989  0.00  0.00    +0.000 C 
ATOM     17  C   UNL     1       5.086   3.799  16.305  0.00  0.00    +0.000 C 
ENDBRANCH   7  11
BRANCH   1  18
ATOM     18  C   UNL     1       1.597   5.885  20.823  0.00  0.00    +0.000 C 
BRANCH  18  19
ATOM     19  C   UNL     1       1.990   7.368  20.750  0.00  0.00    +0.000 C 
BRANCH  19  21
ATOM     20  C   UNL     1       1.089   9.101  22.381  0.00  0.00    +0.000 C 
ATOM     21  C   UNL     1       0.860   8.367  21.059  0.00  0.00    +0.000 C 
ATOM     22  C   UNL     1       0.752   9.381  19.917  0.00  0.00    +0.000 C 
ENDBRANCH  19  21
ENDBRANCH  18  19
ENDBRANCH   1  18
TORSDOF 4
ENDMDL
MODEL 8
REMARK VINA RESULT:      -6.8      1.911      6.272
REMARK  Name = 
REMARK  6 active torsions:
REMARK  status: ('A' for Active; 'I' for Inactive)
REMARK    1  A    between atoms: C_1  and  C_2
REMARK    2  A    between atoms: C_2  and  C_3
REMARK    3  A    between atoms: C_2  and  C_4
REMARK    4  A    between atoms: C_4  and  C_5
REMARK    5  A    between atoms: C_5  and  N_6
REMARK    6  A    between atoms: C_12  and  C_13
REMARK                            x       y       z     vdW  Elec       q    Type
REMARK                         _______ _______ _______ _____ _____    ______ ____
ROOT
ATOM      1  N   UNL     1       4.925   3.545  18.538  0.00  0.00    +0.000 NA
ATOM      2  C   UNL     1       4.533   4.698  19.401  0.00  0.00    +0.000 C 
ATOM      3  C   UNL     1       3.894   5.903  18.655  0.00  0.00    +0.000 C 
ATOM      4  C   UNL     1       4.581   6.071  17.353  0.00  0.00    +0.000 A 
ATOM      5  N   UNL     1       4.352   7.014  16.413  0.00  0.00    +0.000 N 
ATOM      6  N   UNL     1       5.111   6.856  15.322  0.00  0.00    +0.000 NA
ATOM      7  C   UNL     1       5.825   5.727  15.536  0.00  0.00    +0.000 A 
ATOM      8  C   UNL     1       5.503   5.194  16.821  0.00  0.00    +0.000 A 
ATOM      9  C   UNL     1       5.958   3.974  17.548  0.00  0.00    +0.000 C 
ATOM     10  H   UNL     1       3.685   7.780  16.431  0.00  0.00    +0.000 HD
ENDROOT
BRANCH   7  11
ATOM     11  C   UNL     1       6.736   5.124  14.526  0.00  0.00    +0.000 C 
ATOM     12  O   UNL     1       7.945   5.360  14.556  0.00  0.00    +0.000 OA
ATOM     13  N   UNL     1       6.208   4.273  13.567  0.00  0.00    +0.000 N 
ATOM     14  C   UNL     1       7.089   3.527  12.690  0.00  0.00    +0.000 C 
ATOM     15  C   UNL     1       6.129   2.811  11.802  0.00  0.00    +0.000 C 
ATOM     16  C   UNL     1       4.867   3.160  12.073  0.00  0.00    +0.000 C 
ATOM     17  C   UNL     1       4.807   4.128  13.206  0.00  0.00    +0.000 C 
ENDBRANCH   7  11
BRANCH   1  18
ATOM     18  C   UNL     1       3.735   2.934  17.916  0.00  0.00    +0.000 C 
BRANCH  18  19
ATOM     19  C   UNL     1       2.827   2.120  18.850  0.00  0.00    +0.000 C 
BRANCH  19  21
ATOM     20  C   UNL     1       1.161   3.195  20.444  0.00  0.00    +0.000 C 
ATOM     21  C   UNL     1       1.400   2.668  19.029  0.00  0.00    +0.000 C 
ATOM     22  C   UNL     1       1.154   3.786  18.013  0.00  0.00    +0.000 C 
ENDBRANCH  19  21
ENDBRANCH  18  19
ENDBRANCH   1  18
TORSDOF 4
ENDMDL
MODEL 9
REMARK VINA RESULT:      -6.8      1.515      1.887
REMARK  Name = 
REMARK  6 active torsions:
REMARK  status: ('A' for Active; 'I' for Inactive)
REMARK    1  A    between atoms: C_1  and  C_2
REMARK    2  A    between atoms: C_2  and  C_3
REMARK    3  A    between atoms: C_2  and  C_4
REMARK    4  A    between atoms: C_4  and  C_5
REMARK    5  A    between atoms: C_5  and  N_6
REMARK    6  A    between atoms: C_12  and  C_13
REMARK                            x       y       z     vdW  Elec       q    Type
REMARK                         _______ _______ _______ _____ _____    ______ ____
ROOT
ATOM      1  N   UNL     1       5.580   5.662  14.937  0.00  0.00    +0.000 NA
ATOM      2  C   UNL     1       7.065   5.704  15.084  0.00  0.00    +0.000 C 
ATOM      3  C   UNL     1       7.651   4.794  16.200  0.00  0.00    +0.000 C 
ATOM      4  C   UNL     1       6.728   4.813  17.358  0.00  0.00    +0.000 A 
ATOM      5  N   UNL     1       6.875   4.179  18.542  0.00  0.00    +0.000 N 
ATOM      6  N   UNL     1       5.831   4.359  19.362  0.00  0.00    +0.000 NA
ATOM      7  C   UNL     1       4.940   5.094  18.658  0.00  0.00    +0.000 A 
ATOM      8  C   UNL     1       5.477   5.393  17.369  0.00  0.00    +0.000 A 
ATOM      9  C   UNL     1       4.927   6.131  16.196  0.00  0.00    +0.000 C 
ATOM     10  H   UNL     1       7.642   3.593  18.858  0.00  0.00    +0.000 HD
ENDROOT
BRANCH   7  11
ATOM     11  C   UNL     1       3.584   5.447  19.160  0.00  0.00    +0.000 C 
ATOM     12  O   UNL     1       3.172   6.606  19.085  0.00  0.00    +0.000 OA
ATOM     13  N   UNL     1       2.782   4.447  19.690  0.00  0.00    +0.000 N 
ATOM     14  C   UNL     1       1.396   4.721  20.014  0.00  0.00    +0.000 C 
ATOM     15  C   UNL     1       0.940   3.426  20.598  0.00  0.00    +0.000 C 
ATOM     16  C   UNL     1       1.948   2.551  20.678  0.00  0.00    +0.000 C 
ATOM     17  C   UNL     1       3.207   3.125  20.123  0.00  0.00    +0.000 C 
ENDBRANCH   7  11
BRANCH   1  18
ATOM     18  C   UNL     1       5.139   4.320  14.511  0.00  0.00    +0.000 C 
BRANCH  18  19
ATOM     19  C   UNL     1       6.163   3.490  13.722  0.00  0.00    +0.000 C 
BRANCH  19  21
ATOM     20  C   UNL     1       6.834   2.438  11.505  0.00  0.00    +0.000 C 
ATOM     21  C   UNL     1       6.000   3.519  12.192  0.00  0.00    +0.000 C 
ATOM     22  C   UNL     1       4.522   3.337  11.835  0.00  0.00    +0.000 C 
ENDBRANCH  19  21
ENDBRANCH  18  19
ENDBRANCH   1  18
TORSDOF 4
ENDMDL
