MODEL 1
REMARK VINA RESULT:      -8.0      0.000      0.000
REMARK  Name = 
REMARK  11 active torsions:
REMARK  status: ('A' for Active; 'I' for Inactive)
REMARK    1  A    between atoms: C_1  and  C_2
REMARK    2  A    between atoms: C_2  and  O_3
REMARK    3  A    between atoms: O_3  and  C_4
REMARK    4  A    between atoms: C_4  and  C_6
REMARK    5  A    between atoms: N_10  and  C_11
REMARK    6  A    between atoms: C_11  and  C_12
REMARK    7  A    between atoms: C_15  and  C_16
REMARK    8  A    between atoms: C_19  and  C_20
REMARK    9  A    between atoms: C_20  and  C_21
REMARK   10  A    between atoms: C_20  and  C_22
REMARK   11  A    between atoms: C_20  and  C_23
REMARK                            x       y       z     vdW  Elec       q    Type
REMARK                         _______ _______ _______ _____ _____    ______ ____
ROOT
ATOM      1  C   UNL     1       6.978   6.812  17.295  0.00  0.00    +0.000 A 
ATOM      2  C   UNL     1       7.774   6.384  18.332  0.00  0.00    +0.000 A 
ATOM      3  O   UNL     1       8.441   7.461  18.830  0.00  0.00    +0.000 OA
ATOM      4  C   UNL     1       8.007   8.512  18.062  0.00  0.00    +0.000 A 
ATOM      5  N   UNL     1       7.132   8.175  17.135  0.00  0.00    +0.000 NA
ENDROOT
BRANCH   4   6
ATOM      6  C   UNL     1       8.589   9.822  18.334  0.00  0.00    +0.000 A 
ATOM      7  C   UNL     1       9.575  10.008  19.305  0.00  0.00    +0.000 A 
ATOM      8  C   UNL     1      10.177  11.259  19.490  0.00  0.00    +0.000 A 
ATOM      9  C   UNL     1       9.814  12.372  18.712  0.00  0.00    +0.000 A 
ATOM     10  C   UNL     1       8.792  12.184  17.763  0.00  0.00    +0.000 A 
ATOM     11  C   UNL     1       8.194  10.930  17.576  0.00  0.00    +0.000 A 
BRANCH   9  12
ATOM     12  C   UNL     1      10.500  13.741  18.855  0.00  0.00    +0.000 C 
ATOM     13  C   UNL     1      10.794  14.422  17.498  0.00  0.00    +0.000 C 
ATOM     14  C   UNL     1       9.590  14.697  19.656  0.00  0.00    +0.000 C 
ATOM     15  C   UNL     1      11.845  13.593  19.596  0.00  0.00    +0.000 C 
ENDBRANCH   9  12
ENDBRANCH   4   6
BRANCH   1  16
ATOM     16  C   UNL     1       6.055   6.048  16.412  0.00  0.00    +0.000 C 
BRANCH  16  21
ATOM     17  C   UNL     1       2.807   5.566  18.353  0.00  0.00    +0.000 C 
ATOM     18  C   UNL     1       2.289   4.322  17.629  0.00  0.00    +0.000 C 
ATOM     19  C   UNL     1       3.433   3.425  17.164  0.00  0.00    +0.000 C 
ATOM     20  C   UNL     1       4.497   4.212  16.401  0.00  0.00    +0.000 C 
ATOM     21  N   UNL     1       5.001   5.355  17.184  0.00  0.00    +0.000 NA
ATOM     22  C   UNL     1       3.888   6.265  17.526  0.00  0.00    +0.000 C 
BRANCH  17  23
ATOM     23  C   UNL     1       3.278   5.258  19.766  0.00  0.00    +0.000 C 
ATOM     24  O   UNL     1       4.435   5.013  20.083  0.00  0.00    +0.000 OA
BRANCH  23  25
ATOM     25  O   UNL     1       2.202   5.123  20.595  0.00  0.00    +0.000 OA
BRANCH  25  27
ATOM     26  C   UNL     1       1.192   2.977  20.847  0.00  0.00    +0.000 C 
ATOM     27  C   UNL     1       2.202   3.953  21.422  0.00  0.00    +0.000 C 
ENDBRANCH  25  27
ENDBRANCH  23  25
ENDBRANCH  17  23
ENDBRANCH  16  21
ENDBRANCH   1  16
TORSDOF 7
ENDMDL
MODEL 2
REMARK VINA RESULT:      -7.7      0.569      1.182
REMARK  Name = 
REMARK  11 active torsions:
REMARK  status: ('A' for Active; 'I' for Inactive)
REMARK    1  A    between atoms: C_1  and  C_2
REMARK    2  A    between atoms: C_2  and  O_3
REMARK    3  A    between atoms: O_3  and  C_4
REMARK    4  A    between atoms: C_4  and  C_6
REMARK    5  A    between atoms: N_10  and  C_11
REMARK    6  A    between atoms: C_11  and  C_12
REMARK    7  A    between atoms: C_15  and  C_16
REMARK    8  A    between atoms: C_19  and  C_20
REMARK    9  A    between atoms: C_20  and  C_21
REMARK   10  A    between atoms: C_20  and  C_22
REMARK   11  A    between atoms: C_20  and  C_23
REMARK                            x       y       z     vdW  Elec       q    Type
REMARK                         _______ _______ _______ _____ _____    ______ ____
ROOT
ATOM      1  C   UNL     1       7.048   6.451  17.290  0.00  0.00    +0.000 A 
ATOM      2  C   UNL     1       7.798   6.082  18.383  0.00  0.00    +0.000 A 
ATOM      3  O   UNL     1       8.422   7.191  18.865  0.00  0.00    +0.000 OA
ATOM      4  C   UNL     1       8.011   8.200  18.031  0.00  0.00    +0.000 A 
ATOM      5  N   UNL     1       7.188   7.807  17.078  0.00  0.00    +0.000 NA
ENDROOT
BRANCH   4   6
ATOM      6  C   UNL     1       8.558   9.531  18.274  0.00  0.00    +0.000 A 
ATOM      7  C   UNL     1       8.210  10.631  17.488  0.00  0.00    +0.000 A 
ATOM      8  C   UNL     1       8.684  11.913  17.793  0.00  0.00    +0.000 A 
ATOM      9  C   UNL     1       9.527  12.143  18.894  0.00  0.00    +0.000 A 
ATOM     10  C   UNL     1       9.904  11.021  19.656  0.00  0.00    +0.000 A 
ATOM     11  C   UNL     1       9.424   9.740  19.354  0.00  0.00    +0.000 A 
BRANCH   9  12
ATOM     12  C   UNL     1      10.015  13.548  19.285  0.00  0.00    +0.000 C 
ATOM     13  C   UNL     1       8.955  14.649  19.054  0.00  0.00    +0.000 C 
ATOM     14  C   UNL     1      10.379  13.573  20.785  0.00  0.00    +0.000 C 
ATOM     15  C   UNL     1      11.262  13.931  18.461  0.00  0.00    +0.000 C 
ENDBRANCH   9  12
ENDBRANCH   4   6
BRANCH   1  16
ATOM     16  C   UNL     1       6.182   5.633  16.397  0.00  0.00    +0.000 C 
BRANCH  16  21
ATOM     17  C   UNL     1       2.763   5.482  18.081  0.00  0.00    +0.000 C 
ATOM     18  C   UNL     1       2.229   4.218  17.404  0.00  0.00    +0.000 C 
ATOM     19  C   UNL     1       3.348   3.226  17.102  0.00  0.00    +0.000 C 
ATOM     20  C   UNL     1       4.519   3.892  16.381  0.00  0.00    +0.000 C 
ATOM     21  N   UNL     1       5.027   5.060  17.123  0.00  0.00    +0.000 NA
ATOM     22  C   UNL     1       3.950   6.054  17.304  0.00  0.00    +0.000 C 
BRANCH  17  23
ATOM     23  C   UNL     1       3.097   5.254  19.548  0.00  0.00    +0.000 C 
ATOM     24  O   UNL     1       4.184   5.482  20.064  0.00  0.00    +0.000 OA
BRANCH  23  25
ATOM     25  O   UNL     1       2.070   4.598  20.161  0.00  0.00    +0.000 OA
BRANCH  25  27
ATOM     26  C   UNL     1       1.586   2.774  21.620  0.00  0.00    +0.000 C 
ATOM     27  C   UNL     1       2.362   4.069  21.460  0.00  0.00    +0.000 C 
ENDBRANCH  25  27
ENDBRANCH  23  25
ENDBRANCH  17  23
ENDBRANCH  16  21
ENDBRANCH   1  16
TORSDOF 7
ENDMDL
MODEL 3
REMARK VINA RESULT:      -7.7      3.924      7.400
REMARK  Name = 
REMARK  11 active torsions:
REMARK  status: ('A' for Active; 'I' for Inactive)
REMARK    1  A    between atoms: C_1  and  C_2
REMARK    2  A    between atoms: C_2  and  O_3
REMARK    3  A    between atoms: O_3  and  C_4
REMARK    4  A    between atoms: C_4  and  C_6
REMARK    5  A    between atoms: N_10  and  C_11
REMARK    6  A    between atoms: C_11  and  C_12
REMARK    7  A    between atoms: C_15  and  C_16
REMARK    8  A    between atoms: C_19  and  C_20
REMARK    9  A    between atoms: C_20  and  C_21
REMARK   10  A    between atoms: C_20  and  C_22
REMARK   11  A    between atoms: C_20  and  C_23
REMARK                            x       y       z     vdW  Elec       q    Type
REMARK                         _______ _______ _______ _____ _____    ______ ____
ROOT
ATOM      1  C   UNL     1       3.217   4.877  19.761  0.00  0.00    +0.000 A 
ATOM      2  C   UNL     1       2.241   4.690  20.712  0.00  0.00    +0.000 A 
ATOM      3  O   UNL     1       1.564   5.861  20.863  0.00  0.00    +0.000 OA
ATOM      4  C   UNL     1       2.168   6.718  19.977  0.00  0.00    +0.000 A 
ATOM      5  N   UNL     1       3.158   6.175  19.295  0.00  0.00    +0.000 NA
ENDROOT
BRANCH   4   6
ATOM      6  C   UNL     1       1.680   8.092  19.941  0.00  0.00    +0.000 A 
ATOM      7  C   UNL     1       1.671   8.845  18.765  0.00  0.00    +0.000 A 
ATOM      8  C   UNL     1       1.120  10.133  18.738  0.00  0.00    +0.000 A 
ATOM      9  C   UNL     1       0.559  10.716  19.887  0.00  0.00    +0.000 A 
ATOM     10  C   UNL     1       0.608   9.965  21.076  0.00  0.00    +0.000 A 
ATOM     11  C   UNL     1       1.154   8.675  21.100  0.00  0.00    +0.000 A 
BRANCH   9  12
ATOM     12  C   UNL     1      -0.104  12.105  19.871  0.00  0.00    +0.000 C 
ATOM     13  C   UNL     1      -1.643  12.045  19.742  0.00  0.00    +0.000 C 
ATOM     14  C   UNL     1       0.214  12.847  21.187  0.00  0.00    +0.000 C 
ATOM     15  C   UNL     1       0.425  12.938  18.686  0.00  0.00    +0.000 C 
ENDBRANCH   9  12
ENDBRANCH   4   6
BRANCH   1  16
ATOM     16  C   UNL     1       4.232   3.929  19.224  0.00  0.00    +0.000 C 
BRANCH  16  21
ATOM     17  C   UNL     1       7.297   5.277  17.398  0.00  0.00    +0.000 C 
ATOM     18  C   UNL     1       7.116   4.540  16.070  0.00  0.00    +0.000 C 
ATOM     19  C   UNL     1       5.641   4.338  15.736  0.00  0.00    +0.000 C 
ATOM     20  C   UNL     1       4.870   3.738  16.910  0.00  0.00    +0.000 C 
ATOM     21  N   UNL     1       5.034   4.535  18.139  0.00  0.00    +0.000 NA
ATOM     22  C   UNL     1       6.463   4.622  18.501  0.00  0.00    +0.000 C 
BRANCH  17  23
ATOM     23  C   UNL     1       7.014   6.767  17.276  0.00  0.00    +0.000 C 
ATOM     24  O   UNL     1       6.177   7.264  16.534  0.00  0.00    +0.000 OA
BRANCH  23  25
ATOM     25  O   UNL     1       7.943   7.475  17.982  0.00  0.00    +0.000 OA
BRANCH  25  27
ATOM     26  C   UNL     1       8.866   9.523  18.783  0.00  0.00    +0.000 C 
ATOM     27  C   UNL     1       7.944   8.890  17.756  0.00  0.00    +0.000 C 
ENDBRANCH  25  27
ENDBRANCH  23  25
ENDBRANCH  17  23
ENDBRANCH  16  21
ENDBRANCH   1  16
TORSDOF 7
ENDMDL
MODEL 4
REMARK VINA RESULT:      -7.7      3.901      7.108
REMARK  Name = 
REMARK  11 active torsions:
REMARK  status: ('A' for Active; 'I' for Inactive)
REMARK    1  A    between atoms: C_1  and  C_2
REMARK    2  A    between atoms: C_2  and  O_3
REMARK    3  A    between atoms: O_3  and  C_4
REMARK    4  A    between atoms: C_4  and  C_6
REMARK    5  A    between atoms: N_10  and  C_11
REMARK    6  A    between atoms: C_11  and  C_12
REMARK    7  A    between atoms: C_15  and  C_16
REMARK    8  A    between atoms: C_19  and  C_20
REMARK    9  A    between atoms: C_20  and  C_21
REMARK   10  A    between atoms: C_20  and  C_22
REMARK   11  A    between atoms: C_20  and  C_23
REMARK                            x       y       z     vdW  Elec       q    Type
REMARK                         _______ _______ _______ _____ _____    ______ ____
ROOT
ATOM      1  C   UNL     1       3.286   4.960  19.750  0.00  0.00    +0.000 A 
ATOM      2  C   UNL     1       2.321   4.816  20.720  0.00  0.00    +0.000 A 
ATOM      3  O   UNL     1       1.618   5.980  20.797  0.00  0.00    +0.000 OA
ATOM      4  C   UNL     1       2.196   6.787  19.849  0.00  0.00    +0.000 A 
ATOM      5  N   UNL     1       3.193   6.222  19.198  0.00  0.00    +0.000 NA
ENDROOT
BRANCH   4   6
ATOM      6  C   UNL     1       1.675   8.144  19.723  0.00  0.00    +0.000 A 
ATOM      7  C   UNL     1       1.114   8.827  20.804  0.00  0.00    +0.000 A 
ATOM      8  C   UNL     1       0.698  10.158  20.677  0.00  0.00    +0.000 A 
ATOM      9  C   UNL     1       0.825  10.856  19.464  0.00  0.00    +0.000 A 
ATOM     10  C   UNL     1       1.355  10.147  18.370  0.00  0.00    +0.000 A 
ATOM     11  C   UNL     1       1.777   8.817  18.499  0.00  0.00    +0.000 A 
BRANCH   9  12
ATOM     12  C   UNL     1       0.429  12.335  19.313  0.00  0.00    +0.000 C 
ATOM     13  C   UNL     1      -0.926  12.535  18.597  0.00  0.00    +0.000 C 
ATOM     14  C   UNL     1       0.308  12.985  20.708  0.00  0.00    +0.000 C 
ATOM     15  C   UNL     1       1.497  13.095  18.499  0.00  0.00    +0.000 C 
ENDBRANCH   9  12
ENDBRANCH   4   6
BRANCH   1  16
ATOM     16  C   UNL     1       4.319   4.001  19.272  0.00  0.00    +0.000 C 
BRANCH  16  21
ATOM     17  C   UNL     1       7.093   5.045  16.871  0.00  0.00    +0.000 C 
ATOM     18  C   UNL     1       6.706   4.169  15.678  0.00  0.00    +0.000 C 
ATOM     19  C   UNL     1       5.195   3.974  15.590  0.00  0.00    +0.000 C 
ATOM     20  C   UNL     1       4.601   3.532  16.927  0.00  0.00    +0.000 C 
ATOM     21  N   UNL     1       4.957   4.458  18.018  0.00  0.00    +0.000 NA
ATOM     22  C   UNL     1       6.425   4.542  18.153  0.00  0.00    +0.000 C 
BRANCH  17  23
ATOM     23  C   UNL     1       6.813   6.519  16.621  0.00  0.00    +0.000 C 
ATOM     24  O   UNL     1       5.780   6.966  16.141  0.00  0.00    +0.000 OA
BRANCH  23  25
ATOM     25  O   UNL     1       7.943   7.250  16.847  0.00  0.00    +0.000 OA
BRANCH  25  27
ATOM     26  C   UNL     1       8.300   9.290  18.032  0.00  0.00    +0.000 C 
ATOM     27  C   UNL     1       8.074   7.795  18.166  0.00  0.00    +0.000 C 
ENDBRANCH  25  27
ENDBRANCH  23  25
ENDBRANCH  17  23
ENDBRANCH  16  21
ENDBRANCH   1  16
TORSDOF 7
ENDMDL
MODEL 5
REMARK VINA RESULT:      -7.7      0.644      1.094
REMARK  Name = 
REMARK  11 active torsions:
REMARK  status: ('A' for Active; 'I' for Inactive)
REMARK    1  A    between atoms: C_1  and  C_2
REMARK    2  A    between atoms: C_2  and  O_3
REMARK    3  A    between atoms: O_3  and  C_4
REMARK    4  A    between atoms: C_4  and  C_6
REMARK    5  A    between atoms: N_10  and  C_11
REMARK    6  A    between atoms: C_11  and  C_12
REMARK    7  A    between atoms: C_15  and  C_16
REMARK    8  A    between atoms: C_19  and  C_20
REMARK    9  A    between atoms: C_20  and  C_21
REMARK   10  A    between atoms: C_20  and  C_22
REMARK   11  A    between atoms: C_20  and  C_23
REMARK                            x       y       z     vdW  Elec       q    Type
REMARK                         _______ _______ _______ _____ _____    ______ ____
ROOT
ATOM      1  C   UNL     1       7.133   6.609  17.363  0.00  0.00    +0.000 A 
ATOM      2  C   UNL     1       7.794   6.258  18.517  0.00  0.00    +0.000 A 
ATOM      3  O   UNL     1       8.388   7.374  19.023  0.00  0.00    +0.000 OA
ATOM      4  C   UNL     1       8.049   8.368  18.140  0.00  0.00    +0.000 A 
ATOM      5  N   UNL     1       7.299   7.960  17.135  0.00  0.00    +0.000 NA
ENDROOT
BRANCH   4   6
ATOM      6  C   UNL     1       8.586   9.700  18.396  0.00  0.00    +0.000 A 
ATOM      7  C   UNL     1       9.441   9.961  19.469  0.00  0.00    +0.000 A 
ATOM      8  C   UNL     1      10.009  11.229  19.646  0.00  0.00    +0.000 A 
ATOM      9  C   UNL     1       9.742  12.284  18.757  0.00  0.00    +0.000 A 
ATOM     10  C   UNL     1       8.849  12.022  17.701  0.00  0.00    +0.000 A 
ATOM     11  C   UNL     1       8.285  10.751  17.523  0.00  0.00    +0.000 A 
BRANCH   9  12
ATOM     12  C   UNL     1      10.398  13.669  18.894  0.00  0.00    +0.000 C 
ATOM     13  C   UNL     1      11.057  13.898  20.274  0.00  0.00    +0.000 C 
ATOM     14  C   UNL     1      11.504  13.828  17.829  0.00  0.00    +0.000 C 
ATOM     15  C   UNL     1       9.348  14.782  18.695  0.00  0.00    +0.000 C 
ENDBRANCH   9  12
ENDBRANCH   4   6
BRANCH   1  16
ATOM     16  C   UNL     1       6.332   5.777  16.423  0.00  0.00    +0.000 C 
BRANCH  16  21
ATOM     17  C   UNL     1       2.868   5.048  17.844  0.00  0.00    +0.000 C 
ATOM     18  C   UNL     1       2.681   3.638  17.282  0.00  0.00    +0.000 C 
ATOM     19  C   UNL     1       4.007   2.890  17.186  0.00  0.00    +0.000 C 
ATOM     20  C   UNL     1       5.079   3.722  16.484  0.00  0.00    +0.000 C 
ATOM     21  N   UNL     1       5.255   5.040  17.120  0.00  0.00    +0.000 NA
ATOM     22  C   UNL     1       3.981   5.787  17.099  0.00  0.00    +0.000 C 
BRANCH  17  23
ATOM     23  C   UNL     1       3.093   5.046  19.349  0.00  0.00    +0.000 C 
ATOM     24  O   UNL     1       3.789   5.849  19.957  0.00  0.00    +0.000 OA
BRANCH  23  25
ATOM     25  O   UNL     1       2.552   3.919  19.897  0.00  0.00    +0.000 OA
BRANCH  25  27
ATOM     26  C   UNL     1       1.526   2.712  21.680  0.00  0.00    +0.000 C 
ATOM     27  C   UNL     1       2.198   4.013  21.282  0.00  0.00    +0.000 C 
ENDBRANCH  25  27
ENDBRANCH  23  25
ENDBRANCH  17  23
ENDBRANCH  16  21
ENDBRANCH   1  16
TORSDOF 7
ENDMDL
MODEL 6
REMARK VINA RESULT:      -7.6      1.396      1.934
REMARK  Name = 
REMARK  11 active torsions:
REMARK  status: ('A' for Active; 'I' for Inactive)
REMARK    1  A    between atoms: C_1  and  C_2
REMARK    2  A    between atoms: C_2  and  O_3
REMARK    3  A    between atoms: O_3  and  C_4
REMARK    4  A    between atoms: C_4  and  C_6
REMARK    5  A    between atoms: N_10  and  C_11
REMARK    6  A    between atoms: C_11  and  C_12
REMARK    7  A    between atoms: C_15  and  C_16
REMARK    8  A    between atoms: C_19  and  C_20
REMARK    9  A    between atoms: C_20  and  C_21
REMARK   10  A    between atoms: C_20  and  C_22
REMARK   11  A    between atoms: C_20  and  C_23
REMARK                            x       y       z     vdW  Elec       q    Type
REMARK                         _______ _______ _______ _____ _____    ______ ____
ROOT
ATOM      1  C   UNL     1       7.702   6.556  18.170  0.00  0.00    +0.000 A 
ATOM      2  C   UNL     1       7.009   7.211  17.179  0.00  0.00    +0.000 A 
ATOM      3  O   UNL     1       7.352   8.528  17.218  0.00  0.00    +0.000 OA
ATOM      4  C   UNL     1       8.258   8.611  18.245  0.00  0.00    +0.000 A 
ATOM      5  N   UNL     1       8.501   7.460  18.841  0.00  0.00    +0.000 NA
ENDROOT
BRANCH   4   6
ATOM      6  C   UNL     1       8.785   9.934  18.565  0.00  0.00    +0.000 A 
ATOM      7  C   UNL     1       8.573  11.036  17.735  0.00  0.00    +0.000 A 
ATOM      8  C   UNL     1       9.018  12.312  18.105  0.00  0.00    +0.000 A 
ATOM      9  C   UNL     1       9.692  12.532  19.318  0.00  0.00    +0.000 A 
ATOM     10  C   UNL     1       9.935  11.408  20.129  0.00  0.00    +0.000 A 
ATOM     11  C   UNL     1       9.485  10.133  19.760  0.00  0.00    +0.000 A 
BRANCH   9  12
ATOM     12  C   UNL     1      10.139  13.932  19.775  0.00  0.00    +0.000 C 
ATOM     13  C   UNL     1      11.658  14.170  19.615  0.00  0.00    +0.000 C 
ATOM     14  C   UNL     1       9.418  15.008  18.934  0.00  0.00    +0.000 C 
ATOM     15  C   UNL     1       9.794  14.146  21.263  0.00  0.00    +0.000 C 
ENDBRANCH   9  12
ENDBRANCH   4   6
BRANCH   1  16
ATOM     16  C   UNL     1       7.694   5.120  18.561  0.00  0.00    +0.000 C 
BRANCH  16  21
ATOM     17  C   UNL     1       3.945   4.533  18.956  0.00  0.00    +0.000 C 
ATOM     18  C   UNL     1       3.565   4.470  17.476  0.00  0.00    +0.000 C 
ATOM     19  C   UNL     1       4.687   3.870  16.632  0.00  0.00    +0.000 C 
ATOM     20  C   UNL     1       6.032   4.536  16.919  0.00  0.00    +0.000 C 
ATOM     21  N   UNL     1       6.366   4.500  18.355  0.00  0.00    +0.000 NA
ATOM     22  C   UNL     1       5.317   5.186  19.137  0.00  0.00    +0.000 C 
BRANCH  17  23
ATOM     23  C   UNL     1       3.866   3.172  19.632  0.00  0.00    +0.000 C 
ATOM     24  O   UNL     1       4.823   2.556  20.084  0.00  0.00    +0.000 OA
BRANCH  23  25
ATOM     25  O   UNL     1       2.607   2.664  19.504  0.00  0.00    +0.000 OA
BRANCH  25  27
ATOM     26  C   UNL     1       1.619   2.653  21.676  0.00  0.00    +0.000 C 
ATOM     27  C   UNL     1       1.600   3.299  20.302  0.00  0.00    +0.000 C 
ENDBRANCH  25  27
ENDBRANCH  23  25
ENDBRANCH  17  23
ENDBRANCH  16  21
ENDBRANCH   1  16
TORSDOF 7
ENDMDL
MODEL 7
REMARK VINA RESULT:      -7.6      1.121      1.674
REMARK  Name = 
REMARK  11 active torsions:
REMARK  status: ('A' for Active; 'I' for Inactive)
REMARK    1  A    between atoms: C_1  and  C_2
REMARK    2  A    between atoms: C_2  and  O_3
REMARK    3  A    between atoms: O_3  and  C_4
REMARK    4  A    between atoms: C_4  and  C_6
REMARK    5  A    between atoms: N_10  and  C_11
REMARK    6  A    between atoms: C_11  and  C_12
REMARK    7  A    between atoms: C_15  and  C_16
REMARK    8  A    between atoms: C_19  and  C_20
REMARK    9  A    between atoms: C_20  and  C_21
REMARK   10  A    between atoms: C_20  and  C_22
REMARK   11  A    between atoms: C_20  and  C_23
REMARK                            x       y       z     vdW  Elec       q    Type
REMARK                         _______ _______ _______ _____ _____    ______ ____
ROOT
ATOM      1  C   UNL     1       6.993   6.766  17.346  0.00  0.00    +0.000 A 
ATOM      2  C   UNL     1       7.809   6.360  18.376  0.00  0.00    +0.000 A 
ATOM      3  O   UNL     1       8.471   7.451  18.850  0.00  0.00    +0.000 OA
ATOM      4  C   UNL     1       8.012   8.487  18.077  0.00  0.00    +0.000 A 
ATOM      5  N   UNL     1       7.127   8.128  17.168  0.00  0.00    +0.000 NA
ENDROOT
BRANCH   4   6
ATOM      6  C   UNL     1       8.583   9.807  18.325  0.00  0.00    +0.000 A 
ATOM      7  C   UNL     1       9.574  10.018  19.285  0.00  0.00    +0.000 A 
ATOM      8  C   UNL     1      10.164  11.278  19.446  0.00  0.00    +0.000 A 
ATOM      9  C   UNL     1       9.785  12.375  18.654  0.00  0.00    +0.000 A 
ATOM     10  C   UNL     1       8.758  12.161  17.715  0.00  0.00    +0.000 A 
ATOM     11  C   UNL     1       8.172  10.899  17.551  0.00  0.00    +0.000 A 
BRANCH   9  12
ATOM     12  C   UNL     1      10.457  13.753  18.770  0.00  0.00    +0.000 C 
ATOM     13  C   UNL     1       9.450  14.926  18.778  0.00  0.00    +0.000 C 
ATOM     14  C   UNL     1      11.257  13.831  20.088  0.00  0.00    +0.000 C 
ATOM     15  C   UNL     1      11.420  13.982  17.586  0.00  0.00    +0.000 C 
ENDBRANCH   9  12
ENDBRANCH   4   6
BRANCH   1  16
ATOM     16  C   UNL     1       6.066   5.980  16.486  0.00  0.00    +0.000 C 
BRANCH  16  21
ATOM     17  C   UNL     1       3.560   4.677  19.051  0.00  0.00    +0.000 C 
ATOM     18  C   UNL     1       2.827   5.988  19.342  0.00  0.00    +0.000 C 
ATOM     19  C   UNL     1       2.770   6.886  18.110  0.00  0.00    +0.000 C 
ATOM     20  C   UNL     1       4.144   7.052  17.463  0.00  0.00    +0.000 C 
ATOM     21  N   UNL     1       4.762   5.751  17.147  0.00  0.00    +0.000 NA
ATOM     22  C   UNL     1       4.907   4.946  18.377  0.00  0.00    +0.000 C 
BRANCH  17  23
ATOM     23  C   UNL     1       2.707   3.702  18.253  0.00  0.00    +0.000 C 
ATOM     24  O   UNL     1       2.754   3.559  17.038  0.00  0.00    +0.000 OA
BRANCH  23  25
ATOM     25  O   UNL     1       1.764   3.140  19.064  0.00  0.00    +0.000 OA
BRANCH  25  27
ATOM     26  C   UNL     1       1.323   2.788  21.382  0.00  0.00    +0.000 C 
ATOM     27  C   UNL     1       2.267   2.482  20.233  0.00  0.00    +0.000 C 
ENDBRANCH  25  27
ENDBRANCH  23  25
ENDBRANCH  17  23
ENDBRANCH  16  21
ENDBRANCH   1  16
TORSDOF 7
ENDMDL
MODEL 8
REMARK VINA RESULT:      -7.5      5.676      8.100
REMARK  Name = 
REMARK  11 active torsions:
REMARK  status: ('A' for Active; 'I' for Inactive)
REMARK    1  A    between atoms: C_1  and  C_2
REMARK    2  A    between atoms: C_2  and  O_3
REMARK    3  A    between atoms: O_3  and  C_4
REMARK    4  A    between atoms: C_4  and  C_6
REMARK    5  A    between atoms: N_10  and  C_11
REMARK    6  A    between atoms: C_11  and  C_12
REMARK    7  A    between atoms: C_15  and  C_16
REMARK    8  A    between atoms: C_19  and  C_20
REMARK    9  A    between atoms: C_20  and  C_21
REMARK   10  A    between atoms: C_20  and  C_22
REMARK   11  A    between atoms: C_20  and  C_23
REMARK                            x       y       z     vdW  Elec       q    Type
REMARK                         _______ _______ _______ _____ _____    ______ ____
ROOT
ATOM      1  C   UNL     1       2.149   7.982  19.062  0.00  0.00    +0.000 A 
ATOM      2  C   UNL     1       2.114   7.291  20.251  0.00  0.00    +0.000 A 
ATOM      3  O   UNL     1       1.277   7.948  21.101  0.00  0.00    +0.000 OA
ATOM      4  C   UNL     1       0.831   9.022  20.373  0.00  0.00    +0.000 A 
ATOM      5  N   UNL     1       1.322   9.083  19.150  0.00  0.00    +0.000 NA
ENDROOT
BRANCH   4   6
ATOM      6  C   UNL     1      -0.067   9.956  21.044  0.00  0.00    +0.000 A 
ATOM      7  C   UNL     1      -0.334   9.874  22.412  0.00  0.00    +0.000 A 
ATOM      8  C   UNL     1      -1.134  10.832  23.048  0.00  0.00    +0.000 A 
ATOM      9  C   UNL     1      -1.698  11.906  22.340  0.00  0.00    +0.000 A 
ATOM     10  C   UNL     1      -1.455  11.958  20.955  0.00  0.00    +0.000 A 
ATOM     11  C   UNL     1      -0.650  11.002  20.321  0.00  0.00    +0.000 A 
BRANCH   9  12
ATOM     12  C   UNL     1      -2.531  13.004  23.025  0.00  0.00    +0.000 C 
ATOM     13  C   UNL     1      -3.540  12.450  24.057  0.00  0.00    +0.000 C 
ATOM     14  C   UNL     1      -1.595  13.973  23.777  0.00  0.00    +0.000 C 
ATOM     15  C   UNL     1      -3.336  13.799  21.976  0.00  0.00    +0.000 C 
ENDBRANCH   9  12
ENDBRANCH   4   6
BRANCH   1  16
ATOM     16  C   UNL     1       2.903   7.702  17.809  0.00  0.00    +0.000 C 
BRANCH  16  21
ATOM     17  C   UNL     1       3.766   3.987  17.846  0.00  0.00    +0.000 C 
ATOM     18  C   UNL     1       4.978   4.023  16.914  0.00  0.00    +0.000 C 
ATOM     19  C   UNL     1       5.752   5.331  17.048  0.00  0.00    +0.000 C 
ATOM     20  C   UNL     1       4.834   6.548  16.951  0.00  0.00    +0.000 C 
ATOM     21  N   UNL     1       3.728   6.480  17.924  0.00  0.00    +0.000 NA
ATOM     22  C   UNL     1       2.928   5.259  17.699  0.00  0.00    +0.000 C 
BRANCH  17  23
ATOM     23  C   UNL     1       4.158   3.726  19.293  0.00  0.00    +0.000 C 
ATOM     24  O   UNL     1       5.218   3.233  19.656  0.00  0.00    +0.000 OA
BRANCH  23  25
ATOM     25  O   UNL     1       3.090   3.957  20.111  0.00  0.00    +0.000 OA
BRANCH  25  27
ATOM     26  C   UNL     1       1.274   2.877  21.219  0.00  0.00    +0.000 C 
ATOM     27  C   UNL     1       2.781   2.908  21.037  0.00  0.00    +0.000 C 
ENDBRANCH  25  27
ENDBRANCH  23  25
ENDBRANCH  17  23
ENDBRANCH  16  21
ENDBRANCH   1  16
TORSDOF 7
ENDMDL
MODEL 9
REMARK VINA RESULT:      -7.4      3.997      6.957
REMARK  Name = 
REMARK  11 active torsions:
REMARK  status: ('A' for Active; 'I' for Inactive)
REMARK    1  A    between atoms: C_1  and  C_2
REMARK    2  A    between atoms: C_2  and  O_3
REMARK    3  A    between atoms: O_3  and  C_4
REMARK    4  A    between atoms: C_4  and  C_6
REMARK    5  A    between atoms: N_10  and  C_11
REMARK    6  A    between atoms: C_11  and  C_12
REMARK    7  A    between atoms: C_15  and  C_16
REMARK    8  A    between atoms: C_19  and  C_20
REMARK    9  A    between atoms: C_20  and  C_21
REMARK   10  A    between atoms: C_20  and  C_22
REMARK   11  A    between atoms: C_20  and  C_23
REMARK                            x       y       z     vdW  Elec       q    Type
REMARK                         _______ _______ _______ _____ _____    ______ ____
ROOT
ATOM      1  C   UNL     1       2.926   5.289  19.128  0.00  0.00    +0.000 A 
ATOM      2  C   UNL     1       2.303   5.319  20.355  0.00  0.00    +0.000 A 
ATOM      3  O   UNL     1       1.777   6.561  20.535  0.00  0.00    +0.000 OA
ATOM      4  C   UNL     1       2.105   7.237  19.387  0.00  0.00    +0.000 A 
ATOM      5  N   UNL     1       2.788   6.519  18.517  0.00  0.00    +0.000 NA
ENDROOT
BRANCH   4   6
ATOM      6  C   UNL     1       1.706   8.638  19.301  0.00  0.00    +0.000 A 
ATOM      7  C   UNL     1       0.986   9.267  20.318  0.00  0.00    +0.000 A 
ATOM      8  C   UNL     1       0.687  10.634  20.249  0.00  0.00    +0.000 A 
ATOM      9  C   UNL     1       1.095  11.422  19.159  0.00  0.00    +0.000 A 
ATOM     10  C   UNL     1       1.786  10.770  18.121  0.00  0.00    +0.000 A 
ATOM     11  C   UNL     1       2.089   9.404  18.194  0.00  0.00    +0.000 A 
BRANCH   9  12
ATOM     12  C   UNL     1       0.831  12.936  19.086  0.00  0.00    +0.000 C 
ATOM     13  C   UNL     1       1.954  13.718  18.367  0.00  0.00    +0.000 C 
ATOM     14  C   UNL     1      -0.477  13.198  18.307  0.00  0.00    +0.000 C 
ATOM     15  C   UNL     1       0.694  13.525  20.505  0.00  0.00    +0.000 C 
ENDBRANCH   9  12
ENDBRANCH   4   6
BRANCH   1  16
ATOM     16  C   UNL     1       3.658   4.185  18.448  0.00  0.00    +0.000 C 
BRANCH  16  21
ATOM     17  C   UNL     1       7.232   5.353  17.803  0.00  0.00    +0.000 C 
ATOM     18  C   UNL     1       7.539   4.489  16.579  0.00  0.00    +0.000 C 
ATOM     19  C   UNL     1       6.292   4.251  15.731  0.00  0.00    +0.000 C 
ATOM     20  C   UNL     1       5.114   3.768  16.576  0.00  0.00    +0.000 C 
ATOM     21  N   UNL     1       4.831   4.684  17.697  0.00  0.00    +0.000 NA
ATOM     22  C   UNL     1       6.021   4.809  18.563  0.00  0.00    +0.000 C 
BRANCH  17  23
ATOM     23  C   UNL     1       7.068   6.823  17.446  0.00  0.00    +0.000 C 
ATOM     24  O   UNL     1       6.335   7.255  16.566  0.00  0.00    +0.000 OA
BRANCH  23  25
ATOM     25  O   UNL     1       7.983   7.571  18.129  0.00  0.00    +0.000 OA
BRANCH  25  27
ATOM     26  C   UNL     1       8.942   9.653  18.790  0.00  0.00    +0.000 C 
ATOM     27  C   UNL     1       7.988   8.971  17.825  0.00  0.00    +0.000 C 
ENDBRANCH  25  27
ENDBRANCH  23  25
ENDBRANCH  17  23
ENDBRANCH  16  21
ENDBRANCH   1  16
TORSDOF 7
ENDMDL
