MODEL 1
REMARK VINA RESULT:      -8.2      0.000      0.000
REMARK  Name = 
REMARK  7 active torsions:
REMARK  status: ('A' for Active; 'I' for Inactive)
REMARK    1  A    between atoms: C_1  and  C_2
REMARK    2  A    between atoms: C_4  and  C_5
REMARK    3  A    between atoms: C_6  and  N_7
REMARK    4  A    between atoms: C_10  and  C_11
REMARK    5  A    between atoms: C_18  and  O_19
REMARK    6  A    between atoms: C_18  and  O_20
REMARK    7  A    between atoms: O_20  and  C_21
REMARK                            x       y       z     vdW  Elec       q    Type
REMARK                         _______ _______ _______ _____ _____    ______ ____
ROOT
ATOM      1  C   UNL     1       1.805   9.098  17.683  0.00  0.00    +0.000 C 
ATOM      2  C   UNL     1       2.650   7.914  18.115  0.00  0.00    +0.000 C 
ATOM      3  N   UNL     1       3.501   7.512  17.219  0.00  0.00    +0.000 NA
ATOM      4  C   UNL     1       4.386   6.493  17.477  0.00  0.00    +0.000 C 
ATOM      5  C   UNL     1       5.348   6.246  16.339  0.00  0.00    +0.000 C 
ATOM      6  C   UNL     1       4.363   5.827  18.643  0.00  0.00    +0.000 C 
ATOM      7  C   UNL     1       3.342   6.048  19.715  0.00  0.00    +0.000 C 
ATOM      8  C   UNL     1       2.477   7.292  19.489  0.00  0.00    +0.000 C 
ATOM      9  C   UNL     1       1.633   7.789  20.427  0.00  0.00    +0.000 C 
ENDROOT
BRANCH   7  10
ATOM     10  C   UNL     1       2.460   4.808  19.885  0.00  0.00    +0.000 A 
ATOM     11  C   UNL     1       1.727   4.291  18.810  0.00  0.00    +0.000 A 
ATOM     12  C   UNL     1       0.981   3.141  19.007  0.00  0.00    +0.000 A 
ATOM     13  N   UNL     1       0.889   2.503  20.191  0.00  0.00    +0.000 NA
ATOM     14  C   UNL     1       1.571   3.030  21.225  0.00  0.00    +0.000 A 
ATOM     15  C   UNL     1       2.364   4.161  21.127  0.00  0.00    +0.000 A 
ENDBRANCH   7  10
BRANCH   6  16
ATOM     16  N   UNL     1       5.351   4.807  18.948  0.00  0.00    +0.000 N 
ATOM     17  O   UNL     1       6.302   5.153  19.659  0.00  0.00    +0.000 OA
ATOM     18  O   UNL     1       5.178   3.661  18.515  0.00  0.00    +0.000 OA
ENDBRANCH   6  16
BRANCH   9  19
ATOM     19  O   UNL     1       1.484   7.223  21.679  0.00  0.00    +0.000 OA
ATOM     20  H   UNL     1       0.597   6.870  21.812  0.00  0.00    +0.000 HD
ENDBRANCH   9  19
BRANCH   9  21
ATOM     21  O   UNL     1       0.871   8.912  20.181  0.00  0.00    +0.000 OA
BRANCH  21  22
ATOM     22  C   UNL     1       0.701   9.761  21.312  0.00  0.00    +0.000 C 
ATOM     23  C   UNL     1       0.182  11.147  20.931  0.00  0.00    +0.000 C 
ATOM     24  C   UNL     1      -0.390  11.682  22.229  0.00  0.00    +0.000 C 
ATOM     25  C   UNL     1      -0.904  10.455  22.983  0.00  0.00    +0.000 C 
ATOM     26  C   UNL     1      -0.431   9.237  22.192  0.00  0.00    +0.000 C 
ENDBRANCH  21  22
ENDBRANCH   9  21
TORSDOF 5
ENDMDL
MODEL 2
REMARK VINA RESULT:      -8.0      2.202      4.330
REMARK  Name = 
REMARK  7 active torsions:
REMARK  status: ('A' for Active; 'I' for Inactive)
REMARK    1  A    between atoms: C_1  and  C_2
REMARK    2  A    between atoms: C_4  and  C_5
REMARK    3  A    between atoms: C_6  and  N_7
REMARK    4  A    between atoms: C_10  and  C_11
REMARK    5  A    between atoms: C_18  and  O_19
REMARK    6  A    between atoms: C_18  and  O_20
REMARK    7  A    between atoms: O_20  and  C_21
REMARK                            x       y       z     vdW  Elec       q    Type
REMARK                         _______ _______ _______ _____ _____    ______ ____
ROOT
ATOM      1  C   UNL     1       1.343   7.757  21.127  0.00  0.00    +0.000 C 
ATOM      2  C   UNL     1       1.780   6.630  20.208  0.00  0.00    +0.000 C 
ATOM      3  N   UNL     1       1.633   5.443  20.716  0.00  0.00    +0.000 NA
ATOM      4  C   UNL     1       1.920   4.312  19.990  0.00  0.00    +0.000 C 
ATOM      5  C   UNL     1       1.593   3.037  20.731  0.00  0.00    +0.000 C 
ATOM      6  C   UNL     1       2.426   4.390  18.748  0.00  0.00    +0.000 C 
ATOM      7  C   UNL     1       2.812   5.672  18.079  0.00  0.00    +0.000 C 
ATOM      8  C   UNL     1       2.331   6.921  18.825  0.00  0.00    +0.000 C 
ATOM      9  C   UNL     1       2.395   8.169  18.298  0.00  0.00    +0.000 C 
ENDROOT
BRANCH   7  10
ATOM     10  C   UNL     1       4.326   5.732  17.858  0.00  0.00    +0.000 A 
ATOM     11  C   UNL     1       5.216   5.642  18.935  0.00  0.00    +0.000 A 
ATOM     12  C   UNL     1       6.576   5.656  18.675  0.00  0.00    +0.000 A 
ATOM     13  N   UNL     1       7.101   5.787  17.440  0.00  0.00    +0.000 NA
ATOM     14  C   UNL     1       6.234   5.908  16.417  0.00  0.00    +0.000 A 
ATOM     15  C   UNL     1       4.858   5.881  16.568  0.00  0.00    +0.000 A 
ENDBRANCH   7  10
BRANCH   6  16
ATOM     16  N   UNL     1       2.651   3.197  17.951  0.00  0.00    +0.000 N 
ATOM     17  O   UNL     1       1.938   3.059  16.950  0.00  0.00    +0.000 OA
ATOM     18  O   UNL     1       3.546   2.413  18.290  0.00  0.00    +0.000 OA
ENDBRANCH   6  16
BRANCH   9  19
ATOM     19  O   UNL     1       2.892   8.428  17.035  0.00  0.00    +0.000 OA
ATOM     20  H   UNL     1       3.791   8.773  17.065  0.00  0.00    +0.000 HD
ENDBRANCH   9  19
BRANCH   9  21
ATOM     21  O   UNL     1       1.951   9.267  19.006  0.00  0.00    +0.000 OA
BRANCH  21  22
ATOM     22  C   UNL     1       1.047  10.099  18.285  0.00  0.00    +0.000 C 
ATOM     23  C   UNL     1      -0.334   9.466  18.129  0.00  0.00    +0.000 C 
ATOM     24  C   UNL     1      -1.233  10.646  17.816  0.00  0.00    +0.000 C 
ATOM     25  C   UNL     1      -0.615  11.835  18.554  0.00  0.00    +0.000 C 
ATOM     26  C   UNL     1       0.726  11.349  19.099  0.00  0.00    +0.000 C 
ENDBRANCH  21  22
ENDBRANCH   9  21
TORSDOF 5
ENDMDL
MODEL 3
REMARK VINA RESULT:      -7.9      0.529      1.030
REMARK  Name = 
REMARK  7 active torsions:
REMARK  status: ('A' for Active; 'I' for Inactive)
REMARK    1  A    between atoms: C_1  and  C_2
REMARK    2  A    between atoms: C_4  and  C_5
REMARK    3  A    between atoms: C_6  and  N_7
REMARK    4  A    between atoms: C_10  and  C_11
REMARK    5  A    between atoms: C_18  and  O_19
REMARK    6  A    between atoms: C_18  and  O_20
REMARK    7  A    between atoms: O_20  and  C_21
REMARK                            x       y       z     vdW  Elec       q    Type
REMARK                         _______ _______ _______ _____ _____    ______ ____
ROOT
ATOM      1  C   UNL     1       2.094   9.158  17.673  0.00  0.00    +0.000 C 
ATOM      2  C   UNL     1       2.851   7.896  18.042  0.00  0.00    +0.000 C 
ATOM      3  N   UNL     1       3.704   7.505  17.143  0.00  0.00    +0.000 NA
ATOM      4  C   UNL     1       4.518   6.417  17.352  0.00  0.00    +0.000 C 
ATOM      5  C   UNL     1       5.498   6.189  16.226  0.00  0.00    +0.000 C 
ATOM      6  C   UNL     1       4.417   5.674  18.466  0.00  0.00    +0.000 C 
ATOM      7  C   UNL     1       3.378   5.884  19.523  0.00  0.00    +0.000 C 
ATOM      8  C   UNL     1       2.598   7.192  19.363  0.00  0.00    +0.000 C 
ATOM      9  C   UNL     1       1.757   7.675  20.311  0.00  0.00    +0.000 C 
ENDROOT
BRANCH   7  10
ATOM     10  C   UNL     1       2.417   4.693  19.580  0.00  0.00    +0.000 A 
ATOM     11  C   UNL     1       1.685   4.302  18.454  0.00  0.00    +0.000 A 
ATOM     12  C   UNL     1       0.864   3.191  18.547  0.00  0.00    +0.000 A 
ATOM     13  N   UNL     1       0.701   2.475  19.678  0.00  0.00    +0.000 NA
ATOM     14  C   UNL     1       1.385   2.882  20.764  0.00  0.00    +0.000 A 
ATOM     15  C   UNL     1       2.248   3.965  20.768  0.00  0.00    +0.000 A 
ENDBRANCH   7  10
BRANCH   6  16
ATOM     16  N   UNL     1       5.332   4.576  18.724  0.00  0.00    +0.000 N 
ATOM     17  O   UNL     1       5.043   3.485  18.218  0.00  0.00    +0.000 OA
ATOM     18  O   UNL     1       6.348   4.791  19.398  0.00  0.00    +0.000 OA
ENDBRANCH   6  16
BRANCH   9  19
ATOM     19  O   UNL     1       1.534   7.033  21.515  0.00  0.00    +0.000 OA
ATOM     20  H   UNL     1       1.612   7.635  22.264  0.00  0.00    +0.000 HD
ENDBRANCH   9  19
BRANCH   9  21
ATOM     21  O   UNL     1       1.072   8.858  20.125  0.00  0.00    +0.000 OA
BRANCH  21  22
ATOM     22  C   UNL     1       0.092   9.128  21.123  0.00  0.00    +0.000 C 
ATOM     23  C   UNL     1       0.705   9.322  22.509  0.00  0.00    +0.000 C 
ATOM     24  C   UNL     1      -0.372  10.065  23.273  0.00  0.00    +0.000 C 
ATOM     25  C   UNL     1      -1.094  10.920  22.231  0.00  0.00    +0.000 C 
ATOM     26  C   UNL     1      -0.546  10.491  20.872  0.00  0.00    +0.000 C 
ENDBRANCH  21  22
ENDBRANCH   9  21
TORSDOF 5
ENDMDL
MODEL 4
REMARK VINA RESULT:      -7.9      0.463      1.219
REMARK  Name = 
REMARK  7 active torsions:
REMARK  status: ('A' for Active; 'I' for Inactive)
REMARK    1  A    between atoms: C_1  and  C_2
REMARK    2  A    between atoms: C_4  and  C_5
REMARK    3  A    between atoms: C_6  and  N_7
REMARK    4  A    between atoms: C_10  and  C_11
REMARK    5  A    between atoms: C_18  and  O_19
REMARK    6  A    between atoms: C_18  and  O_20
REMARK    7  A    between atoms: O_20  and  C_21
REMARK                            x       y       z     vdW  Elec       q    Type
REMARK                         _______ _______ _______ _____ _____    ______ ____
ROOT
ATOM      1  C   UNL     1       2.093   9.011  17.592  0.00  0.00    +0.000 C 
ATOM      2  C   UNL     1       2.881   7.813  18.088  0.00  0.00    +0.000 C 
ATOM      3  N   UNL     1       3.778   7.384  17.252  0.00  0.00    +0.000 NA
ATOM      4  C   UNL     1       4.622   6.348  17.575  0.00  0.00    +0.000 C 
ATOM      5  C   UNL     1       5.649   6.068  16.503  0.00  0.00    +0.000 C 
ATOM      6  C   UNL     1       4.510   5.694  18.743  0.00  0.00    +0.000 C 
ATOM      7  C   UNL     1       3.428   5.949  19.745  0.00  0.00    +0.000 C 
ATOM      8  C   UNL     1       2.607   7.209  19.453  0.00  0.00    +0.000 C 
ATOM      9  C   UNL     1       1.717   7.734  20.331  0.00  0.00    +0.000 C 
ENDROOT
BRANCH   7  10
ATOM     10  C   UNL     1       2.509   4.730  19.869  0.00  0.00    +0.000 A 
ATOM     11  C   UNL     1       2.365   4.056  21.088  0.00  0.00    +0.000 A 
ATOM     12  C   UNL     1       1.487   2.988  21.156  0.00  0.00    +0.000 A 
ATOM     13  N   UNL     1       0.780   2.532  20.102  0.00  0.00    +0.000 NA
ATOM     14  C   UNL     1       0.953   3.168  18.928  0.00  0.00    +0.000 A 
ATOM     15  C   UNL     1       1.789   4.259  18.761  0.00  0.00    +0.000 A 
ENDBRANCH   7  10
BRANCH   6  16
ATOM     16  N   UNL     1       5.454   4.656  19.118  0.00  0.00    +0.000 N 
ATOM     17  O   UNL     1       6.445   5.017  19.763  0.00  0.00    +0.000 OA
ATOM     18  O   UNL     1       5.206   3.484  18.807  0.00  0.00    +0.000 OA
ENDBRANCH   6  16
BRANCH   9  19
ATOM     19  O   UNL     1       1.475   7.184  21.576  0.00  0.00    +0.000 OA
ATOM     20  H   UNL     1       2.292   6.959  22.035  0.00  0.00    +0.000 HD
ENDBRANCH   9  19
BRANCH   9  21
ATOM     21  O   UNL     1       0.998   8.870  20.027  0.00  0.00    +0.000 OA
BRANCH  21  22
ATOM     22  C   UNL     1       0.015   9.217  20.998  0.00  0.00    +0.000 C 
ATOM     23  C   UNL     1       0.623   9.507  22.370  0.00  0.00    +0.000 C 
ATOM     24  C   UNL     1      -0.453  10.308  23.074  0.00  0.00    +0.000 C 
ATOM     25  C   UNL     1      -1.166  11.090  21.970  0.00  0.00    +0.000 C 
ATOM     26  C   UNL     1      -0.615  10.561  20.647  0.00  0.00    +0.000 C 
ENDBRANCH  21  22
ENDBRANCH   9  21
TORSDOF 5
ENDMDL
MODEL 5
REMARK VINA RESULT:      -7.4      1.716      1.879
REMARK  Name = 
REMARK  7 active torsions:
REMARK  status: ('A' for Active; 'I' for Inactive)
REMARK    1  A    between atoms: C_1  and  C_2
REMARK    2  A    between atoms: C_4  and  C_5
REMARK    3  A    between atoms: C_6  and  N_7
REMARK    4  A    between atoms: C_10  and  C_11
REMARK    5  A    between atoms: C_18  and  O_19
REMARK    6  A    between atoms: C_18  and  O_20
REMARK    7  A    between atoms: O_20  and  C_21
REMARK                            x       y       z     vdW  Elec       q    Type
REMARK                         _______ _______ _______ _____ _____    ______ ____
ROOT
ATOM      1  C   UNL     1       2.548   8.390  17.631  0.00  0.00    +0.000 C 
ATOM      2  C   UNL     1       3.639   7.403  18.000  0.00  0.00    +0.000 C 
ATOM      3  N   UNL     1       4.698   7.476  17.251  0.00  0.00    +0.000 NA
ATOM      4  C   UNL     1       5.804   6.696  17.494  0.00  0.00    +0.000 C 
ATOM      5  C   UNL     1       6.957   7.002  16.567  0.00  0.00    +0.000 C 
ATOM      6  C   UNL     1       5.809   5.780  18.476  0.00  0.00    +0.000 C 
ATOM      7  C   UNL     1       4.619   5.450  19.322  0.00  0.00    +0.000 C 
ATOM      8  C   UNL     1       3.459   6.437  19.156  0.00  0.00    +0.000 C 
ATOM      9  C   UNL     1       2.371   6.444  19.967  0.00  0.00    +0.000 C 
ENDROOT
BRANCH   7  10
ATOM     10  C   UNL     1       4.145   4.019  19.053  0.00  0.00    +0.000 A 
ATOM     11  C   UNL     1       3.429   3.702  17.893  0.00  0.00    +0.000 A 
ATOM     12  C   UNL     1       3.063   2.384  17.677  0.00  0.00    +0.000 A 
ATOM     13  N   UNL     1       3.328   1.384  18.541  0.00  0.00    +0.000 NA
ATOM     14  C   UNL     1       3.987   1.708  19.669  0.00  0.00    +0.000 A 
ATOM     15  C   UNL     1       4.417   2.990  19.967  0.00  0.00    +0.000 A 
ENDBRANCH   7  10
BRANCH   6  16
ATOM     16  N   UNL     1       7.005   5.015  18.786  0.00  0.00    +0.000 N 
ATOM     17  O   UNL     1       7.479   5.165  19.918  0.00  0.00    +0.000 OA
ATOM     18  O   UNL     1       7.459   4.246  17.929  0.00  0.00    +0.000 OA
ENDBRANCH   6  16
BRANCH   9  19
ATOM     19  O   UNL     1       2.214   5.566  21.023  0.00  0.00    +0.000 OA
ATOM     20  H   UNL     1       1.786   5.984  21.778  0.00  0.00    +0.000 HD
ENDBRANCH   9  19
BRANCH   9  21
ATOM     21  O   UNL     1       1.348   7.350  19.781  0.00  0.00    +0.000 OA
BRANCH  21  22
ATOM     22  C   UNL     1       1.210   8.298  20.836  0.00  0.00    +0.000 C 
ATOM     23  C   UNL     1       0.922   9.708  20.323  0.00  0.00    +0.000 C 
ATOM     24  C   UNL     1       0.330  10.411  21.529  0.00  0.00    +0.000 C 
ATOM     25  C   UNL     1      -0.408   9.325  22.311  0.00  0.00    +0.000 C 
ATOM     26  C   UNL     1      -0.050   7.998  21.645  0.00  0.00    +0.000 C 
ENDBRANCH  21  22
ENDBRANCH   9  21
TORSDOF 5
ENDMDL
MODEL 6
REMARK VINA RESULT:      -7.2      1.476      1.816
REMARK  Name = 
REMARK  7 active torsions:
REMARK  status: ('A' for Active; 'I' for Inactive)
REMARK    1  A    between atoms: C_1  and  C_2
REMARK    2  A    between atoms: C_4  and  C_5
REMARK    3  A    between atoms: C_6  and  N_7
REMARK    4  A    between atoms: C_10  and  C_11
REMARK    5  A    between atoms: C_18  and  O_19
REMARK    6  A    between atoms: C_18  and  O_20
REMARK    7  A    between atoms: O_20  and  C_21
REMARK                            x       y       z     vdW  Elec       q    Type
REMARK                         _______ _______ _______ _____ _____    ______ ____
ROOT
ATOM      1  C   UNL     1       2.306   8.527  17.699  0.00  0.00    +0.000 C 
ATOM      2  C   UNL     1       3.376   7.504  18.034  0.00  0.00    +0.000 C 
ATOM      3  N   UNL     1       4.408   7.537  17.245  0.00  0.00    +0.000 NA
ATOM      4  C   UNL     1       5.494   6.721  17.451  0.00  0.00    +0.000 C 
ATOM      5  C   UNL     1       6.622   6.982  16.480  0.00  0.00    +0.000 C 
ATOM      6  C   UNL     1       5.505   5.810  18.438  0.00  0.00    +0.000 C 
ATOM      7  C   UNL     1       4.337   5.525  19.330  0.00  0.00    +0.000 C 
ATOM      8  C   UNL     1       3.206   6.551  19.202  0.00  0.00    +0.000 C 
ATOM      9  C   UNL     1       2.150   6.600  20.052  0.00  0.00    +0.000 C 
ENDROOT
BRANCH   7  10
ATOM     10  C   UNL     1       3.804   4.110  19.088  0.00  0.00    +0.000 A 
ATOM     11  C   UNL     1       4.019   3.089  20.021  0.00  0.00    +0.000 A 
ATOM     12  C   UNL     1       3.477   1.839  19.774  0.00  0.00    +0.000 A 
ATOM     13  N   UNL     1       2.777   1.533  18.663  0.00  0.00    +0.000 NA
ATOM     14  C   UNL     1       2.606   2.515  17.758  0.00  0.00    +0.000 A 
ATOM     15  C   UNL     1       3.087   3.803  17.921  0.00  0.00    +0.000 A 
ENDBRANCH   7  10
BRANCH   6  16
ATOM     16  N   UNL     1       6.684   5.005  18.708  0.00  0.00    +0.000 N 
ATOM     17  O   UNL     1       7.222   5.165  19.810  0.00  0.00    +0.000 OA
ATOM     18  O   UNL     1       7.063   4.197  17.851  0.00  0.00    +0.000 OA
ENDBRANCH   6  16
BRANCH   9  19
ATOM     19  O   UNL     1       2.003   5.733  21.119  0.00  0.00    +0.000 OA
ATOM     20  H   UNL     1       2.813   5.245  21.301  0.00  0.00    +0.000 HD
ENDBRANCH   9  19
BRANCH   9  21
ATOM     21  O   UNL     1       1.153   7.540  19.899  0.00  0.00    +0.000 OA
BRANCH  21  22
ATOM     22  C   UNL     1       1.041   8.454  20.987  0.00  0.00    +0.000 C 
ATOM     23  C   UNL     1       0.892   9.902  20.522  0.00  0.00    +0.000 C 
ATOM     24  C   UNL     1       0.303  10.604  21.729  0.00  0.00    +0.000 C 
ATOM     25  C   UNL     1      -0.556   9.553  22.432  0.00  0.00    +0.000 C 
ATOM     26  C   UNL     1      -0.275   8.228  21.726  0.00  0.00    +0.000 C 
ENDBRANCH  21  22
ENDBRANCH   9  21
TORSDOF 5
ENDMDL
MODEL 7
REMARK VINA RESULT:      -7.1      2.035      4.146
REMARK  Name = 
REMARK  7 active torsions:
REMARK  status: ('A' for Active; 'I' for Inactive)
REMARK    1  A    between atoms: C_1  and  C_2
REMARK    2  A    between atoms: C_4  and  C_5
REMARK    3  A    between atoms: C_6  and  N_7
REMARK    4  A    between atoms: C_10  and  C_11
REMARK    5  A    between atoms: C_18  and  O_19
REMARK    6  A    between atoms: C_18  and  O_20
REMARK    7  A    between atoms: O_20  and  C_21
REMARK                            x       y       z     vdW  Elec       q    Type
REMARK                         _______ _______ _______ _____ _____    ______ ____
ROOT
ATOM      1  C   UNL     1       1.413   7.628  21.367  0.00  0.00    +0.000 C 
ATOM      2  C   UNL     1       1.825   6.535  20.398  0.00  0.00    +0.000 C 
ATOM      3  N   UNL     1       1.719   5.332  20.877  0.00  0.00    +0.000 NA
ATOM      4  C   UNL     1       1.990   4.227  20.107  0.00  0.00    +0.000 C 
ATOM      5  C   UNL     1       1.716   2.926  20.824  0.00  0.00    +0.000 C 
ATOM      6  C   UNL     1       2.438   4.348  18.846  0.00  0.00    +0.000 C 
ATOM      7  C   UNL     1       2.774   5.654  18.197  0.00  0.00    +0.000 C 
ATOM      8  C   UNL     1       2.309   6.873  19.000  0.00  0.00    +0.000 C 
ATOM      9  C   UNL     1       2.330   8.137  18.508  0.00  0.00    +0.000 C 
ENDROOT
BRANCH   7  10
ATOM     10  C   UNL     1       4.276   5.745  17.911  0.00  0.00    +0.000 A 
ATOM     11  C   UNL     1       4.752   5.951  16.611  0.00  0.00    +0.000 A 
ATOM     12  C   UNL     1       6.117   6.071  16.415  0.00  0.00    +0.000 A 
ATOM     13  N   UNL     1       7.027   5.966  17.403  0.00  0.00    +0.000 NA
ATOM     14  C   UNL     1       6.559   5.734  18.644  0.00  0.00    +0.000 A 
ATOM     15  C   UNL     1       5.213   5.622  18.949  0.00  0.00    +0.000 A 
ENDBRANCH   7  10
BRANCH   6  16
ATOM     16  N   UNL     1       2.645   3.182  18.005  0.00  0.00    +0.000 N 
ATOM     17  O   UNL     1       1.868   3.042  17.053  0.00  0.00    +0.000 OA
ATOM     18  O   UNL     1       3.587   2.421  18.261  0.00  0.00    +0.000 OA
ENDBRANCH   6  16
BRANCH   9  19
ATOM     19  O   UNL     1       2.766   8.439  17.231  0.00  0.00    +0.000 OA
ATOM     20  H   UNL     1       3.297   7.729  16.854  0.00  0.00    +0.000 HD
ENDBRANCH   9  19
BRANCH   9  21
ATOM     21  O   UNL     1       1.902   9.206  19.266  0.00  0.00    +0.000 OA
BRANCH  21  22
ATOM     22  C   UNL     1       0.496   9.433  19.214  0.00  0.00    +0.000 C 
ATOM     23  C   UNL     1       0.079  10.699  19.961  0.00  0.00    +0.000 C 
ATOM     24  C   UNL     1      -1.284  11.020  19.383  0.00  0.00    +0.000 C 
ATOM     25  C   UNL     1      -1.238  10.531  17.935  0.00  0.00    +0.000 C 
ATOM     26  C   UNL     1       0.074   9.763  17.785  0.00  0.00    +0.000 C 
ENDBRANCH  21  22
ENDBRANCH   9  21
TORSDOF 5
ENDMDL
MODEL 8
REMARK VINA RESULT:      -7.0      2.044      4.240
REMARK  Name = 
REMARK  7 active torsions:
REMARK  status: ('A' for Active; 'I' for Inactive)
REMARK    1  A    between atoms: C_1  and  C_2
REMARK    2  A    between atoms: C_4  and  C_5
REMARK    3  A    between atoms: C_6  and  N_7
REMARK    4  A    between atoms: C_10  and  C_11
REMARK    5  A    between atoms: C_18  and  O_19
REMARK    6  A    between atoms: C_18  and  O_20
REMARK    7  A    between atoms: O_20  and  C_21
REMARK                            x       y       z     vdW  Elec       q    Type
REMARK                         _______ _______ _______ _____ _____    ______ ____
ROOT
ATOM      1  C   UNL     1       1.442   7.668  21.309  0.00  0.00    +0.000 C 
ATOM      2  C   UNL     1       1.866   6.562  20.360  0.00  0.00    +0.000 C 
ATOM      3  N   UNL     1       1.781   5.368  20.864  0.00  0.00    +0.000 NA
ATOM      4  C   UNL     1       2.064   4.251  20.114  0.00  0.00    +0.000 C 
ATOM      5  C   UNL     1       1.813   2.961  20.859  0.00  0.00    +0.000 C 
ATOM      6  C   UNL     1       2.504   4.354  18.850  0.00  0.00    +0.000 C 
ATOM      7  C   UNL     1       2.817   5.652  18.173  0.00  0.00    +0.000 C 
ATOM      8  C   UNL     1       2.337   6.879  18.953  0.00  0.00    +0.000 C 
ATOM      9  C   UNL     1       2.337   8.133  18.436  0.00  0.00    +0.000 C 
ENDROOT
BRANCH   7  10
ATOM     10  C   UNL     1       4.316   5.760  17.877  0.00  0.00    +0.000 A 
ATOM     11  C   UNL     1       5.260   5.704  18.909  0.00  0.00    +0.000 A 
ATOM     12  C   UNL     1       6.605   5.761  18.582  0.00  0.00    +0.000 A 
ATOM     13  N   UNL     1       7.063   5.902  17.322  0.00  0.00    +0.000 NA
ATOM     14  C   UNL     1       6.143   5.989  16.342  0.00  0.00    +0.000 A 
ATOM     15  C   UNL     1       4.778   5.919  16.562  0.00  0.00    +0.000 A 
ENDBRANCH   7  10
BRANCH   6  16
ATOM     16  N   UNL     1       2.724   3.174  18.031  0.00  0.00    +0.000 N 
ATOM     17  O   UNL     1       3.741   2.514  18.274  0.00  0.00    +0.000 OA
ATOM     18  O   UNL     1       1.884   2.880  17.171  0.00  0.00    +0.000 OA
ENDBRANCH   6  16
BRANCH   9  19
ATOM     19  O   UNL     1       2.762   8.417  17.151  0.00  0.00    +0.000 OA
ATOM     20  H   UNL     1       2.646   7.665  16.559  0.00  0.00    +0.000 HD
ENDBRANCH   9  19
BRANCH   9  21
ATOM     21  O   UNL     1       1.897   9.211  19.175  0.00  0.00    +0.000 OA
BRANCH  21  22
ATOM     22  C   UNL     1       0.488   9.417  19.125  0.00  0.00    +0.000 C 
ATOM     23  C   UNL     1       0.053  10.682  19.863  0.00  0.00    +0.000 C 
ATOM     24  C   UNL     1      -1.317  10.978  19.286  0.00  0.00    +0.000 C 
ATOM     25  C   UNL     1      -1.266  10.478  17.842  0.00  0.00    +0.000 C 
ATOM     26  C   UNL     1       0.056   9.729  17.694  0.00  0.00    +0.000 C 
ENDBRANCH  21  22
ENDBRANCH   9  21
TORSDOF 5
ENDMDL
MODEL 9
REMARK VINA RESULT:      -6.9      2.297      4.363
REMARK  Name = 
REMARK  7 active torsions:
REMARK  status: ('A' for Active; 'I' for Inactive)
REMARK    1  A    between atoms: C_1  and  C_2
REMARK    2  A    between atoms: C_4  and  C_5
REMARK    3  A    between atoms: C_6  and  N_7
REMARK    4  A    between atoms: C_10  and  C_11
REMARK    5  A    between atoms: C_18  and  O_19
REMARK    6  A    between atoms: C_18  and  O_20
REMARK    7  A    between atoms: O_20  and  C_21
REMARK                            x       y       z     vdW  Elec       q    Type
REMARK                         _______ _______ _______ _____ _____    ______ ____
ROOT
ATOM      1  C   UNL     1       1.531   5.216  20.207  0.00  0.00    +0.000 C 
ATOM      2  C   UNL     1       2.523   4.972  19.084  0.00  0.00    +0.000 C 
ATOM      3  N   UNL     1       2.727   3.717  18.819  0.00  0.00    +0.000 NA
ATOM      4  C   UNL     1       3.546   3.326  17.786  0.00  0.00    +0.000 C 
ATOM      5  C   UNL     1       3.573   1.829  17.589  0.00  0.00    +0.000 C 
ATOM      6  C   UNL     1       4.220   4.226  17.051  0.00  0.00    +0.000 C 
ATOM      7  C   UNL     1       4.230   5.697  17.329  0.00  0.00    +0.000 C 
ATOM      8  C   UNL     1       3.188   6.131  18.364  0.00  0.00    +0.000 C 
ATOM      9  C   UNL     1       2.889   7.430  18.616  0.00  0.00    +0.000 C 
ENDROOT
BRANCH   7  10
ATOM     10  C   UNL     1       5.628   6.158  17.754  0.00  0.00    +0.000 A 
ATOM     11  C   UNL     1       6.278   7.200  17.083  0.00  0.00    +0.000 A 
ATOM     12  C   UNL     1       7.522   7.607  17.536  0.00  0.00    +0.000 A 
ATOM     13  N   UNL     1       8.165   7.033  18.572  0.00  0.00    +0.000 NA
ATOM     14  C   UNL     1       7.543   6.009  19.187  0.00  0.00    +0.000 A 
ATOM     15  C   UNL     1       6.290   5.543  18.827  0.00  0.00    +0.000 A 
ENDBRANCH   7  10
BRANCH   6  16
ATOM     16  N   UNL     1       5.019   3.819  15.909  0.00  0.00    +0.000 N 
ATOM     17  O   UNL     1       4.626   4.193  14.798  0.00  0.00    +0.000 OA
ATOM     18  O   UNL     1       6.048   3.159  16.105  0.00  0.00    +0.000 OA
ENDBRANCH   6  16
BRANCH   9  19
ATOM     19  O   UNL     1       3.493   8.483  17.953  0.00  0.00    +0.000 OA
ATOM     20  H   UNL     1       4.407   8.605  18.230  0.00  0.00    +0.000 HD
ENDBRANCH   9  19
BRANCH   9  21
ATOM     21  O   UNL     1       1.943   7.777  19.558  0.00  0.00    +0.000 OA
BRANCH  21  22
ATOM     22  C   UNL     1       1.425   9.095  19.407  0.00  0.00    +0.000 C 
ATOM     23  C   UNL     1       0.557   9.244  18.159  0.00  0.00    +0.000 C 
ATOM     24  C   UNL     1      -0.265  10.485  18.443  0.00  0.00    +0.000 C 
ATOM     25  C   UNL     1      -0.460  10.505  19.959  0.00  0.00    +0.000 C 
ATOM     26  C   UNL     1       0.423   9.393  20.519  0.00  0.00    +0.000 C 
ENDBRANCH  21  22
ENDBRANCH   9  21
TORSDOF 5
ENDMDL
