MODEL 1
REMARK VINA RESULT:      -8.7      0.000      0.000
REMARK  Name = 
REMARK  3 active torsions:
REMARK  status: ('A' for Active; 'I' for Inactive)
REMARK    1  A    between atoms: C_6  and  C_7
REMARK    2  A    between atoms: C_7  and  N_8
REMARK    3  A    between atoms: C_12  and  C_13
REMARK                            x       y       z     vdW  Elec       q    Type
REMARK                         _______ _______ _______ _____ _____    ______ ____
ROOT
ATOM      1  O   UNL     1       1.162   6.876  21.576  0.00  0.00    +0.000 OA
ATOM      2  C   UNL     1       1.195   7.844  20.830  0.00  0.00    +0.000 C 
ATOM      3  C   UNL     1       1.834   7.772  19.519  0.00  0.00    +0.000 C 
ATOM      4  C   UNL     1       1.921   8.795  18.685  0.00  0.00    +0.000 C 
ATOM      5  O   UNL     1       2.589   8.538  17.495  0.00  0.00    +0.000 OA
ATOM      6  C   UNL     1       2.990   7.139  17.595  0.00  0.00    +0.000 C 
ATOM      7  C   UNL     1       2.498   6.591  18.954  0.00  0.00    +0.000 C 
ATOM      8  C   UNL     1       1.369  10.126  19.016  0.00  0.00    +0.000 C 
ATOM      9  O   UNL     1       1.469  11.083  18.259  0.00  0.00    +0.000 OA
ATOM     10  C   UNL     1       0.696  10.246  20.335  0.00  0.00    +0.000 A 
ATOM     11  C   UNL     1       0.147  11.476  20.715  0.00  0.00    +0.000 A 
ATOM     12  C   UNL     1      -0.486  11.605  21.953  0.00  0.00    +0.000 A 
ATOM     13  C   UNL     1      -0.574  10.511  22.814  0.00  0.00    +0.000 A 
ATOM     14  C   UNL     1      -0.026   9.283  22.443  0.00  0.00    +0.000 A 
ATOM     15  C   UNL     1       0.610   9.150  21.202  0.00  0.00    +0.000 A 
ENDROOT
BRANCH   6  16
ATOM     16  C   UNL     1       4.515   7.075  17.427  0.00  0.00    +0.000 C 
BRANCH  16  17
ATOM     17  N   UNL     1       5.011   6.082  16.501  0.00  0.00    +0.000 N 
ATOM     18  N   UNL     1       5.818   6.467  15.493  0.00  0.00    +0.000 NA
ATOM     19  N   UNL     1       6.096   5.406  14.759  0.00  0.00    +0.000 NA
ATOM     20  C   UNL     1       5.489   4.336  15.336  0.00  0.00    +0.000 A 
ATOM     21  C   UNL     1       4.790   4.719  16.471  0.00  0.00    +0.000 A 
BRANCH  21  22
ATOM     22  C   UNL     1       4.043   3.886  17.419  0.00  0.00    +0.000 A 
ATOM     23  C   UNL     1       4.626   3.577  18.661  0.00  0.00    +0.000 A 
ATOM     24  C   UNL     1       3.977   2.751  19.582  0.00  0.00    +0.000 A 
ATOM     25  C   UNL     1       2.724   2.228  19.285  0.00  0.00    +0.000 A 
ATOM     26  C   UNL     1       2.127   2.524  18.063  0.00  0.00    +0.000 A 
ATOM     27  C   UNL     1       2.788   3.335  17.133  0.00  0.00    +0.000 A 
ENDBRANCH  21  22
ENDBRANCH  16  17
ENDBRANCH   6  16
TORSDOF 3
ENDMDL
MODEL 2
REMARK VINA RESULT:      -8.5      0.612      1.130
REMARK  Name = 
REMARK  3 active torsions:
REMARK  status: ('A' for Active; 'I' for Inactive)
REMARK    1  A    between atoms: C_6  and  C_7
REMARK    2  A    between atoms: C_7  and  N_8
REMARK    3  A    between atoms: C_12  and  C_13
REMARK                            x       y       z     vdW  Elec       q    Type
REMARK                         _______ _______ _______ _____ _____    ______ ____
ROOT
ATOM      1  O   UNL     1       1.271   7.148  21.269  0.00  0.00    +0.000 OA
ATOM      2  C   UNL     1       1.399   8.017  20.419  0.00  0.00    +0.000 C 
ATOM      3  C   UNL     1       2.124   7.767  19.178  0.00  0.00    +0.000 C 
ATOM      4  C   UNL     1       2.314   8.678  18.239  0.00  0.00    +0.000 C 
ATOM      5  O   UNL     1       3.053   8.258  17.141  0.00  0.00    +0.000 OA
ATOM      6  C   UNL     1       3.386   6.868  17.435  0.00  0.00    +0.000 C 
ATOM      7  C   UNL     1       2.777   6.505  18.807  0.00  0.00    +0.000 C 
ATOM      8  C   UNL     1       1.796  10.057  18.368  0.00  0.00    +0.000 C 
ATOM      9  O   UNL     1       1.990  10.912  17.513  0.00  0.00    +0.000 OA
ATOM     10  C   UNL     1       1.037  10.357  19.609  0.00  0.00    +0.000 A 
ATOM     11  C   UNL     1       0.515  11.642  19.799  0.00  0.00    +0.000 A 
ATOM     12  C   UNL     1      -0.198  11.940  20.962  0.00  0.00    +0.000 A 
ATOM     13  C   UNL     1      -0.393  10.962  21.937  0.00  0.00    +0.000 A 
ATOM     14  C   UNL     1       0.128   9.681  21.755  0.00  0.00    +0.000 A 
ATOM     15  C   UNL     1       0.844   9.377  20.590  0.00  0.00    +0.000 A 
ENDROOT
BRANCH   6  16
ATOM     16  C   UNL     1       4.915   6.734  17.390  0.00  0.00    +0.000 C 
BRANCH  16  17
ATOM     17  N   UNL     1       5.434   5.650  16.587  0.00  0.00    +0.000 N 
ATOM     18  N   UNL     1       6.345   5.918  15.630  0.00  0.00    +0.000 NA
ATOM     19  N   UNL     1       6.626   4.792  15.001  0.00  0.00    +0.000 NA
ATOM     20  C   UNL     1       5.917   3.799  15.599  0.00  0.00    +0.000 A 
ATOM     21  C   UNL     1       5.144   4.300  16.636  0.00  0.00    +0.000 A 
BRANCH  21  22
ATOM     22  C   UNL     1       4.276   3.579  17.572  0.00  0.00    +0.000 A 
ATOM     23  C   UNL     1       3.001   3.170  17.142  0.00  0.00    +0.000 A 
ATOM     24  C   UNL     1       2.117   2.519  18.007  0.00  0.00    +0.000 A 
ATOM     25  C   UNL     1       2.497   2.253  19.318  0.00  0.00    +0.000 A 
ATOM     26  C   UNL     1       3.756   2.648  19.762  0.00  0.00    +0.000 A 
ATOM     27  C   UNL     1       4.631   3.316  18.900  0.00  0.00    +0.000 A 
ENDBRANCH  21  22
ENDBRANCH  16  17
ENDBRANCH   6  16
TORSDOF 3
ENDMDL
MODEL 3
REMARK VINA RESULT:      -8.4      1.732      3.078
REMARK  Name = 
REMARK  3 active torsions:
REMARK  status: ('A' for Active; 'I' for Inactive)
REMARK    1  A    between atoms: C_6  and  C_7
REMARK    2  A    between atoms: C_7  and  N_8
REMARK    3  A    between atoms: C_12  and  C_13
REMARK                            x       y       z     vdW  Elec       q    Type
REMARK                         _______ _______ _______ _____ _____    ______ ____
ROOT
ATOM      1  O   UNL     1      -0.908  11.709  18.251  0.00  0.00    +0.000 OA
ATOM      2  C   UNL     1      -0.499  11.134  19.250  0.00  0.00    +0.000 C 
ATOM      3  C   UNL     1       0.573  10.148  19.174  0.00  0.00    +0.000 C 
ATOM      4  C   UNL     1       1.034   9.479  20.217  0.00  0.00    +0.000 C 
ATOM      5  O   UNL     1       2.040   8.562  19.941  0.00  0.00    +0.000 OA
ATOM      6  C   UNL     1       2.242   8.664  18.500  0.00  0.00    +0.000 C 
ATOM      7  C   UNL     1       1.263   9.724  17.948  0.00  0.00    +0.000 C 
ATOM      8  C   UNL     1       0.491   9.677  21.578  0.00  0.00    +0.000 C 
ATOM      9  O   UNL     1       0.896   9.043  22.544  0.00  0.00    +0.000 OA
ATOM     10  C   UNL     1      -0.593  10.683  21.710  0.00  0.00    +0.000 A 
ATOM     11  C   UNL     1      -1.155  10.926  22.969  0.00  0.00    +0.000 A 
ATOM     12  C   UNL     1      -2.178  11.866  23.108  0.00  0.00    +0.000 A 
ATOM     13  C   UNL     1      -2.644  12.566  21.994  0.00  0.00    +0.000 A 
ATOM     14  C   UNL     1      -2.092  12.326  20.736  0.00  0.00    +0.000 A 
ATOM     15  C   UNL     1      -1.066  11.384  20.593  0.00  0.00    +0.000 A 
ENDROOT
BRANCH   6  16
ATOM     16  C   UNL     1       2.032   7.267  17.898  0.00  0.00    +0.000 C 
BRANCH  16  17
ATOM     17  N   UNL     1       3.219   6.456  17.747  0.00  0.00    +0.000 N 
ATOM     18  N   UNL     1       4.243   6.921  17.004  0.00  0.00    +0.000 NA
ATOM     19  N   UNL     1       5.181   5.993  16.970  0.00  0.00    +0.000 NA
ATOM     20  C   UNL     1       4.759   4.952  17.734  0.00  0.00    +0.000 A 
ATOM     21  C   UNL     1       3.505   5.209  18.269  0.00  0.00    +0.000 A 
BRANCH  21  22
ATOM     22  C   UNL     1       2.706   4.390  19.186  0.00  0.00    +0.000 A 
ATOM     23  C   UNL     1       1.741   3.517  18.654  0.00  0.00    +0.000 A 
ATOM     24  C   UNL     1       0.922   2.747  19.485  0.00  0.00    +0.000 A 
ATOM     25  C   UNL     1       1.063   2.826  20.867  0.00  0.00    +0.000 A 
ATOM     26  C   UNL     1       2.016   3.682  21.412  0.00  0.00    +0.000 A 
ATOM     27  C   UNL     1       2.821   4.466  20.579  0.00  0.00    +0.000 A 
ENDBRANCH  21  22
ENDBRANCH  16  17
ENDBRANCH   6  16
TORSDOF 3
ENDMDL
MODEL 4
REMARK VINA RESULT:      -8.4      2.151      3.908
REMARK  Name = 
REMARK  3 active torsions:
REMARK  status: ('A' for Active; 'I' for Inactive)
REMARK    1  A    between atoms: C_6  and  C_7
REMARK    2  A    between atoms: C_7  and  N_8
REMARK    3  A    between atoms: C_12  and  C_13
REMARK                            x       y       z     vdW  Elec       q    Type
REMARK                         _______ _______ _______ _____ _____    ______ ____
ROOT
ATOM      1  O   UNL     1       1.910  10.213  17.313  0.00  0.00    +0.000 OA
ATOM      2  C   UNL     1       1.472   9.901  18.411  0.00  0.00    +0.000 C 
ATOM      3  C   UNL     1       1.846   8.643  19.049  0.00  0.00    +0.000 C 
ATOM      4  C   UNL     1       1.381   8.245  20.221  0.00  0.00    +0.000 C 
ATOM      5  O   UNL     1       1.834   7.004  20.652  0.00  0.00    +0.000 OA
ATOM      6  C   UNL     1       2.716   6.546  19.584  0.00  0.00    +0.000 C 
ATOM      7  C   UNL     1       2.744   7.629  18.482  0.00  0.00    +0.000 C 
ATOM      8  C   UNL     1       0.423   9.056  21.001  0.00  0.00    +0.000 C 
ATOM      9  O   UNL     1      -0.030   8.682  22.075  0.00  0.00    +0.000 OA
ATOM     10  C   UNL     1       0.023  10.354  20.400  0.00  0.00    +0.000 A 
ATOM     11  C   UNL     1      -0.881  11.177  21.083  0.00  0.00    +0.000 A 
ATOM     12  C   UNL     1      -1.269  12.398  20.529  0.00  0.00    +0.000 A 
ATOM     13  C   UNL     1      -0.761  12.802  19.293  0.00  0.00    +0.000 A 
ATOM     14  C   UNL     1       0.137  11.985  18.606  0.00  0.00    +0.000 A 
ATOM     15  C   UNL     1       0.529  10.759  19.158  0.00  0.00    +0.000 A 
ENDROOT
BRANCH   6  16
ATOM     16  C   UNL     1       2.193   5.189  19.094  0.00  0.00    +0.000 C 
BRANCH  16  17
ATOM     17  N   UNL     1       2.943   4.028  19.517  0.00  0.00    +0.000 N 
ATOM     18  N   UNL     1       2.443   3.241  20.490  0.00  0.00    +0.000 NA
ATOM     19  N   UNL     1       3.319   2.286  20.739  0.00  0.00    +0.000 NA
ATOM     20  C   UNL     1       4.362   2.451  19.883  0.00  0.00    +0.000 A 
ATOM     21  C   UNL     1       4.159   3.553  19.065  0.00  0.00    +0.000 A 
BRANCH  21  22
ATOM     22  C   UNL     1       4.997   4.059  17.974  0.00  0.00    +0.000 A 
ATOM     23  C   UNL     1       4.545   3.924  16.649  0.00  0.00    +0.000 A 
ATOM     24  C   UNL     1       5.324   4.348  15.569  0.00  0.00    +0.000 A 
ATOM     25  C   UNL     1       6.567   4.930  15.795  0.00  0.00    +0.000 A 
ATOM     26  C   UNL     1       7.031   5.076  17.099  0.00  0.00    +0.000 A 
ATOM     27  C   UNL     1       6.258   4.632  18.177  0.00  0.00    +0.000 A 
ENDBRANCH  21  22
ENDBRANCH  16  17
ENDBRANCH   6  16
TORSDOF 3
ENDMDL
MODEL 5
REMARK VINA RESULT:      -8.3      2.035      3.659
REMARK  Name = 
REMARK  3 active torsions:
REMARK  status: ('A' for Active; 'I' for Inactive)
REMARK    1  A    between atoms: C_6  and  C_7
REMARK    2  A    between atoms: C_7  and  N_8
REMARK    3  A    between atoms: C_12  and  C_13
REMARK                            x       y       z     vdW  Elec       q    Type
REMARK                         _______ _______ _______ _____ _____    ______ ____
ROOT
ATOM      1  O   UNL     1       2.207  10.400  17.261  0.00  0.00    +0.000 OA
ATOM      2  C   UNL     1       1.849   9.938  18.335  0.00  0.00    +0.000 C 
ATOM      3  C   UNL     1       2.109   8.546  18.689  0.00  0.00    +0.000 C 
ATOM      4  C   UNL     1       1.721   7.990  19.824  0.00  0.00    +0.000 C 
ATOM      5  O   UNL     1       2.037   6.645  19.968  0.00  0.00    +0.000 OA
ATOM      6  C   UNL     1       2.727   6.297  18.730  0.00  0.00    +0.000 C 
ATOM      7  C   UNL     1       2.789   7.559  17.840  0.00  0.00    +0.000 C 
ATOM      8  C   UNL     1       0.975   8.745  20.853  0.00  0.00    +0.000 C 
ATOM      9  O   UNL     1       0.591   8.229  21.895  0.00  0.00    +0.000 OA
ATOM     10  C   UNL     1       0.699  10.172  20.545  0.00  0.00    +0.000 A 
ATOM     11  C   UNL     1      -0.001  10.951  21.475  0.00  0.00    +0.000 A 
ATOM     12  C   UNL     1      -0.271  12.293  21.198  0.00  0.00    +0.000 A 
ATOM     13  C   UNL     1       0.155  12.862  19.997  0.00  0.00    +0.000 A 
ATOM     14  C   UNL     1       0.849  12.090  19.066  0.00  0.00    +0.000 A 
ATOM     15  C   UNL     1       1.122  10.744  19.339  0.00  0.00    +0.000 A 
ENDROOT
BRANCH   6  16
ATOM     16  C   UNL     1       1.968   5.130  18.083  0.00  0.00    +0.000 C 
BRANCH  16  17
ATOM     17  N   UNL     1       2.514   3.812  18.312  0.00  0.00    +0.000 N 
ATOM     18  N   UNL     1       1.734   2.865  18.871  0.00  0.00    +0.000 NA
ATOM     19  N   UNL     1       2.459   1.774  19.028  0.00  0.00    +0.000 NA
ATOM     20  C   UNL     1       3.696   2.025  18.524  0.00  0.00    +0.000 A 
ATOM     21  C   UNL     1       3.776   3.322  18.038  0.00  0.00    +0.000 A 
BRANCH  21  22
ATOM     22  C   UNL     1       4.896   3.988  17.367  0.00  0.00    +0.000 A 
ATOM     23  C   UNL     1       5.965   4.472  18.142  0.00  0.00    +0.000 A 
ATOM     24  C   UNL     1       7.035   5.154  17.557  0.00  0.00    +0.000 A 
ATOM     25  C   UNL     1       7.064   5.354  16.181  0.00  0.00    +0.000 A 
ATOM     26  C   UNL     1       6.018   4.879  15.396  0.00  0.00    +0.000 A 
ATOM     27  C   UNL     1       4.938   4.214  15.986  0.00  0.00    +0.000 A 
ENDBRANCH  21  22
ENDBRANCH  16  17
ENDBRANCH   6  16
TORSDOF 3
ENDMDL
MODEL 6
REMARK VINA RESULT:      -8.2      2.802      3.734
REMARK  Name = 
REMARK  3 active torsions:
REMARK  status: ('A' for Active; 'I' for Inactive)
REMARK    1  A    between atoms: C_6  and  C_7
REMARK    2  A    between atoms: C_7  and  N_8
REMARK    3  A    between atoms: C_12  and  C_13
REMARK                            x       y       z     vdW  Elec       q    Type
REMARK                         _______ _______ _______ _____ _____    ______ ____
ROOT
ATOM      1  O   UNL     1      -2.317   9.732  16.617  0.00  0.00    +0.000 OA
ATOM      2  C   UNL     1      -1.905  10.275  17.632  0.00  0.00    +0.000 C 
ATOM      3  C   UNL     1      -0.553  10.036  18.127  0.00  0.00    +0.000 C 
ATOM      4  C   UNL     1      -0.067  10.576  19.232  0.00  0.00    +0.000 C 
ATOM      5  O   UNL     1       1.233  10.208  19.554  0.00  0.00    +0.000 OA
ATOM      6  C   UNL     1       1.626   9.289  18.491  0.00  0.00    +0.000 C 
ATOM      7  C   UNL     1       0.441   9.147  17.511  0.00  0.00    +0.000 C 
ATOM      8  C   UNL     1      -0.869  11.486  20.079  0.00  0.00    +0.000 C 
ATOM      9  O   UNL     1      -0.433  11.969  21.116  0.00  0.00    +0.000 OA
ATOM     10  C   UNL     1      -2.248  11.772  19.608  0.00  0.00    +0.000 A 
ATOM     11  C   UNL     1      -3.065  12.627  20.357  0.00  0.00    +0.000 A 
ATOM     12  C   UNL     1      -4.365  12.903  19.929  0.00  0.00    +0.000 A 
ATOM     13  C   UNL     1      -4.855  12.328  18.756  0.00  0.00    +0.000 A 
ATOM     14  C   UNL     1      -4.048  11.472  18.007  0.00  0.00    +0.000 A 
ATOM     15  C   UNL     1      -2.743  11.193  18.432  0.00  0.00    +0.000 A 
ENDROOT
BRANCH   6  16
ATOM     16  C   UNL     1       2.039   7.964  19.147  0.00  0.00    +0.000 C 
BRANCH  16  17
ATOM     17  N   UNL     1       2.933   7.126  18.379  0.00  0.00    +0.000 N 
ATOM     18  N   UNL     1       3.799   7.702  17.522  0.00  0.00    +0.000 NA
ATOM     19  N   UNL     1       4.465   6.745  16.904  0.00  0.00    +0.000 NA
ATOM     20  C   UNL     1       4.041   5.556  17.409  0.00  0.00    +0.000 A 
ATOM     21  C   UNL     1       3.063   5.751  18.373  0.00  0.00    +0.000 A 
BRANCH  21  22
ATOM     22  C   UNL     1       2.376   4.758  19.205  0.00  0.00    +0.000 A 
ATOM     23  C   UNL     1       2.656   4.710  20.582  0.00  0.00    +0.000 A 
ATOM     24  C   UNL     1       2.063   3.755  21.411  0.00  0.00    +0.000 A 
ATOM     25  C   UNL     1       1.166   2.834  20.880  0.00  0.00    +0.000 A 
ATOM     26  C   UNL     1       0.873   2.867  19.519  0.00  0.00    +0.000 A 
ATOM     27  C   UNL     1       1.483   3.812  18.688  0.00  0.00    +0.000 A 
ENDBRANCH  21  22
ENDBRANCH  16  17
ENDBRANCH   6  16
TORSDOF 3
ENDMDL
MODEL 7
REMARK VINA RESULT:      -8.2      2.035      3.602
REMARK  Name = 
REMARK  3 active torsions:
REMARK  status: ('A' for Active; 'I' for Inactive)
REMARK    1  A    between atoms: C_6  and  C_7
REMARK    2  A    between atoms: C_7  and  N_8
REMARK    3  A    between atoms: C_12  and  C_13
REMARK                            x       y       z     vdW  Elec       q    Type
REMARK                         _______ _______ _______ _____ _____    ______ ____
ROOT
ATOM      1  O   UNL     1      -0.144  10.848  17.902  0.00  0.00    +0.000 OA
ATOM      2  C   UNL     1       0.184  10.321  18.955  0.00  0.00    +0.000 C 
ATOM      3  C   UNL     1       1.123   9.205  18.987  0.00  0.00    +0.000 C 
ATOM      4  C   UNL     1       1.490   8.582  20.095  0.00  0.00    +0.000 C 
ATOM      5  O   UNL     1       2.373   7.525  19.920  0.00  0.00    +0.000 OA
ATOM      6  C   UNL     1       2.594   7.468  18.479  0.00  0.00    +0.000 C 
ATOM      7  C   UNL     1       1.760   8.587  17.817  0.00  0.00    +0.000 C 
ATOM      8  C   UNL     1       0.969   8.971  21.423  0.00  0.00    +0.000 C 
ATOM      9  O   UNL     1       1.285   8.383  22.449  0.00  0.00    +0.000 OA
ATOM     10  C   UNL     1       0.019  10.114  21.444  0.00  0.00    +0.000 A 
ATOM     11  C   UNL     1      -0.514  10.540  22.666  0.00  0.00    +0.000 A 
ATOM     12  C   UNL     1      -1.410  11.610  22.701  0.00  0.00    +0.000 A 
ATOM     13  C   UNL     1      -1.778  12.257  21.521  0.00  0.00    +0.000 A 
ATOM     14  C   UNL     1      -1.253  11.835  20.300  0.00  0.00    +0.000 A 
ATOM     15  C   UNL     1      -0.354  10.762  20.260  0.00  0.00    +0.000 A 
ENDROOT
BRANCH   6  16
ATOM     16  C   UNL     1       2.212   6.059  18.002  0.00  0.00    +0.000 C 
BRANCH  16  17
ATOM     17  N   UNL     1       2.626   4.967  18.854  0.00  0.00    +0.000 N 
ATOM     18  N   UNL     1       1.800   4.548  19.834  0.00  0.00    +0.000 NA
ATOM     19  N   UNL     1       2.409   3.588  20.504  0.00  0.00    +0.000 NA
ATOM     20  C   UNL     1       3.613   3.372  19.911  0.00  0.00    +0.000 A 
ATOM     21  C   UNL     1       3.792   4.227  18.834  0.00  0.00    +0.000 A 
BRANCH  21  22
ATOM     22  C   UNL     1       4.911   4.300  17.890  0.00  0.00    +0.000 A 
ATOM     23  C   UNL     1       6.172   4.710  18.358  0.00  0.00    +0.000 A 
ATOM     24  C   UNL     1       7.261   4.839  17.492  0.00  0.00    +0.000 A 
ATOM     25  C   UNL     1       7.113   4.547  16.140  0.00  0.00    +0.000 A 
ATOM     26  C   UNL     1       5.874   4.136  15.658  0.00  0.00    +0.000 A 
ATOM     27  C   UNL     1       4.780   4.026  16.523  0.00  0.00    +0.000 A 
ENDBRANCH  21  22
ENDBRANCH  16  17
ENDBRANCH   6  16
TORSDOF 3
ENDMDL
MODEL 8
REMARK VINA RESULT:      -8.1      2.169      3.807
REMARK  Name = 
REMARK  3 active torsions:
REMARK  status: ('A' for Active; 'I' for Inactive)
REMARK    1  A    between atoms: C_6  and  C_7
REMARK    2  A    between atoms: C_7  and  N_8
REMARK    3  A    between atoms: C_12  and  C_13
REMARK                            x       y       z     vdW  Elec       q    Type
REMARK                         _______ _______ _______ _____ _____    ______ ____
ROOT
ATOM      1  O   UNL     1      -0.541  11.063  18.080  0.00  0.00    +0.000 OA
ATOM      2  C   UNL     1      -0.143  10.555  19.118  0.00  0.00    +0.000 C 
ATOM      3  C   UNL     1       0.868   9.502  19.111  0.00  0.00    +0.000 C 
ATOM      4  C   UNL     1       1.314   8.902  20.202  0.00  0.00    +0.000 C 
ATOM      5  O   UNL     1       2.258   7.905  19.990  0.00  0.00    +0.000 OA
ATOM      6  C   UNL     1       2.431   7.867  18.542  0.00  0.00    +0.000 C 
ATOM      7  C   UNL     1       1.503   8.932  17.916  0.00  0.00    +0.000 C 
ATOM      8  C   UNL     1       0.816   9.251  21.549  0.00  0.00    +0.000 C 
ATOM      9  O   UNL     1       1.206   8.682  22.560  0.00  0.00    +0.000 OA
ATOM     10  C   UNL     1      -0.205  10.329  21.610  0.00  0.00    +0.000 A 
ATOM     11  C   UNL     1      -0.721  10.715  22.853  0.00  0.00    +0.000 A 
ATOM     12  C   UNL     1      -1.684  11.724  22.925  0.00  0.00    +0.000 A 
ATOM     13  C   UNL     1      -2.135  12.350  21.763  0.00  0.00    +0.000 A 
ATOM     14  C   UNL     1      -1.627  11.967  20.521  0.00  0.00    +0.000 A 
ATOM     15  C   UNL     1      -0.662  10.956  20.444  0.00  0.00    +0.000 A 
ENDROOT
BRANCH   6  16
ATOM     16  C   UNL     1       2.126   6.438  18.071  0.00  0.00    +0.000 C 
BRANCH  16  17
ATOM     17  N   UNL     1       2.435   5.381  19.008  0.00  0.00    +0.000 N 
ATOM     18  N   UNL     1       1.495   4.989  19.891  0.00  0.00    +0.000 NA
ATOM     19  N   UNL     1       2.020   4.060  20.667  0.00  0.00    +0.000 NA
ATOM     20  C   UNL     1       3.291   3.836  20.238  0.00  0.00    +0.000 A 
ATOM     21  C   UNL     1       3.599   4.654  19.162  0.00  0.00    +0.000 A 
BRANCH  21  22
ATOM     22  C   UNL     1       4.828   4.705  18.364  0.00  0.00    +0.000 A 
ATOM     23  C   UNL     1       4.808   4.208  17.048  0.00  0.00    +0.000 A 
ATOM     24  C   UNL     1       5.962   4.191  16.261  0.00  0.00    +0.000 A 
ATOM     25  C   UNL     1       7.158   4.684  16.770  0.00  0.00    +0.000 A 
ATOM     26  C   UNL     1       7.199   5.183  18.068  0.00  0.00    +0.000 A 
ATOM     27  C   UNL     1       6.047   5.181  18.862  0.00  0.00    +0.000 A 
ENDBRANCH  21  22
ENDBRANCH  16  17
ENDBRANCH   6  16
TORSDOF 3
ENDMDL
MODEL 9
REMARK VINA RESULT:      -8.1      3.707      7.821
REMARK  Name = 
REMARK  3 active torsions:
REMARK  status: ('A' for Active; 'I' for Inactive)
REMARK    1  A    between atoms: C_6  and  C_7
REMARK    2  A    between atoms: C_7  and  N_8
REMARK    3  A    between atoms: C_12  and  C_13
REMARK                            x       y       z     vdW  Elec       q    Type
REMARK                         _______ _______ _______ _____ _____    ______ ____
ROOT
ATOM      1  O   UNL     1       1.589   4.174  21.108  0.00  0.00    +0.000 OA
ATOM      2  C   UNL     1       2.045   4.950  20.281  0.00  0.00    +0.000 C 
ATOM      3  C   UNL     1       1.845   6.391  20.398  0.00  0.00    +0.000 C 
ATOM      4  C   UNL     1       2.294   7.271  19.519  0.00  0.00    +0.000 C 
ATOM      5  O   UNL     1       1.979   8.596  19.788  0.00  0.00    +0.000 OA
ATOM      6  C   UNL     1       1.209   8.545  21.026  0.00  0.00    +0.000 C 
ATOM      7  C   UNL     1       1.096   7.068  21.464  0.00  0.00    +0.000 C 
ATOM      8  C   UNL     1       3.052   6.862  18.317  0.00  0.00    +0.000 C 
ATOM      9  O   UNL     1       3.448   7.670  17.486  0.00  0.00    +0.000 OA
ATOM     10  C   UNL     1       3.295   5.405  18.161  0.00  0.00    +0.000 A 
ATOM     11  C   UNL     1       4.008   4.944  17.048  0.00  0.00    +0.000 A 
ATOM     12  C   UNL     1       4.242   3.577  16.886  0.00  0.00    +0.000 A 
ATOM     13  C   UNL     1       3.766   2.666  17.830  0.00  0.00    +0.000 A 
ATOM     14  C   UNL     1       3.051   3.119  18.939  0.00  0.00    +0.000 A 
ATOM     15  C   UNL     1       2.814   4.489  19.105  0.00  0.00    +0.000 A 
ENDROOT
BRANCH   6  16
ATOM     16  C   UNL     1      -0.149   9.210  20.760  0.00  0.00    +0.000 C 
BRANCH  16  17
ATOM     17  N   UNL     1      -0.152  10.654  20.716  0.00  0.00    +0.000 N 
ATOM     18  N   UNL     1       0.620  11.340  21.583  0.00  0.00    +0.000 NA
ATOM     19  N   UNL     1       0.413  12.629  21.390  0.00  0.00    +0.000 NA
ATOM     20  C   UNL     1      -0.467  12.754  20.361  0.00  0.00    +0.000 A 
ATOM     21  C   UNL     1      -0.849  11.509  19.885  0.00  0.00    +0.000 A 
BRANCH  21  22
ATOM     22  C   UNL     1      -1.731  11.182  18.760  0.00  0.00    +0.000 A 
ATOM     23  C   UNL     1      -3.026  11.729  18.728  0.00  0.00    +0.000 A 
ATOM     24  C   UNL     1      -3.923  11.415  17.704  0.00  0.00    +0.000 A 
ATOM     25  C   UNL     1      -3.536  10.555  16.682  0.00  0.00    +0.000 A 
ATOM     26  C   UNL     1      -2.257  10.005  16.693  0.00  0.00    +0.000 A 
ATOM     27  C   UNL     1      -1.369  10.306  17.731  0.00  0.00    +0.000 A 
ENDBRANCH  21  22
ENDBRANCH  16  17
ENDBRANCH   6  16
TORSDOF 3
ENDMDL
