MODEL 1
REMARK VINA RESULT:      -7.5      0.000      0.000
REMARK  Name = 
REMARK  12 active torsions:
REMARK  status: ('A' for Active; 'I' for Inactive)
REMARK    1  A    between atoms: C_1  and  C_2
REMARK    2  A    between atoms: C_2  and  O_3
REMARK    3  A    between atoms: O_3  and  C_4
REMARK    4  A    between atoms: C_5  and  C_6
REMARK    5  A    between atoms: C_6  and  N_7
REMARK    6  A    between atoms: N_7  and  C_8
REMARK    7  A    between atoms: C_8  and  C_9
REMARK    8  A    between atoms: C_9  and  C_10
REMARK    9  A    between atoms: C_10  and  N_11
REMARK   10  A    between atoms: C_14  and  O_15
REMARK   11  A    between atoms: C_27  and  S_28
REMARK   12  A    between atoms: S_28  and  C_29
REMARK                            x       y       z     vdW  Elec       q    Type
REMARK                         _______ _______ _______ _____ _____    ______ ____
ROOT
ATOM      1  C   UNL     1       1.329  10.831  18.843  0.00  0.00    +0.000 C 
ENDROOT
BRANCH   1   2
ATOM      2  N   UNL     1       0.374  11.780  18.268  0.00  0.00    +0.000 NA
ATOM      3  H   UNL     1       0.826  12.675  18.090  0.00  0.00    +0.000 HD
BRANCH   2   4
ATOM      4  C   UNL     1      -0.750  12.013  19.175  0.00  0.00    +0.000 C 
BRANCH   4   6
ATOM      5  C   UNL     1      -3.328  11.957  19.155  0.00  0.00    +0.000 A 
ATOM      6  C   UNL     1      -2.083  11.701  18.518  0.00  0.00    +0.000 A 
ATOM      7  C   UNL     1      -2.059  11.171  17.213  0.00  0.00    +0.000 A 
ATOM      8  C   UNL     1      -3.244  10.930  16.532  0.00  0.00    +0.000 A 
ATOM      9 BR   UNL     1      -3.199  10.258  14.766  0.00  0.00    +0.000 Br
ATOM     10  C   UNL     1      -4.466  11.199  17.136  0.00  0.00    +0.000 A 
ATOM     11  C   UNL     1      -4.530  11.699  18.450  0.00  0.00    +0.000 A 
BRANCH  11  12
ATOM     12  S   UNL     1      -6.215  11.987  19.013  0.00  0.00    +0.000 S 
ATOM     13  C   UNL     1      -6.820  10.281  19.050  0.00  0.00    +0.000 C 
ENDBRANCH  11  12
BRANCH   5  14
ATOM     14  O   UNL     1      -3.202  12.398  20.451  0.00  0.00    +0.000 OA
BRANCH  14  16
ATOM     15  C   UNL     1      -4.457  13.884  21.858  0.00  0.00    +0.000 C 
ATOM     16  C   UNL     1      -3.445  13.771  20.732  0.00  0.00    +0.000 C 
ENDBRANCH  14  16
ENDBRANCH   5  14
ENDBRANCH   4   6
ENDBRANCH   2   4
ENDBRANCH   1   2
BRANCH   1  17
ATOM     17  C   UNL     1       1.918   9.895  17.782  0.00  0.00    +0.000 C 
BRANCH  17  18
ATOM     18  C   UNL     1       1.877   8.433  18.216  0.00  0.00    +0.000 C 
BRANCH  18  19
ATOM     19  N   UNL     1       3.138   7.767  17.888  0.00  0.00    +0.000 N 
ATOM     20  C   UNL     1       3.245   6.497  18.500  0.00  0.00    +0.000 A 
ATOM     21  C   UNL     1       4.419   5.783  18.320  0.00  0.00    +0.000 A 
ATOM     22  C   UNL     1       4.543   4.547  18.941  0.00  0.00    +0.000 A 
ATOM     23  C   UNL     1       3.503   4.034  19.732  0.00  0.00    +0.000 A 
ATOM     24  C   UNL     1       3.572   2.799  20.407  0.00  0.00    +0.000 A 
ATOM     25  C   UNL     1       2.504   2.352  21.185  0.00  0.00    +0.000 A 
ATOM     26  C   UNL     1       1.360   3.129  21.289  0.00  0.00    +0.000 A 
ATOM     27  C   UNL     1       1.290   4.352  20.614  0.00  0.00    +0.000 A 
ATOM     28  C   UNL     1       2.343   4.818  19.838  0.00  0.00    +0.000 A 
ATOM     29  N   UNL     1       2.220   6.009  19.228  0.00  0.00    +0.000 NA
ATOM     30  H   UNL     1       3.936   8.324  18.184  0.00  0.00    +0.000 HD
BRANCH  22  31
ATOM     31  O   UNL     1       5.694   3.820  18.791  0.00  0.00    +0.000 OA
ATOM     32  H   UNL     1       6.111   3.702  19.661  0.00  0.00    +0.000 HD
ENDBRANCH  22  31
ENDBRANCH  18  19
ENDBRANCH  17  18
ENDBRANCH   1  17
TORSDOF 10
ENDMDL
MODEL 2
REMARK VINA RESULT:      -7.5      3.729      9.760
REMARK  Name = 
REMARK  12 active torsions:
REMARK  status: ('A' for Active; 'I' for Inactive)
REMARK    1  A    between atoms: C_1  and  C_2
REMARK    2  A    between atoms: C_2  and  O_3
REMARK    3  A    between atoms: O_3  and  C_4
REMARK    4  A    between atoms: C_5  and  C_6
REMARK    5  A    between atoms: C_6  and  N_7
REMARK    6  A    between atoms: N_7  and  C_8
REMARK    7  A    between atoms: C_8  and  C_9
REMARK    8  A    between atoms: C_9  and  C_10
REMARK    9  A    between atoms: C_10  and  N_11
REMARK   10  A    between atoms: C_14  and  O_15
REMARK   11  A    between atoms: C_27  and  S_28
REMARK   12  A    between atoms: S_28  and  C_29
REMARK                            x       y       z     vdW  Elec       q    Type
REMARK                         _______ _______ _______ _____ _____    ______ ____
ROOT
ATOM      1  C   UNL     1       2.275   9.444  17.862  0.00  0.00    +0.000 C 
ENDROOT
BRANCH   1   2
ATOM      2  N   UNL     1       1.808   8.058  17.942  0.00  0.00    +0.000 NA
ATOM      3  H   UNL     1       0.814   8.030  18.164  0.00  0.00    +0.000 HD
BRANCH   2   4
ATOM      4  C   UNL     1       2.525   7.319  18.982  0.00  0.00    +0.000 C 
BRANCH   4   6
ATOM      5  C   UNL     1       3.043   4.793  18.972  0.00  0.00    +0.000 A 
ATOM      6  C   UNL     1       3.225   6.092  18.424  0.00  0.00    +0.000 A 
ATOM      7  C   UNL     1       4.055   6.269  17.300  0.00  0.00    +0.000 A 
ATOM      8  C   UNL     1       4.668   5.177  16.702  0.00  0.00    +0.000 A 
ATOM      9 BR   UNL     1       5.746   5.420  15.169  0.00  0.00    +0.000 Br
ATOM     10  C   UNL     1       4.477   3.900  17.214  0.00  0.00    +0.000 A 
ATOM     11  C   UNL     1       3.681   3.688  18.355  0.00  0.00    +0.000 A 
BRANCH  11  12
ATOM     12  S   UNL     1       3.565   1.954  18.822  0.00  0.00    +0.000 S 
ATOM     13  C   UNL     1       4.635   1.959  20.283  0.00  0.00    +0.000 C 
ENDBRANCH  11  12
BRANCH   5  14
ATOM     14  O   UNL     1       2.273   4.779  20.111  0.00  0.00    +0.000 OA
BRANCH  14  16
ATOM     15  C   UNL     1       1.149   2.966  21.211  0.00  0.00    +0.000 C 
ATOM     16  C   UNL     1       1.074   4.015  20.116  0.00  0.00    +0.000 C 
ENDBRANCH  14  16
ENDBRANCH   5  14
ENDBRANCH   4   6
ENDBRANCH   2   4
ENDBRANCH   1   2
BRANCH   1  17
ATOM     17  C   UNL     1       1.533  10.358  18.844  0.00  0.00    +0.000 C 
BRANCH  17  18
ATOM     18  C   UNL     1       0.046  10.029  18.926  0.00  0.00    +0.000 C 
BRANCH  18  19
ATOM     19  N   UNL     1      -0.511   9.844  17.586  0.00  0.00    +0.000 N 
ATOM     20  C   UNL     1      -1.799  10.414  17.461  0.00  0.00    +0.000 A 
ATOM     21  C   UNL     1      -2.468  10.257  16.257  0.00  0.00    +0.000 A 
ATOM     22  C   UNL     1      -3.744  10.790  16.136  0.00  0.00    +0.000 A 
ATOM     23  C   UNL     1      -4.342  11.471  17.207  0.00  0.00    +0.000 A 
ATOM     24  C   UNL     1      -5.641  12.016  17.159  0.00  0.00    +0.000 A 
ATOM     25  C   UNL     1      -6.179  12.674  18.265  0.00  0.00    +0.000 A 
ATOM     26  C   UNL     1      -5.424  12.799  19.422  0.00  0.00    +0.000 A 
ATOM     27  C   UNL     1      -4.133  12.263  19.467  0.00  0.00    +0.000 A 
ATOM     28  C   UNL     1      -3.580  11.600  18.380  0.00  0.00    +0.000 A 
ATOM     29  N   UNL     1      -2.340  11.093  18.492  0.00  0.00    +0.000 NA
ATOM     30  H   UNL     1      -0.583   8.856  17.351  0.00  0.00    +0.000 HD
BRANCH  22  31
ATOM     31  O   UNL     1      -4.436  10.645  14.962  0.00  0.00    +0.000 OA
ATOM     32  H   UNL     1      -5.327  11.018  15.071  0.00  0.00    +0.000 HD
ENDBRANCH  22  31
ENDBRANCH  18  19
ENDBRANCH  17  18
ENDBRANCH   1  17
TORSDOF 10
ENDMDL
MODEL 3
REMARK VINA RESULT:      -7.4      2.433      3.939
REMARK  Name = 
REMARK  12 active torsions:
REMARK  status: ('A' for Active; 'I' for Inactive)
REMARK    1  A    between atoms: C_1  and  C_2
REMARK    2  A    between atoms: C_2  and  O_3
REMARK    3  A    between atoms: O_3  and  C_4
REMARK    4  A    between atoms: C_5  and  C_6
REMARK    5  A    between atoms: C_6  and  N_7
REMARK    6  A    between atoms: N_7  and  C_8
REMARK    7  A    between atoms: C_8  and  C_9
REMARK    8  A    between atoms: C_9  and  C_10
REMARK    9  A    between atoms: C_10  and  N_11
REMARK   10  A    between atoms: C_14  and  O_15
REMARK   11  A    between atoms: C_27  and  S_28
REMARK   12  A    between atoms: S_28  and  C_29
REMARK                            x       y       z     vdW  Elec       q    Type
REMARK                         _______ _______ _______ _____ _____    ______ ____
ROOT
ATOM      1  C   UNL     1      -0.256   9.529  20.983  0.00  0.00    +0.000 C 
ENDROOT
BRANCH   1   2
ATOM      2  N   UNL     1      -0.053  10.022  19.619  0.00  0.00    +0.000 NA
ATOM      3  H   UNL     1       0.889   9.806  19.299  0.00  0.00    +0.000 HD
BRANCH   2   4
ATOM      4  C   UNL     1      -0.234  11.472  19.550  0.00  0.00    +0.000 C 
BRANCH   4   6
ATOM      5  C   UNL     1      -2.600  11.660  18.540  0.00  0.00    +0.000 A 
ATOM      6  C   UNL     1      -1.700  11.864  19.622  0.00  0.00    +0.000 A 
ATOM      7  C   UNL     1      -2.168  12.419  20.829  0.00  0.00    +0.000 A 
ATOM      8  C   UNL     1      -3.512  12.733  20.981  0.00  0.00    +0.000 A 
ATOM      9 BR   UNL     1      -4.138  13.438  22.619  0.00  0.00    +0.000 Br
ATOM     10  C   UNL     1      -4.404  12.514  19.939  0.00  0.00    +0.000 A 
ATOM     11  C   UNL     1      -3.967  11.992  18.707  0.00  0.00    +0.000 A 
BRANCH  11  12
ATOM     12  S   UNL     1      -5.301  11.779  17.519  0.00  0.00    +0.000 S 
ATOM     13  C   UNL     1      -6.420  10.745  18.498  0.00  0.00    +0.000 C 
ENDBRANCH  11  12
BRANCH   5  14
ATOM     14  O   UNL     1      -1.993  11.187  17.401  0.00  0.00    +0.000 OA
BRANCH  14  16
ATOM     15  C   UNL     1      -2.729   9.946  15.482  0.00  0.00    +0.000 C 
ATOM     16  C   UNL     1      -2.320   9.880  16.943  0.00  0.00    +0.000 C 
ENDBRANCH  14  16
ENDBRANCH   5  14
ENDBRANCH   4   6
ENDBRANCH   2   4
ENDBRANCH   1   2
BRANCH   1  17
ATOM     17  C   UNL     1       0.965   8.762  21.503  0.00  0.00    +0.000 C 
BRANCH  17  18
ATOM     18  C   UNL     1       1.717   8.048  20.383  0.00  0.00    +0.000 C 
BRANCH  18  19
ATOM     19  N   UNL     1       1.801   6.614  20.657  0.00  0.00    +0.000 N 
ATOM     20  C   UNL     1       2.582   5.932  19.696  0.00  0.00    +0.000 A 
ATOM     21  C   UNL     1       2.693   4.555  19.804  0.00  0.00    +0.000 A 
ATOM     22  C   UNL     1       3.436   3.875  18.848  0.00  0.00    +0.000 A 
ATOM     23  C   UNL     1       4.059   4.567  17.798  0.00  0.00    +0.000 A 
ATOM     24  C   UNL     1       4.807   3.937  16.784  0.00  0.00    +0.000 A 
ATOM     25  C   UNL     1       5.394   4.685  15.763  0.00  0.00    +0.000 A 
ATOM     26  C   UNL     1       5.244   6.064  15.751  0.00  0.00    +0.000 A 
ATOM     27  C   UNL     1       4.506   6.688  16.761  0.00  0.00    +0.000 A 
ATOM     28  C   UNL     1       3.909   5.964  17.784  0.00  0.00    +0.000 A 
ATOM     29  N   UNL     1       3.200   6.621  18.716  0.00  0.00    +0.000 NA
ATOM     30  H   UNL     1       0.876   6.187  20.667  0.00  0.00    +0.000 HD
BRANCH  22  31
ATOM     31  O   UNL     1       3.557   2.512  18.919  0.00  0.00    +0.000 OA
ATOM     32  H   UNL     1       4.200   2.287  19.612  0.00  0.00    +0.000 HD
ENDBRANCH  22  31
ENDBRANCH  18  19
ENDBRANCH  17  18
ENDBRANCH   1  17
TORSDOF 10
ENDMDL
MODEL 4
REMARK VINA RESULT:      -7.3      3.672      9.972
REMARK  Name = 
REMARK  12 active torsions:
REMARK  status: ('A' for Active; 'I' for Inactive)
REMARK    1  A    between atoms: C_1  and  C_2
REMARK    2  A    between atoms: C_2  and  O_3
REMARK    3  A    between atoms: O_3  and  C_4
REMARK    4  A    between atoms: C_5  and  C_6
REMARK    5  A    between atoms: C_6  and  N_7
REMARK    6  A    between atoms: N_7  and  C_8
REMARK    7  A    between atoms: C_8  and  C_9
REMARK    8  A    between atoms: C_9  and  C_10
REMARK    9  A    between atoms: C_10  and  N_11
REMARK   10  A    between atoms: C_14  and  O_15
REMARK   11  A    between atoms: C_27  and  S_28
REMARK   12  A    between atoms: S_28  and  C_29
REMARK                            x       y       z     vdW  Elec       q    Type
REMARK                         _______ _______ _______ _____ _____    ______ ____
ROOT
ATOM      1  C   UNL     1       1.732   9.603  17.945  0.00  0.00    +0.000 C 
ENDROOT
BRANCH   1   2
ATOM      2  N   UNL     1       1.975   8.183  17.680  0.00  0.00    +0.000 NA
ATOM      3  H   UNL     1       1.271   7.610  18.142  0.00  0.00    +0.000 HD
BRANCH   2   4
ATOM      4  C   UNL     1       3.290   7.771  18.174  0.00  0.00    +0.000 C 
BRANCH   4   6
ATOM      5  C   UNL     1       2.990   5.214  18.030  0.00  0.00    +0.000 A 
ATOM      6  C   UNL     1       3.684   6.398  17.658  0.00  0.00    +0.000 A 
ATOM      7  C   UNL     1       4.759   6.325  16.752  0.00  0.00    +0.000 A 
ATOM      8  C   UNL     1       5.123   5.109  16.192  0.00  0.00    +0.000 A 
ATOM      9 BR   UNL     1       6.541   5.028  14.945  0.00  0.00    +0.000 Br
ATOM     10  C   UNL     1       4.436   3.949  16.529  0.00  0.00    +0.000 A 
ATOM     11  C   UNL     1       3.376   3.978  17.456  0.00  0.00    +0.000 A 
BRANCH  11  12
ATOM     12  S   UNL     1       2.628   2.363  17.721  0.00  0.00    +0.000 S 
ATOM     13  C   UNL     1       3.700   1.743  19.041  0.00  0.00    +0.000 C 
ENDBRANCH  11  12
BRANCH   5  14
ATOM     14  O   UNL     1       2.017   5.422  18.979  0.00  0.00    +0.000 OA
BRANCH  14  16
ATOM     15  C   UNL     1       1.199   4.012  20.741  0.00  0.00    +0.000 C 
ATOM     16  C   UNL     1       2.265   5.006  20.316  0.00  0.00    +0.000 C 
ENDBRANCH  14  16
ENDBRANCH   5  14
ENDBRANCH   4   6
ENDBRANCH   2   4
ENDBRANCH   1   2
BRANCH   1  17
ATOM     17  C   UNL     1       0.438   9.826  18.735  0.00  0.00    +0.000 C 
BRANCH  17  18
ATOM     18  C   UNL     1      -0.176  11.196  18.460  0.00  0.00    +0.000 C 
BRANCH  18  19
ATOM     19  N   UNL     1      -1.263  11.082  17.487  0.00  0.00    +0.000 N 
ATOM     20  C   UNL     1      -2.505  11.488  18.027  0.00  0.00    +0.000 A 
ATOM     21  C   UNL     1      -3.632  11.373  17.228  0.00  0.00    +0.000 A 
ATOM     22  C   UNL     1      -4.860  11.743  17.761  0.00  0.00    +0.000 A 
ATOM     23  C   UNL     1      -4.957  12.222  19.075  0.00  0.00    +0.000 A 
ATOM     24  C   UNL     1      -6.172  12.594  19.684  0.00  0.00    +0.000 A 
ATOM     25  C   UNL     1      -6.198  13.055  21.001  0.00  0.00    +0.000 A 
ATOM     26  C   UNL     1      -5.014  13.154  21.715  0.00  0.00    +0.000 A 
ATOM     27  C   UNL     1      -3.807  12.791  21.108  0.00  0.00    +0.000 A 
ATOM     28  C   UNL     1      -3.758  12.325  19.802  0.00  0.00    +0.000 A 
ATOM     29  N   UNL     1      -2.569  11.977  19.282  0.00  0.00    +0.000 NA
ATOM     30  H   UNL     1      -1.364  10.124  17.159  0.00  0.00    +0.000 HD
BRANCH  22  31
ATOM     31  O   UNL     1      -5.995  11.633  17.001  0.00  0.00    +0.000 OA
ATOM     32  H   UNL     1      -5.881  10.909  16.364  0.00  0.00    +0.000 HD
ENDBRANCH  22  31
ENDBRANCH  18  19
ENDBRANCH  17  18
ENDBRANCH   1  17
TORSDOF 10
ENDMDL
MODEL 5
REMARK VINA RESULT:      -7.3      2.364      3.416
REMARK  Name = 
REMARK  12 active torsions:
REMARK  status: ('A' for Active; 'I' for Inactive)
REMARK    1  A    between atoms: C_1  and  C_2
REMARK    2  A    between atoms: C_2  and  O_3
REMARK    3  A    between atoms: O_3  and  C_4
REMARK    4  A    between atoms: C_5  and  C_6
REMARK    5  A    between atoms: C_6  and  N_7
REMARK    6  A    between atoms: N_7  and  C_8
REMARK    7  A    between atoms: C_8  and  C_9
REMARK    8  A    between atoms: C_9  and  C_10
REMARK    9  A    between atoms: C_10  and  N_11
REMARK   10  A    between atoms: C_14  and  O_15
REMARK   11  A    between atoms: C_27  and  S_28
REMARK   12  A    between atoms: S_28  and  C_29
REMARK                            x       y       z     vdW  Elec       q    Type
REMARK                         _______ _______ _______ _____ _____    ______ ____
ROOT
ATOM      1  C   UNL     1       1.079  10.313  18.956  0.00  0.00    +0.000 C 
ENDROOT
BRANCH   1   2
ATOM      2  N   UNL     1      -0.326  10.322  19.369  0.00  0.00    +0.000 NA
ATOM      3  H   UNL     1      -0.598   9.406  19.722  0.00  0.00    +0.000 HD
BRANCH   2   4
ATOM      4  C   UNL     1      -1.204  10.654  18.247  0.00  0.00    +0.000 C 
BRANCH   4   6
ATOM      5  C   UNL     1      -3.738  11.111  18.102  0.00  0.00    +0.000 A 
ATOM      6  C   UNL     1      -2.474  11.349  18.707  0.00  0.00    +0.000 A 
ATOM      7  C   UNL     1      -2.374  12.233  19.800  0.00  0.00    +0.000 A 
ATOM      8  C   UNL     1      -3.510  12.845  20.311  0.00  0.00    +0.000 A 
ATOM      9 BR   UNL     1      -3.371  13.997  21.803  0.00  0.00    +0.000 Br
ATOM     10  C   UNL     1      -4.754  12.600  19.744  0.00  0.00    +0.000 A 
ATOM     11  C   UNL     1      -4.888  11.749  18.631  0.00  0.00    +0.000 A 
BRANCH  11  12
ATOM     12  S   UNL     1      -6.591  11.570  18.081  0.00  0.00    +0.000 S 
ATOM     13  C   UNL     1      -6.797  13.143  17.208  0.00  0.00    +0.000 C 
ENDBRANCH  11  12
BRANCH   5  14
ATOM     14  O   UNL     1      -3.675  10.290  17.001  0.00  0.00    +0.000 OA
BRANCH  14  16
ATOM     15  C   UNL     1      -2.979  10.157  14.708  0.00  0.00    +0.000 C 
ATOM     16  C   UNL     1      -3.876  10.858  15.712  0.00  0.00    +0.000 C 
ENDBRANCH  14  16
ENDBRANCH   5  14
ENDBRANCH   4   6
ENDBRANCH   2   4
ENDBRANCH   1   2
BRANCH   1  17
ATOM     17  C   UNL     1       1.331   9.342  17.796  0.00  0.00    +0.000 C 
BRANCH  17  18
ATOM     18  C   UNL     1       2.375   8.286  18.146  0.00  0.00    +0.000 C 
BRANCH  18  19
ATOM     19  N   UNL     1       2.129   7.747  19.483  0.00  0.00    +0.000 N 
ATOM     20  C   UNL     1       2.367   6.355  19.549  0.00  0.00    +0.000 A 
ATOM     21  C   UNL     1       2.113   5.705  20.746  0.00  0.00    +0.000 A 
ATOM     22  C   UNL     1       2.318   4.333  20.811  0.00  0.00    +0.000 A 
ATOM     23  C   UNL     1       2.771   3.623  19.689  0.00  0.00    +0.000 A 
ATOM     24  C   UNL     1       2.978   2.229  19.679  0.00  0.00    +0.000 A 
ATOM     25  C   UNL     1       3.423   1.582  18.526  0.00  0.00    +0.000 A 
ATOM     26  C   UNL     1       3.670   2.322  17.378  0.00  0.00    +0.000 A 
ATOM     27  C   UNL     1       3.469   3.706  17.391  0.00  0.00    +0.000 A 
ATOM     28  C   UNL     1       3.023   4.369  18.526  0.00  0.00    +0.000 A 
ATOM     29  N   UNL     1       2.835   5.698  18.468  0.00  0.00    +0.000 NA
ATOM     30  H   UNL     1       1.168   7.913  19.775  0.00  0.00    +0.000 HD
BRANCH  22  31
ATOM     31  O   UNL     1       2.067   3.659  21.977  0.00  0.00    +0.000 OA
ATOM     32  H   UNL     1       1.347   4.105  22.452  0.00  0.00    +0.000 HD
ENDBRANCH  22  31
ENDBRANCH  18  19
ENDBRANCH  17  18
ENDBRANCH   1  17
TORSDOF 10
ENDMDL
MODEL 6
REMARK VINA RESULT:      -7.3      3.600      5.983
REMARK  Name = 
REMARK  12 active torsions:
REMARK  status: ('A' for Active; 'I' for Inactive)
REMARK    1  A    between atoms: C_1  and  C_2
REMARK    2  A    between atoms: C_2  and  O_3
REMARK    3  A    between atoms: O_3  and  C_4
REMARK    4  A    between atoms: C_5  and  C_6
REMARK    5  A    between atoms: C_6  and  N_7
REMARK    6  A    between atoms: N_7  and  C_8
REMARK    7  A    between atoms: C_8  and  C_9
REMARK    8  A    between atoms: C_9  and  C_10
REMARK    9  A    between atoms: C_10  and  N_11
REMARK   10  A    between atoms: C_14  and  O_15
REMARK   11  A    between atoms: C_27  and  S_28
REMARK   12  A    between atoms: S_28  and  C_29
REMARK                            x       y       z     vdW  Elec       q    Type
REMARK                         _______ _______ _______ _____ _____    ______ ____
ROOT
ATOM      1  C   UNL     1       1.199   4.146  20.662  0.00  0.00    +0.000 C 
ENDROOT
BRANCH   1   2
ATOM      2  N   UNL     1       2.151   5.219  20.960  0.00  0.00    +0.000 NA
ATOM      3  H   UNL     1       2.684   4.998  21.798  0.00  0.00    +0.000 HD
BRANCH   2   4
ATOM      4  C   UNL     1       1.460   6.490  21.183  0.00  0.00    +0.000 C 
BRANCH   4   6
ATOM      5  C   UNL     1       1.050   8.737  19.986  0.00  0.00    +0.000 A 
ATOM      6  C   UNL     1       1.683   7.465  20.040  0.00  0.00    +0.000 A 
ATOM      7  C   UNL     1       2.583   7.085  19.025  0.00  0.00    +0.000 A 
ATOM      8  C   UNL     1       2.882   7.960  17.990  0.00  0.00    +0.000 A 
ATOM      9 BR   UNL     1       4.121   7.457  16.655  0.00  0.00    +0.000 Br
ATOM     10  C   UNL     1       2.288   9.215  17.940  0.00  0.00    +0.000 A 
ATOM     11  C   UNL     1       1.360   9.617  18.920  0.00  0.00    +0.000 A 
BRANCH  11  12
ATOM     12  S   UNL     1       0.738  11.285  18.659  0.00  0.00    +0.000 S 
ATOM     13  C   UNL     1      -1.012  10.918  18.377  0.00  0.00    +0.000 C 
ENDBRANCH  11  12
BRANCH   5  14
ATOM     14  O   UNL     1       0.141   8.942  20.996  0.00  0.00    +0.000 OA
BRANCH  14  16
ATOM     15  C   UNL     1      -0.097   9.476  23.325  0.00  0.00    +0.000 C 
ATOM     16  C   UNL     1       0.417   9.939  21.973  0.00  0.00    +0.000 C 
ENDBRANCH  14  16
ENDBRANCH   5  14
ENDBRANCH   4   6
ENDBRANCH   2   4
ENDBRANCH   1   2
BRANCH   1  17
ATOM     17  C   UNL     1       1.426   3.548  19.269  0.00  0.00    +0.000 C 
BRANCH  17  18
ATOM     18  C   UNL     1       2.702   2.715  19.201  0.00  0.00    +0.000 C 
BRANCH  18  19
ATOM     19  N   UNL     1       3.831   3.465  19.753  0.00  0.00    +0.000 N 
ATOM     20  C   UNL     1       4.723   3.903  18.748  0.00  0.00    +0.000 A 
ATOM     21  C   UNL     1       5.870   4.575  19.141  0.00  0.00    +0.000 A 
ATOM     22  C   UNL     1       6.764   4.985  18.161  0.00  0.00    +0.000 A 
ATOM     23  C   UNL     1       6.512   4.725  16.806  0.00  0.00    +0.000 A 
ATOM     24  C   UNL     1       7.387   5.092  15.764  0.00  0.00    +0.000 A 
ATOM     25  C   UNL     1       7.079   4.795  14.436  0.00  0.00    +0.000 A 
ATOM     26  C   UNL     1       5.895   4.136  14.139  0.00  0.00    +0.000 A 
ATOM     27  C   UNL     1       5.025   3.776  15.173  0.00  0.00    +0.000 A 
ATOM     28  C   UNL     1       5.314   4.058  16.501  0.00  0.00    +0.000 A 
ATOM     29  N   UNL     1       4.444   3.672  17.449  0.00  0.00    +0.000 NA
ATOM     30  H   UNL     1       4.360   2.899  20.414  0.00  0.00    +0.000 HD
BRANCH  22  31
ATOM     31  O   UNL     1       7.912   5.643  18.516  0.00  0.00    +0.000 OA
ATOM     32  H   UNL     1       7.706   6.287  19.213  0.00  0.00    +0.000 HD
ENDBRANCH  22  31
ENDBRANCH  18  19
ENDBRANCH  17  18
ENDBRANCH   1  17
TORSDOF 10
ENDMDL
MODEL 7
REMARK VINA RESULT:      -7.3      1.677      1.870
REMARK  Name = 
REMARK  12 active torsions:
REMARK  status: ('A' for Active; 'I' for Inactive)
REMARK    1  A    between atoms: C_1  and  C_2
REMARK    2  A    between atoms: C_2  and  O_3
REMARK    3  A    between atoms: O_3  and  C_4
REMARK    4  A    between atoms: C_5  and  C_6
REMARK    5  A    between atoms: C_6  and  N_7
REMARK    6  A    between atoms: N_7  and  C_8
REMARK    7  A    between atoms: C_8  and  C_9
REMARK    8  A    between atoms: C_9  and  C_10
REMARK    9  A    between atoms: C_10  and  N_11
REMARK   10  A    between atoms: C_14  and  O_15
REMARK   11  A    between atoms: C_27  and  S_28
REMARK   12  A    between atoms: S_28  and  C_29
REMARK                            x       y       z     vdW  Elec       q    Type
REMARK                         _______ _______ _______ _____ _____    ______ ____
ROOT
ATOM      1  C   UNL     1      -0.046  10.104  21.269  0.00  0.00    +0.000 C 
ENDROOT
BRANCH   1   2
ATOM      2  N   UNL     1      -0.454   9.762  19.904  0.00  0.00    +0.000 NA
ATOM      3  H   UNL     1       0.212   9.115  19.486  0.00  0.00    +0.000 HD
BRANCH   2   4
ATOM      4  C   UNL     1      -0.522  10.954  19.059  0.00  0.00    +0.000 C 
BRANCH   4   6
ATOM      5  C   UNL     1      -2.983  11.719  18.969  0.00  0.00    +0.000 A 
ATOM      6  C   UNL     1      -1.866  11.080  18.364  0.00  0.00    +0.000 A 
ATOM      7  C   UNL     1      -1.976  10.567  17.057  0.00  0.00    +0.000 A 
ATOM      8  C   UNL     1      -3.157  10.713  16.343  0.00  0.00    +0.000 A 
ATOM      9 BR   UNL     1      -3.280  10.058  14.575  0.00  0.00    +0.000 Br
ATOM     10  C   UNL     1      -4.246  11.358  16.916  0.00  0.00    +0.000 A 
ATOM     11  C   UNL     1      -4.184  11.855  18.231  0.00  0.00    +0.000 A 
BRANCH  11  12
ATOM     12  S   UNL     1      -5.705  12.664  18.751  0.00  0.00    +0.000 S 
ATOM     13  C   UNL     1      -6.344  11.410  19.890  0.00  0.00    +0.000 C 
ENDBRANCH  11  12
BRANCH   5  14
ATOM     14  O   UNL     1      -2.759  12.100  20.271  0.00  0.00    +0.000 OA
BRANCH  14  16
ATOM     15  C   UNL     1      -3.485  14.091  21.398  0.00  0.00    +0.000 C 
ATOM     16  C   UNL     1      -2.410  13.454  20.537  0.00  0.00    +0.000 C 
ENDBRANCH  14  16
ENDBRANCH   5  14
ENDBRANCH   4   6
ENDBRANCH   2   4
ENDBRANCH   1   2
BRANCH   1  17
ATOM     17  C   UNL     1       1.060   9.178  21.787  0.00  0.00    +0.000 C 
BRANCH  17  18
ATOM     18  C   UNL     1       1.147   7.881  20.987  0.00  0.00    +0.000 C 
BRANCH  18  19
ATOM     19  N   UNL     1       2.043   8.046  19.843  0.00  0.00    +0.000 N 
ATOM     20  C   UNL     1       2.387   6.808  19.253  0.00  0.00    +0.000 A 
ATOM     21  C   UNL     1       3.280   6.816  18.193  0.00  0.00    +0.000 A 
ATOM     22  C   UNL     1       3.644   5.602  17.626  0.00  0.00    +0.000 A 
ATOM     23  C   UNL     1       3.118   4.396  18.113  0.00  0.00    +0.000 A 
ATOM     24  C   UNL     1       3.461   3.130  17.599  0.00  0.00    +0.000 A 
ATOM     25  C   UNL     1       2.907   1.968  18.137  0.00  0.00    +0.000 A 
ATOM     26  C   UNL     1       2.003   2.062  19.186  0.00  0.00    +0.000 A 
ATOM     27  C   UNL     1       1.659   3.320  19.692  0.00  0.00    +0.000 A 
ATOM     28  C   UNL     1       2.202   4.488  19.175  0.00  0.00    +0.000 A 
ATOM     29  N   UNL     1       1.843   5.664  19.716  0.00  0.00    +0.000 NA
ATOM     30  H   UNL     1       2.907   8.511  20.116  0.00  0.00    +0.000 HD
BRANCH  22  31
ATOM     31  O   UNL     1       4.533   5.574  16.584  0.00  0.00    +0.000 OA
ATOM     32  H   UNL     1       5.265   4.976  16.807  0.00  0.00    +0.000 HD
ENDBRANCH  22  31
ENDBRANCH  18  19
ENDBRANCH  17  18
ENDBRANCH   1  17
TORSDOF 10
ENDMDL
MODEL 8
REMARK VINA RESULT:      -7.2      2.280      3.743
REMARK  Name = 
REMARK  12 active torsions:
REMARK  status: ('A' for Active; 'I' for Inactive)
REMARK    1  A    between atoms: C_1  and  C_2
REMARK    2  A    between atoms: C_2  and  O_3
REMARK    3  A    between atoms: O_3  and  C_4
REMARK    4  A    between atoms: C_5  and  C_6
REMARK    5  A    between atoms: C_6  and  N_7
REMARK    6  A    between atoms: N_7  and  C_8
REMARK    7  A    between atoms: C_8  and  C_9
REMARK    8  A    between atoms: C_9  and  C_10
REMARK    9  A    between atoms: C_10  and  N_11
REMARK   10  A    between atoms: C_14  and  O_15
REMARK   11  A    between atoms: C_27  and  S_28
REMARK   12  A    between atoms: S_28  and  C_29
REMARK                            x       y       z     vdW  Elec       q    Type
REMARK                         _______ _______ _______ _____ _____    ______ ____
ROOT
ATOM      1  C   UNL     1       1.307  10.177  18.839  0.00  0.00    +0.000 C 
ENDROOT
BRANCH   1   2
ATOM      2  N   UNL     1       0.256  10.948  18.172  0.00  0.00    +0.000 NA
ATOM      3  H   UNL     1       0.115  11.839  18.645  0.00  0.00    +0.000 HD
BRANCH   2   4
ATOM      4  C   UNL     1      -1.015  10.224  18.179  0.00  0.00    +0.000 C 
BRANCH   4   6
ATOM      5  C   UNL     1      -3.448  11.075  18.091  0.00  0.00    +0.000 A 
ATOM      6  C   UNL     1      -2.157  11.089  18.685  0.00  0.00    +0.000 A 
ATOM      7  C   UNL     1      -1.911  11.902  19.809  0.00  0.00    +0.000 A 
ATOM      8  C   UNL     1      -2.932  12.662  20.361  0.00  0.00    +0.000 A 
ATOM      9 BR   UNL     1      -2.602  13.718  21.894  0.00  0.00    +0.000 Br
ATOM     10  C   UNL     1      -4.204  12.637  19.803  0.00  0.00    +0.000 A 
ATOM     11  C   UNL     1      -4.480  11.861  18.661  0.00  0.00    +0.000 A 
BRANCH  11  12
ATOM     12  S   UNL     1      -6.195  11.972  18.131  0.00  0.00    +0.000 S 
ATOM     13  C   UNL     1      -6.824  10.413  18.804  0.00  0.00    +0.000 C 
ENDBRANCH  11  12
BRANCH   5  14
ATOM     14  O   UNL     1      -3.524  10.299  16.958  0.00  0.00    +0.000 OA
BRANCH  14  16
ATOM     15  C   UNL     1      -2.939  10.074  14.641  0.00  0.00    +0.000 C 
ATOM     16  C   UNL     1      -3.606  10.943  15.692  0.00  0.00    +0.000 C 
ENDBRANCH  14  16
ENDBRANCH   5  14
ENDBRANCH   4   6
ENDBRANCH   2   4
ENDBRANCH   1   2
BRANCH   1  17
ATOM     17  C   UNL     1       0.745   9.276  19.945  0.00  0.00    +0.000 C 
BRANCH  17  18
ATOM     18  C   UNL     1       1.844   8.530  20.695  0.00  0.00    +0.000 C 
BRANCH  18  19
ATOM     19  N   UNL     1       1.456   7.137  20.918  0.00  0.00    +0.000 N 
ATOM     20  C   UNL     1       2.083   6.257  20.007  0.00  0.00    +0.000 A 
ATOM     21  C   UNL     1       1.756   4.911  20.070  0.00  0.00    +0.000 A 
ATOM     22  C   UNL     1       2.347   4.044  19.160  0.00  0.00    +0.000 A 
ATOM     23  C   UNL     1       3.254   4.520  18.202  0.00  0.00    +0.000 A 
ATOM     24  C   UNL     1       3.872   3.700  17.237  0.00  0.00    +0.000 A 
ATOM     25  C   UNL     1       4.759   4.239  16.305  0.00  0.00    +0.000 A 
ATOM     26  C   UNL     1       5.040   5.597  16.334  0.00  0.00    +0.000 A 
ATOM     27  C   UNL     1       4.431   6.410  17.296  0.00  0.00    +0.000 A 
ATOM     28  C   UNL     1       3.542   5.895  18.229  0.00  0.00    +0.000 A 
ATOM     29  N   UNL     1       2.978   6.731  19.117  0.00  0.00    +0.000 NA
ATOM     30  H   UNL     1       0.450   7.017  20.826  0.00  0.00    +0.000 HD
BRANCH  22  31
ATOM     31  O   UNL     1       2.038   2.710  19.189  0.00  0.00    +0.000 OA
ATOM     32  H   UNL     1       2.836   2.195  18.987  0.00  0.00    +0.000 HD
ENDBRANCH  22  31
ENDBRANCH  18  19
ENDBRANCH  17  18
ENDBRANCH   1  17
TORSDOF 10
ENDMDL
MODEL 9
REMARK VINA RESULT:      -7.2      1.463      1.937
REMARK  Name = 
REMARK  12 active torsions:
REMARK  status: ('A' for Active; 'I' for Inactive)
REMARK    1  A    between atoms: C_1  and  C_2
REMARK    2  A    between atoms: C_2  and  O_3
REMARK    3  A    between atoms: O_3  and  C_4
REMARK    4  A    between atoms: C_5  and  C_6
REMARK    5  A    between atoms: C_6  and  N_7
REMARK    6  A    between atoms: N_7  and  C_8
REMARK    7  A    between atoms: C_8  and  C_9
REMARK    8  A    between atoms: C_9  and  C_10
REMARK    9  A    between atoms: C_10  and  N_11
REMARK   10  A    between atoms: C_14  and  O_15
REMARK   11  A    between atoms: C_27  and  S_28
REMARK   12  A    between atoms: S_28  and  C_29
REMARK                            x       y       z     vdW  Elec       q    Type
REMARK                         _______ _______ _______ _____ _____    ______ ____
ROOT
ATOM      1  C   UNL     1       1.052  10.369  18.881  0.00  0.00    +0.000 C 
ENDROOT
BRANCH   1   2
ATOM      2  N   UNL     1      -0.279  10.264  19.485  0.00  0.00    +0.000 NA
ATOM      3  H   UNL     1      -0.842   9.578  18.986  0.00  0.00    +0.000 HD
BRANCH   2   4
ATOM      4  C   UNL     1      -0.981  11.547  19.441  0.00  0.00    +0.000 C 
BRANCH   4   6
ATOM      5  C   UNL     1      -3.512  11.933  19.131  0.00  0.00    +0.000 A 
ATOM      6  C   UNL     1      -2.265  11.462  18.635  0.00  0.00    +0.000 A 
ATOM      7  C   UNL     1      -2.186  10.924  17.336  0.00  0.00    +0.000 A 
ATOM      8  C   UNL     1      -3.311  10.883  16.524  0.00  0.00    +0.000 A 
ATOM      9 BR   UNL     1      -3.185  10.197  14.767  0.00  0.00    +0.000 Br
ATOM     10  C   UNL     1      -4.529  11.363  16.990  0.00  0.00    +0.000 A 
ATOM     11  C   UNL     1      -4.654  11.878  18.294  0.00  0.00    +0.000 A 
BRANCH  11  12
ATOM     12  S   UNL     1      -6.316  12.455  18.667  0.00  0.00    +0.000 S 
ATOM     13  C   UNL     1      -6.789  11.235  19.918  0.00  0.00    +0.000 C 
ENDBRANCH  11  12
BRANCH   5  14
ATOM     14  O   UNL     1      -3.459  12.358  20.438  0.00  0.00    +0.000 OA
BRANCH  14  16
ATOM     15  C   UNL     1      -4.618  14.038  21.701  0.00  0.00    +0.000 C 
ATOM     16  C   UNL     1      -3.507  13.754  20.705  0.00  0.00    +0.000 C 
ENDBRANCH  14  16
ENDBRANCH   5  14
ENDBRANCH   4   6
ENDBRANCH   2   4
ENDBRANCH   1   2
BRANCH   1  17
ATOM     17  C   UNL     1       1.287   9.290  17.819  0.00  0.00    +0.000 C 
BRANCH  17  18
ATOM     18  C   UNL     1       2.397   8.321  18.217  0.00  0.00    +0.000 C 
BRANCH  18  19
ATOM     19  N   UNL     1       2.131   7.756  19.540  0.00  0.00    +0.000 N 
ATOM     20  C   UNL     1       2.361   6.362  19.580  0.00  0.00    +0.000 A 
ATOM     21  C   UNL     1       2.089   5.690  20.762  0.00  0.00    +0.000 A 
ATOM     22  C   UNL     1       2.287   4.316  20.800  0.00  0.00    +0.000 A 
ATOM     23  C   UNL     1       2.751   3.626  19.671  0.00  0.00    +0.000 A 
ATOM     24  C   UNL     1       2.952   2.231  19.635  0.00  0.00    +0.000 A 
ATOM     25  C   UNL     1       3.408   1.606  18.474  0.00  0.00    +0.000 A 
ATOM     26  C   UNL     1       3.673   2.367  17.345  0.00  0.00    +0.000 A 
ATOM     27  C   UNL     1       3.479   3.752  17.384  0.00  0.00    +0.000 A 
ATOM     28  C   UNL     1       3.021   4.394  18.526  0.00  0.00    +0.000 A 
ATOM     29  N   UNL     1       2.840   5.725  18.493  0.00  0.00    +0.000 NA
ATOM     30  H   UNL     1       1.167   7.921  19.824  0.00  0.00    +0.000 HD
BRANCH  22  31
ATOM     31  O   UNL     1       2.018   3.619  21.949  0.00  0.00    +0.000 OA
ATOM     32  H   UNL     1       1.096   3.315  21.928  0.00  0.00    +0.000 HD
ENDBRANCH  22  31
ENDBRANCH  18  19
ENDBRANCH  17  18
ENDBRANCH   1  17
TORSDOF 10
ENDMDL
