MODEL 1
REMARK VINA RESULT:      -8.0      0.000      0.000
REMARK  Name = 
REMARK  8 active torsions:
REMARK  status: ('A' for Active; 'I' for Inactive)
REMARK    1  A    between atoms: C_1  and  C_2
REMARK    2  A    between atoms: C_2  and  O_3
REMARK    3  A    between atoms: O_3  and  C_4
REMARK    4  A    between atoms: C_7  and  S_8
REMARK    5  A    between atoms: S_8  and  N_11
REMARK    6  A    between atoms: N_11  and  C_12
REMARK    7  A    between atoms: C_12  and  C_13
REMARK    8  A    between atoms: C_13  and  N_14
REMARK                            x       y       z     vdW  Elec       q    Type
REMARK                         _______ _______ _______ _____ _____    ______ ____
ROOT
ATOM      1  N   UNL     1       4.813   5.731  19.005  0.00  0.00    +0.000 NA
ATOM      2  H   UNL     1       4.497   6.167  18.134  0.00  0.00    +0.000 HD
ENDROOT
BRANCH   1   3
ATOM      3  S   UNL     1       6.063   4.628  18.778  0.00  0.00    +0.000 S 
ATOM      4  O   UNL     1       5.598   3.360  19.294  0.00  0.00    +0.000 OA
ATOM      5  O   UNL     1       7.287   5.237  19.257  0.00  0.00    +0.000 OA
BRANCH   3   9
ATOM      6  C   UNL     1       6.285   4.379  14.210  0.00  0.00    +0.000 A 
ATOM      7  C   UNL     1       5.135   3.962  14.885  0.00  0.00    +0.000 A 
ATOM      8  C   UNL     1       5.069   4.013  16.280  0.00  0.00    +0.000 A 
ATOM      9  C   UNL     1       6.173   4.464  17.008  0.00  0.00    +0.000 A 
ATOM     10  C   UNL     1       7.336   4.864  16.344  0.00  0.00    +0.000 A 
ATOM     11  C   UNL     1       7.394   4.811  14.944  0.00  0.00    +0.000 A 
BRANCH   6  12
ATOM     12  O   UNL     1       6.207   4.307  12.848  0.00  0.00    +0.000 OA
BRANCH  12  14
ATOM     13  C   UNL     1       4.537   3.256  11.517  0.00  0.00    +0.000 C 
ATOM     14  C   UNL     1       5.832   3.049  12.285  0.00  0.00    +0.000 C 
ENDBRANCH  12  14
ENDBRANCH   6  12
ENDBRANCH   3   9
ENDBRANCH   1   3
BRANCH   1  15
ATOM     15  C   UNL     1       3.750   5.362  19.955  0.00  0.00    +0.000 C 
BRANCH  15  16
ATOM     16  C   UNL     1       2.317   5.838  19.478  0.00  0.00    +0.000 C 
ATOM     17  C   UNL     1       2.047   5.162  18.096  0.00  0.00    +0.000 C 
ATOM     18  C   UNL     1       1.928   3.637  18.163  0.00  0.00    +0.000 C 
ATOM     19  C   UNL     1       0.885   3.196  19.181  0.00  0.00    +0.000 C 
ATOM     20  C   UNL     1       1.153   3.781  20.564  0.00  0.00    +0.000 C 
ATOM     21  C   UNL     1       1.262   5.305  20.505  0.00  0.00    +0.000 C 
BRANCH  16  22
ATOM     22  N   UNL     1       2.237   7.359  19.402  0.00  0.00    +0.000 NA
ATOM     23  C   UNL     1       2.001   7.874  18.032  0.00  0.00    +0.000 C 
ATOM     24  C   UNL     1       2.008   9.406  17.955  0.00  0.00    +0.000 C 
ATOM     25  C   UNL     1       1.006  10.025  18.916  0.00  0.00    +0.000 C 
ATOM     26  C   UNL     1       1.245   9.480  20.311  0.00  0.00    +0.000 C 
ATOM     27  C   UNL     1       1.228   7.951  20.315  0.00  0.00    +0.000 C 
ENDBRANCH  16  22
ENDBRANCH  15  16
ENDBRANCH   1  15
TORSDOF 7
ENDMDL
MODEL 2
REMARK VINA RESULT:      -7.7      0.890      1.353
REMARK  Name = 
REMARK  8 active torsions:
REMARK  status: ('A' for Active; 'I' for Inactive)
REMARK    1  A    between atoms: C_1  and  C_2
REMARK    2  A    between atoms: C_2  and  O_3
REMARK    3  A    between atoms: O_3  and  C_4
REMARK    4  A    between atoms: C_7  and  S_8
REMARK    5  A    between atoms: S_8  and  N_11
REMARK    6  A    between atoms: N_11  and  C_12
REMARK    7  A    between atoms: C_12  and  C_13
REMARK    8  A    between atoms: C_13  and  N_14
REMARK                            x       y       z     vdW  Elec       q    Type
REMARK                         _______ _______ _______ _____ _____    ______ ____
ROOT
ATOM      1  N   UNL     1       5.017   5.957  18.395  0.00  0.00    +0.000 NA
ATOM      2  H   UNL     1       4.511   6.400  17.623  0.00  0.00    +0.000 HD
ENDROOT
BRANCH   1   3
ATOM      3  S   UNL     1       6.575   5.479  17.979  0.00  0.00    +0.000 S 
ATOM      4  O   UNL     1       6.859   4.280  18.735  0.00  0.00    +0.000 OA
ATOM      5  O   UNL     1       7.434   6.643  18.056  0.00  0.00    +0.000 OA
BRANCH   3   9
ATOM      6  C   UNL     1       6.282   4.083  13.626  0.00  0.00    +0.000 A 
ATOM      7  C   UNL     1       7.398   4.801  14.064  0.00  0.00    +0.000 A 
ATOM      8  C   UNL     1       7.484   5.250  15.384  0.00  0.00    +0.000 A 
ATOM      9  C   UNL     1       6.432   4.999  16.270  0.00  0.00    +0.000 A 
ATOM     10  C   UNL     1       5.302   4.300  15.836  0.00  0.00    +0.000 A 
ATOM     11  C   UNL     1       5.224   3.852  14.510  0.00  0.00    +0.000 A 
BRANCH   6  12
ATOM     12  O   UNL     1       6.339   3.676  12.323  0.00  0.00    +0.000 OA
BRANCH  12  14
ATOM     13  C   UNL     1       6.042   1.528  11.342  0.00  0.00    +0.000 C 
ATOM     14  C   UNL     1       5.335   2.758  11.886  0.00  0.00    +0.000 C 
ENDBRANCH  12  14
ENDBRANCH   6  12
ENDBRANCH   3   9
ENDBRANCH   1   3
BRANCH   1  15
ATOM     15  C   UNL     1       4.227   5.035  19.229  0.00  0.00    +0.000 C 
BRANCH  15  16
ATOM     16  C   UNL     1       2.688   5.407  19.254  0.00  0.00    +0.000 C 
ATOM     17  C   UNL     1       2.049   4.799  17.964  0.00  0.00    +0.000 C 
ATOM     18  C   UNL     1       2.061   3.268  17.928  0.00  0.00    +0.000 C 
ATOM     19  C   UNL     1       1.417   2.668  19.171  0.00  0.00    +0.000 C 
ATOM     20  C   UNL     1       2.060   3.186  20.453  0.00  0.00    +0.000 C 
ATOM     21  C   UNL     1       2.041   4.714  20.500  0.00  0.00    +0.000 C 
BRANCH  16  22
ATOM     22  N   UNL     1       2.485   6.915  19.342  0.00  0.00    +0.000 NA
ATOM     23  C   UNL     1       2.020   7.528  18.075  0.00  0.00    +0.000 C 
ATOM     24  C   UNL     1       1.902   9.056  18.151  0.00  0.00    +0.000 C 
ATOM     25  C   UNL     1       1.003   9.496  19.295  0.00  0.00    +0.000 C 
ATOM     26  C   UNL     1       1.478   8.852  20.584  0.00  0.00    +0.000 C 
ATOM     27  C   UNL     1       1.574   7.333  20.437  0.00  0.00    +0.000 C 
ENDBRANCH  16  22
ENDBRANCH  15  16
ENDBRANCH   1  15
TORSDOF 7
ENDMDL
MODEL 3
REMARK VINA RESULT:      -7.7      1.438      1.756
REMARK  Name = 
REMARK  8 active torsions:
REMARK  status: ('A' for Active; 'I' for Inactive)
REMARK    1  A    between atoms: C_1  and  C_2
REMARK    2  A    between atoms: C_2  and  O_3
REMARK    3  A    between atoms: O_3  and  C_4
REMARK    4  A    between atoms: C_7  and  S_8
REMARK    5  A    between atoms: S_8  and  N_11
REMARK    6  A    between atoms: N_11  and  C_12
REMARK    7  A    between atoms: C_12  and  C_13
REMARK    8  A    between atoms: C_13  and  N_14
REMARK                            x       y       z     vdW  Elec       q    Type
REMARK                         _______ _______ _______ _____ _____    ______ ____
ROOT
ATOM      1  N   UNL     1       5.843   5.814  19.438  0.00  0.00    +0.000 NA
ATOM      2  H   UNL     1       5.305   6.684  19.382  0.00  0.00    +0.000 HD
ENDROOT
BRANCH   1   3
ATOM      3  S   UNL     1       7.250   5.844  18.516  0.00  0.00    +0.000 S 
ATOM      4  O   UNL     1       8.084   4.764  18.994  0.00  0.00    +0.000 OA
ATOM      5  O   UNL     1       7.729   7.210  18.479  0.00  0.00    +0.000 OA
BRANCH   3   9
ATOM      6  C   UNL     1       5.686   4.620  14.388  0.00  0.00    +0.000 A 
ATOM      7  C   UNL     1       6.554   3.781  15.093  0.00  0.00    +0.000 A 
ATOM      8  C   UNL     1       7.054   4.158  16.342  0.00  0.00    +0.000 A 
ATOM      9  C   UNL     1       6.700   5.397  16.882  0.00  0.00    +0.000 A 
ATOM     10  C   UNL     1       5.849   6.253  16.177  0.00  0.00    +0.000 A 
ATOM     11  C   UNL     1       5.351   5.867  14.925  0.00  0.00    +0.000 A 
BRANCH   6  12
ATOM     12  O   UNL     1       5.247   4.119  13.196  0.00  0.00    +0.000 OA
BRANCH  12  14
ATOM     13  C   UNL     1       7.193   4.480  11.873  0.00  0.00    +0.000 C 
ATOM     14  C   UNL     1       6.208   3.441  12.384  0.00  0.00    +0.000 C 
ENDBRANCH  12  14
ENDBRANCH   6  12
ENDBRANCH   3   9
ENDBRANCH   1   3
BRANCH   1  15
ATOM     15  C   UNL     1       5.050   4.572  19.421  0.00  0.00    +0.000 C 
BRANCH  15  16
ATOM     16  C   UNL     1       3.525   4.831  19.082  0.00  0.00    +0.000 C 
ATOM     17  C   UNL     1       3.274   4.268  17.646  0.00  0.00    +0.000 C 
ATOM     18  C   UNL     1       3.426   2.748  17.539  0.00  0.00    +0.000 C 
ATOM     19  C   UNL     1       2.553   2.021  18.553  0.00  0.00    +0.000 C 
ATOM     20  C   UNL     1       2.818   2.494  19.978  0.00  0.00    +0.000 C 
ATOM     21  C   UNL     1       2.657   4.010  20.094  0.00  0.00    +0.000 C 
BRANCH  16  22
ATOM     22  N   UNL     1       3.178   6.311  19.190  0.00  0.00    +0.000 NA
ATOM     23  C   UNL     1       2.812   6.933  17.895  0.00  0.00    +0.000 C 
ATOM     24  C   UNL     1       2.548   8.440  18.003  0.00  0.00    +0.000 C 
ATOM     25  C   UNL     1       1.484   8.755  19.043  0.00  0.00    +0.000 C 
ATOM     26  C   UNL     1       1.861   8.102  20.359  0.00  0.00    +0.000 C 
ATOM     27  C   UNL     1       2.111   6.605  20.180  0.00  0.00    +0.000 C 
ENDBRANCH  16  22
ENDBRANCH  15  16
ENDBRANCH   1  15
TORSDOF 7
ENDMDL
MODEL 4
REMARK VINA RESULT:      -7.5      1.210      1.400
REMARK  Name = 
REMARK  8 active torsions:
REMARK  status: ('A' for Active; 'I' for Inactive)
REMARK    1  A    between atoms: C_1  and  C_2
REMARK    2  A    between atoms: C_2  and  O_3
REMARK    3  A    between atoms: O_3  and  C_4
REMARK    4  A    between atoms: C_7  and  S_8
REMARK    5  A    between atoms: S_8  and  N_11
REMARK    6  A    between atoms: N_11  and  C_12
REMARK    7  A    between atoms: C_12  and  C_13
REMARK    8  A    between atoms: C_13  and  N_14
REMARK                            x       y       z     vdW  Elec       q    Type
REMARK                         _______ _______ _______ _____ _____    ______ ____
ROOT
ATOM      1  N   UNL     1       5.273   5.846  18.136  0.00  0.00    +0.000 NA
ATOM      2  H   UNL     1       4.697   6.294  17.416  0.00  0.00    +0.000 HD
ENDROOT
BRANCH   1   3
ATOM      3  S   UNL     1       6.831   5.487  17.611  0.00  0.00    +0.000 S 
ATOM      4  O   UNL     1       7.292   4.373  18.407  0.00  0.00    +0.000 OA
ATOM      5  O   UNL     1       7.574   6.728  17.542  0.00  0.00    +0.000 OA
BRANCH   3   9
ATOM      6  C   UNL     1       6.128   4.085  13.307  0.00  0.00    +0.000 A 
ATOM      7  C   UNL     1       5.244   3.716  14.324  0.00  0.00    +0.000 A 
ATOM      8  C   UNL     1       5.464   4.120  15.643  0.00  0.00    +0.000 A 
ATOM      9  C   UNL     1       6.593   4.883  15.952  0.00  0.00    +0.000 A 
ATOM     10  C   UNL     1       7.496   5.239  14.947  0.00  0.00    +0.000 A 
ATOM     11  C   UNL     1       7.267   4.830  13.625  0.00  0.00    +0.000 A 
BRANCH   6  12
ATOM     12  O   UNL     1       5.780   3.650  12.059  0.00  0.00    +0.000 OA
BRANCH  12  14
ATOM     13  C   UNL     1       7.158   1.955  11.114  0.00  0.00    +0.000 C 
ATOM     14  C   UNL     1       5.844   2.243  11.822  0.00  0.00    +0.000 C 
ENDBRANCH  12  14
ENDBRANCH   6  12
ENDBRANCH   3   9
ENDBRANCH   1   3
BRANCH   1  15
ATOM     15  C   UNL     1       4.589   4.836  18.961  0.00  0.00    +0.000 C 
BRANCH  15  16
ATOM     16  C   UNL     1       3.032   5.100  19.078  0.00  0.00    +0.000 C 
ATOM     17  C   UNL     1       2.380   4.586  17.754  0.00  0.00    +0.000 C 
ATOM     18  C   UNL     1       2.486   3.071  17.558  0.00  0.00    +0.000 C 
ATOM     19  C   UNL     1       1.932   2.306  18.753  0.00  0.00    +0.000 C 
ATOM     20  C   UNL     1       2.593   2.733  20.060  0.00  0.00    +0.000 C 
ATOM     21  C   UNL     1       2.481   4.243  20.266  0.00  0.00    +0.000 C 
BRANCH  16  22
ATOM     22  N   UNL     1       2.739   6.575  19.329  0.00  0.00    +0.000 NA
ATOM     23  C   UNL     1       2.287   7.306  18.121  0.00  0.00    +0.000 C 
ATOM     24  C   UNL     1       2.077   8.806  18.367  0.00  0.00    +0.000 C 
ATOM     25  C   UNL     1       1.112   9.062  19.513  0.00  0.00    +0.000 C 
ATOM     26  C   UNL     1       1.575   8.297  20.739  0.00  0.00    +0.000 C 
ATOM     27  C   UNL     1       1.765   6.814  20.424  0.00  0.00    +0.000 C 
ENDBRANCH  16  22
ENDBRANCH  15  16
ENDBRANCH   1  15
TORSDOF 7
ENDMDL
MODEL 5
REMARK VINA RESULT:      -7.4      2.508      7.672
REMARK  Name = 
REMARK  8 active torsions:
REMARK  status: ('A' for Active; 'I' for Inactive)
REMARK    1  A    between atoms: C_1  and  C_2
REMARK    2  A    between atoms: C_2  and  O_3
REMARK    3  A    between atoms: O_3  and  C_4
REMARK    4  A    between atoms: C_7  and  S_8
REMARK    5  A    between atoms: S_8  and  N_11
REMARK    6  A    between atoms: N_11  and  C_12
REMARK    7  A    between atoms: C_12  and  C_13
REMARK    8  A    between atoms: C_13  and  N_14
REMARK                            x       y       z     vdW  Elec       q    Type
REMARK                         _______ _______ _______ _____ _____    ______ ____
ROOT
ATOM      1  N   UNL     1       3.818   4.559  16.815  0.00  0.00    +0.000 NA
ATOM      2  H   UNL     1       3.816   5.580  16.737  0.00  0.00    +0.000 HD
ENDROOT
BRANCH   1   3
ATOM      3  S   UNL     1       2.888   3.990  18.097  0.00  0.00    +0.000 S 
ATOM      4  O   UNL     1       3.792   3.310  18.997  0.00  0.00    +0.000 OA
ATOM      5  O   UNL     1       1.728   3.323  17.543  0.00  0.00    +0.000 OA
BRANCH   3   9
ATOM      6  C   UNL     1       1.658   7.822  20.283  0.00  0.00    +0.000 A 
ATOM      7  C   UNL     1       1.491   6.576  20.893  0.00  0.00    +0.000 A 
ATOM      8  C   UNL     1       1.842   5.401  20.223  0.00  0.00    +0.000 A 
ATOM      9  C   UNL     1       2.344   5.472  18.921  0.00  0.00    +0.000 A 
ATOM     10  C   UNL     1       2.496   6.711  18.294  0.00  0.00    +0.000 A 
ATOM     11  C   UNL     1       2.142   7.886  18.973  0.00  0.00    +0.000 A 
BRANCH   6  12
ATOM     12  O   UNL     1       1.305   8.891  21.058  0.00  0.00    +0.000 OA
BRANCH  12  14
ATOM     13  C   UNL     1       0.161   9.461  23.066  0.00  0.00    +0.000 C 
ATOM     14  C   UNL     1       0.022   8.841  21.685  0.00  0.00    +0.000 C 
ENDBRANCH  12  14
ENDBRANCH   6  12
ENDBRANCH   3   9
ENDBRANCH   1   3
BRANCH   1  15
ATOM     15  C   UNL     1       5.117   3.905  16.580  0.00  0.00    +0.000 C 
BRANCH  15  16
ATOM     16  C   UNL     1       6.190   4.892  15.960  0.00  0.00    +0.000 C 
ATOM     17  C   UNL     1       5.832   6.329  16.459  0.00  0.00    +0.000 C 
ATOM     18  C   UNL     1       5.985   6.517  17.971  0.00  0.00    +0.000 C 
ATOM     19  C   UNL     1       7.374   6.120  18.452  0.00  0.00    +0.000 C 
ATOM     20  C   UNL     1       7.735   4.696  18.043  0.00  0.00    +0.000 C 
ATOM     21  C   UNL     1       7.594   4.504  16.533  0.00  0.00    +0.000 C 
BRANCH  16  22
ATOM     22  N   UNL     1       6.211   4.799  14.439  0.00  0.00    +0.000 NA
ATOM     23  C   UNL     1       7.540   5.077  13.844  0.00  0.00    +0.000 C 
ATOM     24  C   UNL     1       7.529   5.064  12.309  0.00  0.00    +0.000 C 
ATOM     25  C   UNL     1       6.984   3.756  11.759  0.00  0.00    +0.000 C 
ATOM     26  C   UNL     1       5.632   3.472  12.386  0.00  0.00    +0.000 C 
ATOM     27  C   UNL     1       5.715   3.502  13.912  0.00  0.00    +0.000 C 
ENDBRANCH  16  22
ENDBRANCH  15  16
ENDBRANCH   1  15
TORSDOF 7
ENDMDL
MODEL 6
REMARK VINA RESULT:      -7.3      3.781      8.380
REMARK  Name = 
REMARK  8 active torsions:
REMARK  status: ('A' for Active; 'I' for Inactive)
REMARK    1  A    between atoms: C_1  and  C_2
REMARK    2  A    between atoms: C_2  and  O_3
REMARK    3  A    between atoms: O_3  and  C_4
REMARK    4  A    between atoms: C_7  and  S_8
REMARK    5  A    between atoms: S_8  and  N_11
REMARK    6  A    between atoms: N_11  and  C_12
REMARK    7  A    between atoms: C_12  and  C_13
REMARK    8  A    between atoms: C_13  and  N_14
REMARK                            x       y       z     vdW  Elec       q    Type
REMARK                         _______ _______ _______ _____ _____    ______ ____
ROOT
ATOM      1  N   UNL     1       2.453   7.747  18.882  0.00  0.00    +0.000 NA
ATOM      2  H   UNL     1       2.294   7.486  19.859  0.00  0.00    +0.000 HD
ENDROOT
BRANCH   1   3
ATOM      3  S   UNL     1       1.622   9.137  18.424  0.00  0.00    +0.000 S 
ATOM      4  O   UNL     1       0.523   8.709  17.588  0.00  0.00    +0.000 OA
ATOM      5  O   UNL     1       2.594  10.104  17.959  0.00  0.00    +0.000 OA
BRANCH   3   9
ATOM      6  C   UNL     1      -0.348  10.615  22.286  0.00  0.00    +0.000 A 
ATOM      7  C   UNL     1      -0.220  11.468  21.187  0.00  0.00    +0.000 A 
ATOM      8  C   UNL     1       0.401  11.032  20.014  0.00  0.00    +0.000 A 
ATOM      9  C   UNL     1       0.919   9.736  19.947  0.00  0.00    +0.000 A 
ATOM     10  C   UNL     1       0.815   8.881  21.048  0.00  0.00    +0.000 A 
ATOM     11  C   UNL     1       0.190   9.326  22.221  0.00  0.00    +0.000 A 
BRANCH   6  12
ATOM     12  O   UNL     1      -1.002  11.155  23.358  0.00  0.00    +0.000 OA
BRANCH  12  14
ATOM     13  C   UNL     1      -3.106  12.264  23.453  0.00  0.00    +0.000 C 
ATOM     14  C   UNL     1      -1.622  12.427  23.165  0.00  0.00    +0.000 C 
ENDBRANCH  12  14
ENDBRANCH   6  12
ENDBRANCH   3   9
ENDBRANCH   1   3
BRANCH   1  15
ATOM     15  C   UNL     1       2.483   6.631  17.921  0.00  0.00    +0.000 C 
BRANCH  15  16
ATOM     16  C   UNL     1       3.310   5.391  18.457  0.00  0.00    +0.000 C 
ATOM     17  C   UNL     1       3.078   5.320  20.001  0.00  0.00    +0.000 C 
ATOM     18  C   UNL     1       1.634   5.002  20.397  0.00  0.00    +0.000 C 
ATOM     19  C   UNL     1       1.130   3.731  19.727  0.00  0.00    +0.000 C 
ATOM     20  C   UNL     1       1.276   3.790  18.210  0.00  0.00    +0.000 C 
ATOM     21  C   UNL     1       2.718   4.095  17.807  0.00  0.00    +0.000 C 
BRANCH  16  22
ATOM     22  N   UNL     1       4.787   5.517  18.101  0.00  0.00    +0.000 NA
ATOM     23  C   UNL     1       5.694   5.374  19.265  0.00  0.00    +0.000 C 
ATOM     24  C   UNL     1       7.171   5.587  18.908  0.00  0.00    +0.000 C 
ATOM     25  C   UNL     1       7.621   4.661  17.790  0.00  0.00    +0.000 C 
ATOM     26  C   UNL     1       6.678   4.803  16.610  0.00  0.00    +0.000 C 
ATOM     27  C   UNL     1       5.227   4.581  17.035  0.00  0.00    +0.000 C 
ENDBRANCH  16  22
ENDBRANCH  15  16
ENDBRANCH   1  15
TORSDOF 7
ENDMDL
MODEL 7
REMARK VINA RESULT:      -7.3      0.849      1.493
REMARK  Name = 
REMARK  8 active torsions:
REMARK  status: ('A' for Active; 'I' for Inactive)
REMARK    1  A    between atoms: C_1  and  C_2
REMARK    2  A    between atoms: C_2  and  O_3
REMARK    3  A    between atoms: O_3  and  C_4
REMARK    4  A    between atoms: C_7  and  S_8
REMARK    5  A    between atoms: S_8  and  N_11
REMARK    6  A    between atoms: N_11  and  C_12
REMARK    7  A    between atoms: C_12  and  C_13
REMARK    8  A    between atoms: C_13  and  N_14
REMARK                            x       y       z     vdW  Elec       q    Type
REMARK                         _______ _______ _______ _____ _____    ______ ____
ROOT
ATOM      1  N   UNL     1       4.449   5.737  19.410  0.00  0.00    +0.000 NA
ATOM      2  H   UNL     1       4.163   6.290  18.597  0.00  0.00    +0.000 HD
ENDROOT
BRANCH   1   3
ATOM      3  S   UNL     1       5.841   4.831  19.141  0.00  0.00    +0.000 S 
ATOM      4  O   UNL     1       5.504   3.455  19.424  0.00  0.00    +0.000 OA
ATOM      5  O   UNL     1       6.940   5.495  19.811  0.00  0.00    +0.000 OA
BRANCH   3   9
ATOM      6  C   UNL     1       6.408   4.998  14.598  0.00  0.00    +0.000 A 
ATOM      7  C   UNL     1       7.370   4.391  15.409  0.00  0.00    +0.000 A 
ATOM      8  C   UNL     1       7.216   4.357  16.797  0.00  0.00    +0.000 A 
ATOM      9  C   UNL     1       6.098   4.957  17.383  0.00  0.00    +0.000 A 
ATOM     10  C   UNL     1       5.140   5.586  16.583  0.00  0.00    +0.000 A 
ATOM     11  C   UNL     1       5.302   5.615  15.191  0.00  0.00    +0.000 A 
BRANCH   6  12
ATOM     12  O   UNL     1       6.665   4.935  13.258  0.00  0.00    +0.000 OA
BRANCH  12  14
ATOM     13  C   UNL     1       5.134   3.433  12.225  0.00  0.00    +0.000 C 
ATOM     14  C   UNL     1       6.580   3.650  12.642  0.00  0.00    +0.000 C 
ENDBRANCH  12  14
ENDBRANCH   6  12
ENDBRANCH   3   9
ENDBRANCH   1   3
BRANCH   1  15
ATOM     15  C   UNL     1       3.355   5.088  20.155  0.00  0.00    +0.000 C 
BRANCH  15  16
ATOM     16  C   UNL     1       1.965   5.191  19.404  0.00  0.00    +0.000 C 
ATOM     17  C   UNL     1       2.139   4.485  18.020  0.00  0.00    +0.000 C 
ATOM     18  C   UNL     1       2.397   2.979  18.120  0.00  0.00    +0.000 C 
ATOM     19  C   UNL     1       1.325   2.276  18.943  0.00  0.00    +0.000 C 
ATOM     20  C   UNL     1       1.172   2.894  20.328  0.00  0.00    +0.000 C 
ATOM     21  C   UNL     1       0.903   4.396  20.235  0.00  0.00    +0.000 C 
BRANCH  16  22
ATOM     22  N   UNL     1       1.522   6.643  19.258  0.00  0.00    +0.000 NA
ATOM     23  C   UNL     1       1.657   7.434  20.504  0.00  0.00    +0.000 C 
ATOM     24  C   UNL     1       1.129   8.869  20.368  0.00  0.00    +0.000 C 
ATOM     25  C   UNL     1       1.790   9.607  19.215  0.00  0.00    +0.000 C 
ATOM     26  C   UNL     1       1.659   8.782  17.949  0.00  0.00    +0.000 C 
ATOM     27  C   UNL     1       2.201   7.368  18.155  0.00  0.00    +0.000 C 
ENDBRANCH  16  22
ENDBRANCH  15  16
ENDBRANCH   1  15
TORSDOF 7
ENDMDL
MODEL 8
REMARK VINA RESULT:      -7.2      3.886      8.337
REMARK  Name = 
REMARK  8 active torsions:
REMARK  status: ('A' for Active; 'I' for Inactive)
REMARK    1  A    between atoms: C_1  and  C_2
REMARK    2  A    between atoms: C_2  and  O_3
REMARK    3  A    between atoms: O_3  and  C_4
REMARK    4  A    between atoms: C_7  and  S_8
REMARK    5  A    between atoms: S_8  and  N_11
REMARK    6  A    between atoms: N_11  and  C_12
REMARK    7  A    between atoms: C_12  and  C_13
REMARK    8  A    between atoms: C_13  and  N_14
REMARK                            x       y       z     vdW  Elec       q    Type
REMARK                         _______ _______ _______ _____ _____    ______ ____
ROOT
ATOM      1  N   UNL     1       2.386   8.041  18.785  0.00  0.00    +0.000 NA
ATOM      2  H   UNL     1       2.390   7.979  19.807  0.00  0.00    +0.000 HD
ENDROOT
BRANCH   1   3
ATOM      3  S   UNL     1       1.509   9.354  18.203  0.00  0.00    +0.000 S 
ATOM      4  O   UNL     1       0.442   8.814  17.391  0.00  0.00    +0.000 OA
ATOM      5  O   UNL     1       2.451  10.318  17.672  0.00  0.00    +0.000 OA
BRANCH   3   9
ATOM      6  C   UNL     1      -0.254  11.169  22.021  0.00  0.00    +0.000 A 
ATOM      7  C   UNL     1      -0.024   9.794  21.933  0.00  0.00    +0.000 A 
ATOM      8  C   UNL     1       0.491   9.229  20.763  0.00  0.00    +0.000 A 
ATOM      9  C   UNL     1       0.759  10.046  19.661  0.00  0.00    +0.000 A 
ATOM     10  C   UNL     1       0.513  11.421  19.731  0.00  0.00    +0.000 A 
ATOM     11  C   UNL     1      -0.004  11.979  20.908  0.00  0.00    +0.000 A 
BRANCH   6  12
ATOM     12  O   UNL     1      -0.730  11.595  23.228  0.00  0.00    +0.000 OA
BRANCH  12  14
ATOM     13  C   UNL     1      -3.009  12.264  23.385  0.00  0.00    +0.000 C 
ATOM     14  C   UNL     1      -1.576  12.745  23.223  0.00  0.00    +0.000 C 
ENDBRANCH  12  14
ENDBRANCH   6  12
ENDBRANCH   3   9
ENDBRANCH   1   3
BRANCH   1  15
ATOM     15  C   UNL     1       2.242   6.761  18.070  0.00  0.00    +0.000 C 
BRANCH  15  16
ATOM     16  C   UNL     1       3.184   5.630  18.653  0.00  0.00    +0.000 C 
ATOM     17  C   UNL     1       2.729   5.371  20.126  0.00  0.00    +0.000 C 
ATOM     18  C   UNL     1       1.321   4.781  20.247  0.00  0.00    +0.000 C 
ATOM     19  C   UNL     1       1.166   3.516  19.414  0.00  0.00    +0.000 C 
ATOM     20  C   UNL     1       1.535   3.744  17.953  0.00  0.00    +0.000 C 
ATOM     21  C   UNL     1       2.945   4.323  17.825  0.00  0.00    +0.000 C 
BRANCH  16  22
ATOM     22  N   UNL     1       4.651   6.033  18.565  0.00  0.00    +0.000 NA
ATOM     23  C   UNL     1       5.567   5.106  19.273  0.00  0.00    +0.000 C 
ATOM     24  C   UNL     1       7.030   5.568  19.249  0.00  0.00    +0.000 C 
ATOM     25  C   UNL     1       7.527   5.798  17.831  0.00  0.00    +0.000 C 
ATOM     26  C   UNL     1       6.575   6.735  17.111  0.00  0.00    +0.000 C 
ATOM     27  C   UNL     1       5.139   6.217  17.175  0.00  0.00    +0.000 C 
ENDBRANCH  16  22
ENDBRANCH  15  16
ENDBRANCH   1  15
TORSDOF 7
ENDMDL
MODEL 9
REMARK VINA RESULT:      -7.1      2.851      4.298
REMARK  Name = 
REMARK  8 active torsions:
REMARK  status: ('A' for Active; 'I' for Inactive)
REMARK    1  A    between atoms: C_1  and  C_2
REMARK    2  A    between atoms: C_2  and  O_3
REMARK    3  A    between atoms: O_3  and  C_4
REMARK    4  A    between atoms: C_7  and  S_8
REMARK    5  A    between atoms: S_8  and  N_11
REMARK    6  A    between atoms: N_11  and  C_12
REMARK    7  A    between atoms: C_12  and  C_13
REMARK    8  A    between atoms: C_13  and  N_14
REMARK                            x       y       z     vdW  Elec       q    Type
REMARK                         _______ _______ _______ _____ _____    ______ ____
ROOT
ATOM      1  N   UNL     1       4.350   5.210  17.998  0.00  0.00    +0.000 NA
ATOM      2  H   UNL     1       3.707   4.766  17.336  0.00  0.00    +0.000 HD
ENDROOT
BRANCH   1   3
ATOM      3  S   UNL     1       5.946   4.710  17.808  0.00  0.00    +0.000 S 
ATOM      4  O   UNL     1       6.070   4.219  16.454  0.00  0.00    +0.000 OA
ATOM      5  O   UNL     1       6.293   3.884  18.946  0.00  0.00    +0.000 OA
BRANCH   3   9
ATOM      6  C   UNL     1       8.237   8.658  18.187  0.00  0.00    +0.000 A 
ATOM      7  C   UNL     1       7.221   8.519  17.238  0.00  0.00    +0.000 A 
ATOM      8  C   UNL     1       6.533   7.310  17.100  0.00  0.00    +0.000 A 
ATOM      9  C   UNL     1       6.881   6.222  17.905  0.00  0.00    +0.000 A 
ATOM     10  C   UNL     1       7.911   6.344  18.843  0.00  0.00    +0.000 A 
ATOM     11  C   UNL     1       8.595   7.560  18.975  0.00  0.00    +0.000 A 
BRANCH   6  12
ATOM     12  O   UNL     1       8.806   9.899  18.239  0.00  0.00    +0.000 OA
BRANCH  12  14
ATOM     13  C   UNL     1      10.438  11.334  19.210  0.00  0.00    +0.000 C 
ATOM     14  C   UNL     1       9.351  10.310  19.493  0.00  0.00    +0.000 C 
ENDBRANCH  12  14
ENDBRANCH   6  12
ENDBRANCH   3   9
ENDBRANCH   1   3
BRANCH   1  15
ATOM     15  C   UNL     1       3.848   5.355  19.375  0.00  0.00    +0.000 C 
BRANCH  15  16
ATOM     16  C   UNL     1       2.345   5.852  19.423  0.00  0.00    +0.000 C 
ATOM     17  C   UNL     1       1.596   5.161  18.239  0.00  0.00    +0.000 C 
ATOM     18  C   UNL     1       1.489   3.640  18.375  0.00  0.00    +0.000 C 
ATOM     19  C   UNL     1       0.865   3.234  19.704  0.00  0.00    +0.000 C 
ATOM     20  C   UNL     1       1.610   3.835  20.891  0.00  0.00    +0.000 C 
ATOM     21  C   UNL     1       1.712   5.355  20.766  0.00  0.00    +0.000 C 
BRANCH  16  22
ATOM     22  N   UNL     1       2.263   7.372  19.348  0.00  0.00    +0.000 NA
ATOM     23  C   UNL     1       1.995   7.887  17.985  0.00  0.00    +0.000 C 
ATOM     24  C   UNL     1       2.000   9.420  17.907  0.00  0.00    +0.000 C 
ATOM     25  C   UNL     1       1.021  10.039  18.891  0.00  0.00    +0.000 C 
ATOM     26  C   UNL     1       1.294   9.494  20.280  0.00  0.00    +0.000 C 
ATOM     27  C   UNL     1       1.277   7.966  20.286  0.00  0.00    +0.000 C 
ENDBRANCH  16  22
ENDBRANCH  15  16
ENDBRANCH   1  15
TORSDOF 7
ENDMDL
