MODEL 1
REMARK VINA RESULT:      -6.3      0.000      0.000
REMARK  Name = 
REMARK  7 active torsions:
REMARK  status: ('A' for Active; 'I' for Inactive)
REMARK    1  A    between atoms: C_1  and  C_2
REMARK    2  A    between atoms: C_2  and  O_3
REMARK    3  A    between atoms: O_3  and  P_4
REMARK    4  A    between atoms: P_4  and  C_6
REMARK    5  A    between atoms: P_4  and  O_8
REMARK    6  A    between atoms: C_6  and  C_7
REMARK    7  A    between atoms: O_8  and  C_9
REMARK                            x       y       z     vdW  Elec       q    Type
REMARK                         _______ _______ _______ _____ _____    ______ ____
ROOT
ATOM      1  C   UNL     1       4.260   5.016  18.437  0.00  0.00    +0.000 A 
ATOM      2  C   UNL     1       4.419   3.644  18.604  0.00  0.00    +0.000 A 
ATOM      3  C   UNL     1       3.300   2.798  18.620  0.00  0.00    +0.000 A 
ATOM      4 CL   UNL     1       3.589   1.095  18.643  0.00  0.00    +0.000 Cl
ATOM      5  C   UNL     1       2.002   3.333  18.584  0.00  0.00    +0.000 A 
ATOM      6 CL   UNL     1       0.593   2.353  18.664  0.00  0.00    +0.000 Cl
ATOM      7  C   UNL     1       1.841   4.712  18.454  0.00  0.00    +0.000 A 
ATOM      8  C   UNL     1       2.960   5.552  18.361  0.00  0.00    +0.000 A 
ATOM      9 CL   UNL     1       2.696   7.238  18.124  0.00  0.00    +0.000 Cl
ENDROOT
BRANCH   1  10
ATOM     10  O   UNL     1       5.317   5.881  18.293  0.00  0.00    +0.000 OA
BRANCH  10  11
ATOM     11  P   UNL     1       6.344   5.875  16.902  0.00  0.00    +0.000 P 
ATOM     12  S   UNL     1       7.666   4.711  17.886  0.00  0.00    +0.000 S 
BRANCH  11  13
ATOM     13  C   UNL     1       6.798   7.716  17.198  0.00  0.00    +0.000 C 
ATOM     14  C   UNL     1       8.078   7.929  17.988  0.00  0.00    +0.000 C 
ENDBRANCH  11  13
BRANCH  11  15
ATOM     15  O   UNL     1       7.372   5.868  15.510  0.00  0.00    +0.000 OA
BRANCH  15  17
ATOM     16  C   UNL     1       5.638   4.530  14.615  0.00  0.00    +0.000 C 
ATOM     17  C   UNL     1       7.112   4.874  14.533  0.00  0.00    +0.000 C 
ENDBRANCH  15  17
ENDBRANCH  11  15
ENDBRANCH  10  11
ENDBRANCH   1  10
TORSDOF 5
ENDMDL
MODEL 2
REMARK VINA RESULT:      -6.0      2.702      4.937
REMARK  Name = 
REMARK  7 active torsions:
REMARK  status: ('A' for Active; 'I' for Inactive)
REMARK    1  A    between atoms: C_1  and  C_2
REMARK    2  A    between atoms: C_2  and  O_3
REMARK    3  A    between atoms: O_3  and  P_4
REMARK    4  A    between atoms: P_4  and  C_6
REMARK    5  A    between atoms: P_4  and  O_8
REMARK    6  A    between atoms: C_6  and  C_7
REMARK    7  A    between atoms: O_8  and  C_9
REMARK                            x       y       z     vdW  Elec       q    Type
REMARK                         _______ _______ _______ _____ _____    ______ ____
ROOT
ATOM      1  C   UNL     1       2.553   6.010  18.921  0.00  0.00    +0.000 A 
ATOM      2  C   UNL     1       2.486   7.182  18.173  0.00  0.00    +0.000 A 
ATOM      3  C   UNL     1       2.001   8.365  18.750  0.00  0.00    +0.000 A 
ATOM      4 CL   UNL     1       2.124   9.814  17.819  0.00  0.00    +0.000 Cl
ATOM      5  C   UNL     1       1.470   8.357  20.051  0.00  0.00    +0.000 A 
ATOM      6 CL   UNL     1       0.804   9.759  20.788  0.00  0.00    +0.000 Cl
ATOM      7  C   UNL     1       1.503   7.175  20.788  0.00  0.00    +0.000 A 
ATOM      8  C   UNL     1       2.057   6.010  20.239  0.00  0.00    +0.000 A 
ATOM      9 CL   UNL     1       2.139   4.601  21.228  0.00  0.00    +0.000 Cl
ENDROOT
BRANCH   1  10
ATOM     10  O   UNL     1       3.127   4.854  18.454  0.00  0.00    +0.000 OA
BRANCH  10  11
ATOM     11  P   UNL     1       4.819   4.527  18.601  0.00  0.00    +0.000 P 
ATOM     12  S   UNL     1       4.965   4.391  16.594  0.00  0.00    +0.000 S 
BRANCH  11  13
ATOM     13  C   UNL     1       4.445   2.785  19.315  0.00  0.00    +0.000 C 
ATOM     14  C   UNL     1       3.490   1.953  18.477  0.00  0.00    +0.000 C 
ENDBRANCH  11  13
BRANCH  11  15
ATOM     15  O   UNL     1       6.512   4.200  18.748  0.00  0.00    +0.000 OA
BRANCH  15  17
ATOM     16  C   UNL     1       7.727   6.227  18.631  0.00  0.00    +0.000 C 
ATOM     17  C   UNL     1       7.377   4.942  17.906  0.00  0.00    +0.000 C 
ENDBRANCH  15  17
ENDBRANCH  11  15
ENDBRANCH  10  11
ENDBRANCH   1  10
TORSDOF 5
ENDMDL
MODEL 3
REMARK VINA RESULT:      -5.9      3.646      6.104
REMARK  Name = 
REMARK  7 active torsions:
REMARK  status: ('A' for Active; 'I' for Inactive)
REMARK    1  A    between atoms: C_1  and  C_2
REMARK    2  A    between atoms: C_2  and  O_3
REMARK    3  A    between atoms: O_3  and  P_4
REMARK    4  A    between atoms: P_4  and  C_6
REMARK    5  A    between atoms: P_4  and  O_8
REMARK    6  A    between atoms: C_6  and  C_7
REMARK    7  A    between atoms: O_8  and  C_9
REMARK                            x       y       z     vdW  Elec       q    Type
REMARK                         _______ _______ _______ _____ _____    ______ ____
ROOT
ATOM      1  C   UNL     1       5.636   3.988  16.275  0.00  0.00    +0.000 A 
ATOM      2  C   UNL     1       5.198   3.663  14.995  0.00  0.00    +0.000 A 
ATOM      3  C   UNL     1       5.948   4.039  13.871  0.00  0.00    +0.000 A 
ATOM      4 CL   UNL     1       5.438   3.438  12.334  0.00  0.00    +0.000 Cl
ATOM      5  C   UNL     1       7.089   4.846  14.015  0.00  0.00    +0.000 A 
ATOM      6 CL   UNL     1       8.012   5.392  12.672  0.00  0.00    +0.000 Cl
ATOM      7  C   UNL     1       7.509   5.205  15.294  0.00  0.00    +0.000 A 
ATOM      8  C   UNL     1       6.802   4.765  16.423  0.00  0.00    +0.000 A 
ATOM      9 CL   UNL     1       7.415   5.176  17.980  0.00  0.00    +0.000 Cl
ENDROOT
BRANCH   1  10
ATOM     10  O   UNL     1       5.014   3.548  17.416  0.00  0.00    +0.000 OA
BRANCH  10  11
ATOM     11  P   UNL     1       3.292   3.469  17.568  0.00  0.00    +0.000 P 
ATOM     12  S   UNL     1       3.298   5.239  18.534  0.00  0.00    +0.000 S 
BRANCH  11  13
ATOM     13  C   UNL     1       3.446   2.057  18.859  0.00  0.00    +0.000 C 
ATOM     14  C   UNL     1       4.463   2.318  19.958  0.00  0.00    +0.000 C 
ENDBRANCH  11  13
BRANCH  11  15
ATOM     15  O   UNL     1       1.570   3.389  17.719  0.00  0.00    +0.000 OA
BRANCH  15  17
ATOM     16  C   UNL     1       0.574   3.235  19.860  0.00  0.00    +0.000 C 
ATOM     17  C   UNL     1       1.058   2.455  18.653  0.00  0.00    +0.000 C 
ENDBRANCH  15  17
ENDBRANCH  11  15
ENDBRANCH  10  11
ENDBRANCH   1  10
TORSDOF 5
ENDMDL
MODEL 4
REMARK VINA RESULT:      -5.8      1.947      3.679
REMARK  Name = 
REMARK  7 active torsions:
REMARK  status: ('A' for Active; 'I' for Inactive)
REMARK    1  A    between atoms: C_1  and  C_2
REMARK    2  A    between atoms: C_2  and  O_3
REMARK    3  A    between atoms: O_3  and  P_4
REMARK    4  A    between atoms: P_4  and  C_6
REMARK    5  A    between atoms: P_4  and  O_8
REMARK    6  A    between atoms: C_6  and  C_7
REMARK    7  A    between atoms: O_8  and  C_9
REMARK                            x       y       z     vdW  Elec       q    Type
REMARK                         _______ _______ _______ _____ _____    ______ ____
ROOT
ATOM      1  C   UNL     1       3.424   3.893  17.941  0.00  0.00    +0.000 A 
ATOM      2  C   UNL     1       2.801   4.920  18.644  0.00  0.00    +0.000 A 
ATOM      3  C   UNL     1       2.158   4.656  19.862  0.00  0.00    +0.000 A 
ATOM      4 CL   UNL     1       1.574   6.007  20.765  0.00  0.00    +0.000 Cl
ATOM      5  C   UNL     1       2.034   3.337  20.331  0.00  0.00    +0.000 A 
ATOM      6 CL   UNL     1       1.203   2.944  21.783  0.00  0.00    +0.000 Cl
ATOM      7  C   UNL     1       2.626   2.303  19.608  0.00  0.00    +0.000 A 
ATOM      8  C   UNL     1       3.335   2.575  18.429  0.00  0.00    +0.000 A 
ATOM      9 CL   UNL     1       4.109   1.265  17.622  0.00  0.00    +0.000 Cl
ENDROOT
BRANCH   1  10
ATOM     10  O   UNL     1       4.170   4.106  16.808  0.00  0.00    +0.000 OA
BRANCH  10  11
ATOM     11  P   UNL     1       5.775   4.750  16.856  0.00  0.00    +0.000 P 
ATOM     12  S   UNL     1       5.084   6.517  16.171  0.00  0.00    +0.000 S 
BRANCH  11  13
ATOM     13  C   UNL     1       6.283   3.661  15.359  0.00  0.00    +0.000 C 
ATOM     14  C   UNL     1       6.161   4.349  14.010  0.00  0.00    +0.000 C 
ENDBRANCH  11  13
BRANCH  11  15
ATOM     15  O   UNL     1       7.380   5.394  16.904  0.00  0.00    +0.000 OA
BRANCH  15  17
ATOM     16  C   UNL     1       7.776   5.843  19.194  0.00  0.00    +0.000 C 
ATOM     17  C   UNL     1       7.612   6.454  17.816  0.00  0.00    +0.000 C 
ENDBRANCH  15  17
ENDBRANCH  11  15
ENDBRANCH  10  11
ENDBRANCH   1  10
TORSDOF 5
ENDMDL
MODEL 5
REMARK VINA RESULT:      -5.8      2.012      2.979
REMARK  Name = 
REMARK  7 active torsions:
REMARK  status: ('A' for Active; 'I' for Inactive)
REMARK    1  A    between atoms: C_1  and  C_2
REMARK    2  A    between atoms: C_2  and  O_3
REMARK    3  A    between atoms: O_3  and  P_4
REMARK    4  A    between atoms: P_4  and  C_6
REMARK    5  A    between atoms: P_4  and  O_8
REMARK    6  A    between atoms: C_6  and  C_7
REMARK    7  A    between atoms: O_8  and  C_9
REMARK                            x       y       z     vdW  Elec       q    Type
REMARK                         _______ _______ _______ _____ _____    ______ ____
ROOT
ATOM      1  C   UNL     1       3.714   3.897  18.056  0.00  0.00    +0.000 A 
ATOM      2  C   UNL     1       4.512   3.174  18.937  0.00  0.00    +0.000 A 
ATOM      3  C   UNL     1       3.959   2.610  20.096  0.00  0.00    +0.000 A 
ATOM      4 CL   UNL     1       4.968   1.574  21.039  0.00  0.00    +0.000 Cl
ATOM      5  C   UNL     1       2.621   2.864  20.442  0.00  0.00    +0.000 A 
ATOM      6 CL   UNL     1       1.905   2.255  21.881  0.00  0.00    +0.000 Cl
ATOM      7  C   UNL     1       1.829   3.620  19.579  0.00  0.00    +0.000 A 
ATOM      8  C   UNL     1       2.361   4.119  18.382  0.00  0.00    +0.000 A 
ATOM      9 CL   UNL     1       1.312   4.980  17.320  0.00  0.00    +0.000 Cl
ENDROOT
BRANCH   1  10
ATOM     10  O   UNL     1       4.166   4.370  16.849  0.00  0.00    +0.000 OA
BRANCH  10  11
ATOM     11  P   UNL     1       5.576   5.361  16.705  0.00  0.00    +0.000 P 
ATOM     12  S   UNL     1       4.477   6.989  17.164  0.00  0.00    +0.000 S 
BRANCH  11  13
ATOM     13  C   UNL     1       5.575   5.128  14.800  0.00  0.00    +0.000 C 
ATOM     14  C   UNL     1       6.177   3.816  14.326  0.00  0.00    +0.000 C 
ENDBRANCH  11  13
BRANCH  11  15
ATOM     15  O   UNL     1       6.987   6.352  16.561  0.00  0.00    +0.000 OA
BRANCH  15  17
ATOM     16  C   UNL     1       7.694   5.817  18.756  0.00  0.00    +0.000 C 
ATOM     17  C   UNL     1       7.477   6.936  17.756  0.00  0.00    +0.000 C 
ENDBRANCH  15  17
ENDBRANCH  11  15
ENDBRANCH  10  11
ENDBRANCH   1  10
TORSDOF 5
ENDMDL
MODEL 6
REMARK VINA RESULT:      -5.7      3.494      6.125
REMARK  Name = 
REMARK  7 active torsions:
REMARK  status: ('A' for Active; 'I' for Inactive)
REMARK    1  A    between atoms: C_1  and  C_2
REMARK    2  A    between atoms: C_2  and  O_3
REMARK    3  A    between atoms: O_3  and  P_4
REMARK    4  A    between atoms: P_4  and  C_6
REMARK    5  A    between atoms: P_4  and  O_8
REMARK    6  A    between atoms: C_6  and  C_7
REMARK    7  A    between atoms: O_8  and  C_9
REMARK                            x       y       z     vdW  Elec       q    Type
REMARK                         _______ _______ _______ _____ _____    ______ ____
ROOT
ATOM      1  C   UNL     1       5.671   3.994  16.096  0.00  0.00    +0.000 A 
ATOM      2  C   UNL     1       5.217   3.647  14.827  0.00  0.00    +0.000 A 
ATOM      3  C   UNL     1       5.946   4.016  13.687  0.00  0.00    +0.000 A 
ATOM      4 CL   UNL     1       5.419   3.389  12.167  0.00  0.00    +0.000 Cl
ATOM      5  C   UNL     1       7.081   4.836  13.803  0.00  0.00    +0.000 A 
ATOM      6 CL   UNL     1       7.979   5.373  12.439  0.00  0.00    +0.000 Cl
ATOM      7  C   UNL     1       7.516   5.216  15.071  0.00  0.00    +0.000 A 
ATOM      8  C   UNL     1       6.831   4.784  16.216  0.00  0.00    +0.000 A 
ATOM      9 CL   UNL     1       7.462   5.222  17.758  0.00  0.00    +0.000 Cl
ENDROOT
BRANCH   1  10
ATOM     10  O   UNL     1       5.070   3.563  17.252  0.00  0.00    +0.000 OA
BRANCH  10  11
ATOM     11  P   UNL     1       3.560   4.197  17.810  0.00  0.00    +0.000 P 
ATOM     12  S   UNL     1       4.366   4.505  19.634  0.00  0.00    +0.000 S 
BRANCH  11  13
ATOM     13  C   UNL     1       2.780   2.443  17.765  0.00  0.00    +0.000 C 
ATOM     14  C   UNL     1       3.546   1.394  18.552  0.00  0.00    +0.000 C 
ENDBRANCH  11  13
BRANCH  11  15
ATOM     15  O   UNL     1       2.050   4.831  18.369  0.00  0.00    +0.000 OA
BRANCH  15  17
ATOM     16  C   UNL     1       0.866   4.095  20.281  0.00  0.00    +0.000 C 
ATOM     17  C   UNL     1       1.929   5.046  19.764  0.00  0.00    +0.000 C 
ENDBRANCH  15  17
ENDBRANCH  11  15
ENDBRANCH  10  11
ENDBRANCH   1  10
TORSDOF 5
ENDMDL
MODEL 7
REMARK VINA RESULT:      -5.6      3.453      5.970
REMARK  Name = 
REMARK  7 active torsions:
REMARK  status: ('A' for Active; 'I' for Inactive)
REMARK    1  A    between atoms: C_1  and  C_2
REMARK    2  A    between atoms: C_2  and  O_3
REMARK    3  A    between atoms: O_3  and  P_4
REMARK    4  A    between atoms: P_4  and  C_6
REMARK    5  A    between atoms: P_4  and  O_8
REMARK    6  A    between atoms: C_6  and  C_7
REMARK    7  A    between atoms: O_8  and  C_9
REMARK                            x       y       z     vdW  Elec       q    Type
REMARK                         _______ _______ _______ _____ _____    ______ ____
ROOT
ATOM      1  C   UNL     1       5.551   4.079  16.143  0.00  0.00    +0.000 A 
ATOM      2  C   UNL     1       5.146   3.736  14.856  0.00  0.00    +0.000 A 
ATOM      3  C   UNL     1       5.948   4.057  13.751  0.00  0.00    +0.000 A 
ATOM      4 CL   UNL     1       5.471   3.435  12.213  0.00  0.00    +0.000 Cl
ATOM      5  C   UNL     1       7.111   4.829  13.916  0.00  0.00    +0.000 A 
ATOM      6 CL   UNL     1       8.099   5.307  12.594  0.00  0.00    +0.000 Cl
ATOM      7  C   UNL     1       7.498   5.205  15.200  0.00  0.00    +0.000 A 
ATOM      8  C   UNL     1       6.737   4.819  16.313  0.00  0.00    +0.000 A 
ATOM      9 CL   UNL     1       7.309   5.249  17.881  0.00  0.00    +0.000 Cl
ENDROOT
BRANCH   1  10
ATOM     10  O   UNL     1       4.873   3.690  17.272  0.00  0.00    +0.000 OA
BRANCH  10  11
ATOM     11  P   UNL     1       3.494   4.544  17.872  0.00  0.00    +0.000 P 
ATOM     12  S   UNL     1       4.262   4.471  19.736  0.00  0.00    +0.000 S 
BRANCH  11  13
ATOM     13  C   UNL     1       2.388   2.999  17.596  0.00  0.00    +0.000 C 
ATOM     14  C   UNL     1       1.209   2.892  18.548  0.00  0.00    +0.000 C 
ENDBRANCH  11  13
BRANCH  11  15
ATOM     15  O   UNL     1       2.114   5.398  18.472  0.00  0.00    +0.000 OA
BRANCH  15  17
ATOM     16  C   UNL     1       2.606   7.684  18.110  0.00  0.00    +0.000 C 
ATOM     17  C   UNL     1       2.367   6.613  19.156  0.00  0.00    +0.000 C 
ENDBRANCH  15  17
ENDBRANCH  11  15
ENDBRANCH  10  11
ENDBRANCH   1  10
TORSDOF 5
ENDMDL
MODEL 8
REMARK VINA RESULT:      -5.6      1.868      3.381
REMARK  Name = 
REMARK  7 active torsions:
REMARK  status: ('A' for Active; 'I' for Inactive)
REMARK    1  A    between atoms: C_1  and  C_2
REMARK    2  A    between atoms: C_2  and  O_3
REMARK    3  A    between atoms: O_3  and  P_4
REMARK    4  A    between atoms: P_4  and  C_6
REMARK    5  A    between atoms: P_4  and  O_8
REMARK    6  A    between atoms: C_6  and  C_7
REMARK    7  A    between atoms: O_8  and  C_9
REMARK                            x       y       z     vdW  Elec       q    Type
REMARK                         _______ _______ _______ _____ _____    ______ ____
ROOT
ATOM      1  C   UNL     1       4.194   4.417  17.747  0.00  0.00    +0.000 A 
ATOM      2  C   UNL     1       3.710   5.618  18.255  0.00  0.00    +0.000 A 
ATOM      3  C   UNL     1       2.645   5.625  19.169  0.00  0.00    +0.000 A 
ATOM      4 CL   UNL     1       2.227   7.135  19.895  0.00  0.00    +0.000 Cl
ATOM      5  C   UNL     1       1.980   4.432  19.495  0.00  0.00    +0.000 A 
ATOM      6 CL   UNL     1       0.630   4.384  20.558  0.00  0.00    +0.000 Cl
ATOM      7  C   UNL     1       2.440   3.230  18.957  0.00  0.00    +0.000 A 
ATOM      8  C   UNL     1       3.552   3.214  18.104  0.00  0.00    +0.000 A 
ATOM      9 CL   UNL     1       4.120   1.691  17.533  0.00  0.00    +0.000 Cl
ENDROOT
BRANCH   1  10
ATOM     10  O   UNL     1       5.305   4.334  16.946  0.00  0.00    +0.000 OA
BRANCH  10  11
ATOM     11  P   UNL     1       6.465   5.612  16.826  0.00  0.00    +0.000 P 
ATOM     12  S   UNL     1       7.002   4.950  14.997  0.00  0.00    +0.000 S 
BRANCH  11  13
ATOM     13  C   UNL     1       7.574   4.762  18.143  0.00  0.00    +0.000 C 
ATOM     14  C   UNL     1       7.634   5.487  19.477  0.00  0.00    +0.000 C 
ENDBRANCH  11  13
BRANCH  11  15
ATOM     15  O   UNL     1       7.625   6.890  16.706  0.00  0.00    +0.000 OA
BRANCH  15  17
ATOM     16  C   UNL     1       8.366   8.697  18.042  0.00  0.00    +0.000 C 
ATOM     17  C   UNL     1       7.227   8.157  17.200  0.00  0.00    +0.000 C 
ENDBRANCH  15  17
ENDBRANCH  11  15
ENDBRANCH  10  11
ENDBRANCH   1  10
TORSDOF 5
ENDMDL
MODEL 9
REMARK VINA RESULT:      -5.6      1.060      1.299
REMARK  Name = 
REMARK  7 active torsions:
REMARK  status: ('A' for Active; 'I' for Inactive)
REMARK    1  A    between atoms: C_1  and  C_2
REMARK    2  A    between atoms: C_2  and  O_3
REMARK    3  A    between atoms: O_3  and  P_4
REMARK    4  A    between atoms: P_4  and  C_6
REMARK    5  A    between atoms: P_4  and  O_8
REMARK    6  A    between atoms: C_6  and  C_7
REMARK    7  A    between atoms: O_8  and  C_9
REMARK                            x       y       z     vdW  Elec       q    Type
REMARK                         _______ _______ _______ _____ _____    ______ ____
ROOT
ATOM      1  C   UNL     1       4.233   4.757  19.063  0.00  0.00    +0.000 A 
ATOM      2  C   UNL     1       4.346   3.373  18.977  0.00  0.00    +0.000 A 
ATOM      3  C   UNL     1       3.198   2.569  18.914  0.00  0.00    +0.000 A 
ATOM      4 CL   UNL     1       3.421   0.882  18.620  0.00  0.00    +0.000 Cl
ATOM      5  C   UNL     1       1.922   3.140  19.052  0.00  0.00    +0.000 A 
ATOM      6 CL   UNL     1       0.482   2.201  19.047  0.00  0.00    +0.000 Cl
ATOM      7  C   UNL     1       1.808   4.524  19.175  0.00  0.00    +0.000 A 
ATOM      8  C   UNL     1       2.952   5.335  19.162  0.00  0.00    +0.000 A 
ATOM      9 CL   UNL     1       2.741   7.043  19.240  0.00  0.00    +0.000 Cl
ENDROOT
BRANCH   1  10
ATOM     10  O   UNL     1       5.312   5.604  19.007  0.00  0.00    +0.000 OA
BRANCH  10  11
ATOM     11  P   UNL     1       6.469   5.556  17.722  0.00  0.00    +0.000 P 
ATOM     12  S   UNL     1       7.952   5.898  19.047  0.00  0.00    +0.000 S 
BRANCH  11  13
ATOM     13  C   UNL     1       5.834   7.239  17.055  0.00  0.00    +0.000 C 
ATOM     14  C   UNL     1       4.615   7.138  16.153  0.00  0.00    +0.000 C 
ENDBRANCH  11  13
BRANCH  11  15
ATOM     15  O   UNL     1       7.627   5.508  16.437  0.00  0.00    +0.000 OA
BRANCH  15  17
ATOM     16  C   UNL     1       6.129   3.846  15.665  0.00  0.00    +0.000 C 
ATOM     17  C   UNL     1       7.258   4.782  15.277  0.00  0.00    +0.000 C 
ENDBRANCH  15  17
ENDBRANCH  11  15
ENDBRANCH  10  11
ENDBRANCH   1  10
TORSDOF 5
ENDMDL
