MODEL 1
REMARK VINA RESULT:      -7.4      0.000      0.000
REMARK  Name = 
REMARK  7 active torsions:
REMARK  status: ('A' for Active; 'I' for Inactive)
REMARK    1  A    between atoms: C_1  and  C_2
REMARK    2  A    between atoms: C_2  and  C_3
REMARK    3  A    between atoms: C_2  and  C_4
REMARK    4  A    between atoms: C_4  and  N_5
REMARK    5  A    between atoms: N_5  and  C_20
REMARK    6  A    between atoms: C_6  and  C_8
REMARK    7  A    between atoms: C_13  and  C_14
REMARK                            x       y       z     vdW  Elec       q    Type
REMARK                         _______ _______ _______ _____ _____    ______ ____
ROOT
ATOM      1  N   UNL     1       6.238   5.222  17.723  0.00  0.00    +0.000 N 
ATOM      2  C   UNL     1       5.367   5.037  18.827  0.00  0.00    +0.000 C 
ATOM      3  O   UNL     1       5.706   5.325  19.975  0.00  0.00    +0.000 OA
ENDROOT
BRANCH   2   4
ATOM      4  C   UNL     1       4.023   4.379  18.672  0.00  0.00    +0.000 A 
ATOM      5  C   UNL     1       4.124   2.974  18.529  0.00  0.00    +0.000 A 
ATOM      6  C   UNL     1       3.013   2.193  18.240  0.00  0.00    +0.000 A 
ATOM      7  C   UNL     1       1.778   2.803  18.088  0.00  0.00    +0.000 A 
ATOM      8  C   UNL     1       1.646   4.183  18.296  0.00  0.00    +0.000 A 
ATOM      9  C   UNL     1       2.743   5.013  18.631  0.00  0.00    +0.000 A 
BRANCH   9  10
ATOM     10  C   UNL     1       2.505   6.485  18.804  0.00  0.00    +0.000 A 
ATOM     11  C   UNL     1       2.546   7.385  17.725  0.00  0.00    +0.000 A 
ATOM     12  C   UNL     1       2.039   8.689  17.837  0.00  0.00    +0.000 A 
ATOM     13  C   UNL     1       1.523   9.145  19.046  0.00  0.00    +0.000 A 
ATOM     14  C   UNL     1       1.534   8.306  20.154  0.00  0.00    +0.000 A 
ATOM     15  C   UNL     1       2.025   6.999  20.034  0.00  0.00    +0.000 A 
ENDBRANCH   9  10
ENDBRANCH   2   4
BRANCH   1  16
ATOM     16  C   UNL     1       5.949   4.647  16.399  0.00  0.00    +0.000 C 
ATOM     17  C   UNL     1       5.128   5.441  15.400  0.00  0.00    +0.000 C 
ATOM     18  C   UNL     1       5.208   4.508  14.203  0.00  0.00    +0.000 C 
ATOM     19  N   UNL     1       6.636   4.147  14.151  0.00  0.00    +0.000 NA
ATOM     20  C   UNL     1       7.076   4.028  15.565  0.00  0.00    +0.000 C 
ATOM     21  H   UNL     1       7.137   4.933  13.734  0.00  0.00    +0.000 HD
ENDBRANCH   1  16
BRANCH   1  22
ATOM     22  C   UNL     1       7.561   5.841  17.992  0.00  0.00    +0.000 C 
BRANCH  22  24
ATOM     23  C   UNL     1       6.371   8.070  17.393  0.00  0.00    +0.000 C 
ATOM     24  C   UNL     1       7.706   7.339  17.575  0.00  0.00    +0.000 C 
ATOM     25  C   UNL     1       8.502   8.153  18.613  0.00  0.00    +0.000 C 
ENDBRANCH  22  24
ENDBRANCH   1  22
TORSDOF 5
ENDMDL
MODEL 2
REMARK VINA RESULT:      -7.1      0.437      1.073
REMARK  Name = 
REMARK  7 active torsions:
REMARK  status: ('A' for Active; 'I' for Inactive)
REMARK    1  A    between atoms: C_1  and  C_2
REMARK    2  A    between atoms: C_2  and  C_3
REMARK    3  A    between atoms: C_2  and  C_4
REMARK    4  A    between atoms: C_4  and  N_5
REMARK    5  A    between atoms: N_5  and  C_20
REMARK    6  A    between atoms: C_6  and  C_8
REMARK    7  A    between atoms: C_13  and  C_14
REMARK                            x       y       z     vdW  Elec       q    Type
REMARK                         _______ _______ _______ _____ _____    ______ ____
ROOT
ATOM      1  N   UNL     1       6.206   5.186  17.792  0.00  0.00    +0.000 N 
ATOM      2  C   UNL     1       5.347   4.870  18.876  0.00  0.00    +0.000 C 
ATOM      3  O   UNL     1       5.620   5.187  20.033  0.00  0.00    +0.000 OA
ENDROOT
BRANCH   2   4
ATOM      4  C   UNL     1       4.109   4.037  18.686  0.00  0.00    +0.000 A 
ATOM      5  C   UNL     1       4.404   2.659  18.547  0.00  0.00    +0.000 A 
ATOM      6  C   UNL     1       3.416   1.735  18.229  0.00  0.00    +0.000 A 
ATOM      7  C   UNL     1       2.115   2.172  18.043  0.00  0.00    +0.000 A 
ATOM      8  C   UNL     1       1.792   3.521  18.246  0.00  0.00    +0.000 A 
ATOM      9  C   UNL     1       2.756   4.492  18.608  0.00  0.00    +0.000 A 
BRANCH   9  10
ATOM     10  C   UNL     1       2.317   5.918  18.773  0.00  0.00    +0.000 A 
ATOM     11  C   UNL     1       1.957   6.452  20.022  0.00  0.00    +0.000 A 
ATOM     12  C   UNL     1       1.836   7.836  20.221  0.00  0.00    +0.000 A 
ATOM     13  C   UNL     1       2.022   8.721  19.163  0.00  0.00    +0.000 A 
ATOM     14  C   UNL     1       2.307   8.222  17.897  0.00  0.00    +0.000 A 
ATOM     15  C   UNL     1       2.445   6.841  17.706  0.00  0.00    +0.000 A 
ENDBRANCH   9  10
ENDBRANCH   2   4
BRANCH   1  16
ATOM     16  C   UNL     1       6.025   4.595  16.457  0.00  0.00    +0.000 C 
ATOM     17  C   UNL     1       5.048   5.226  15.484  0.00  0.00    +0.000 C 
ATOM     18  C   UNL     1       5.302   4.357  14.263  0.00  0.00    +0.000 C 
ATOM     19  N   UNL     1       6.773   4.297  14.192  0.00  0.00    +0.000 NA
ATOM     20  C   UNL     1       7.245   4.238  15.600  0.00  0.00    +0.000 C 
ATOM     21  H   UNL     1       7.098   5.178  13.792  0.00  0.00    +0.000 HD
ENDBRANCH   1  16
BRANCH   1  22
ATOM     22  C   UNL     1       7.426   5.978  18.096  0.00  0.00    +0.000 C 
BRANCH  22  24
ATOM     23  C   UNL     1       6.112   8.083  17.332  0.00  0.00    +0.000 C 
ATOM     24  C   UNL     1       7.481   7.406  17.470  0.00  0.00    +0.000 C 
ATOM     25  C   UNL     1       8.352   8.368  18.300  0.00  0.00    +0.000 C 
ENDBRANCH  22  24
ENDBRANCH   1  22
TORSDOF 5
ENDMDL
MODEL 3
REMARK VINA RESULT:      -7.0      1.721      3.209
REMARK  Name = 
REMARK  7 active torsions:
REMARK  status: ('A' for Active; 'I' for Inactive)
REMARK    1  A    between atoms: C_1  and  C_2
REMARK    2  A    between atoms: C_2  and  C_3
REMARK    3  A    between atoms: C_2  and  C_4
REMARK    4  A    between atoms: C_4  and  N_5
REMARK    5  A    between atoms: N_5  and  C_20
REMARK    6  A    between atoms: C_6  and  C_8
REMARK    7  A    between atoms: C_13  and  C_14
REMARK                            x       y       z     vdW  Elec       q    Type
REMARK                         _______ _______ _______ _____ _____    ______ ____
ROOT
ATOM      1  N   UNL     1       4.704   4.926  17.036  0.00  0.00    +0.000 N 
ATOM      2  C   UNL     1       3.471   4.390  17.489  0.00  0.00    +0.000 C 
ATOM      3  O   UNL     1       2.566   4.095  16.708  0.00  0.00    +0.000 OA
ENDROOT
BRANCH   2   4
ATOM      4  C   UNL     1       3.158   4.256  18.954  0.00  0.00    +0.000 A 
ATOM      5  C   UNL     1       3.381   2.943  19.434  0.00  0.00    +0.000 A 
ATOM      6  C   UNL     1       3.028   2.574  20.726  0.00  0.00    +0.000 A 
ATOM      7  C   UNL     1       2.444   3.511  21.562  0.00  0.00    +0.000 A 
ATOM      8  C   UNL     1       2.280   4.834  21.128  0.00  0.00    +0.000 A 
ATOM      9  C   UNL     1       2.661   5.266  19.835  0.00  0.00    +0.000 A 
BRANCH   9  10
ATOM     10  C   UNL     1       2.418   6.698  19.453  0.00  0.00    +0.000 A 
ATOM     11  C   UNL     1       2.558   7.156  18.132  0.00  0.00    +0.000 A 
ATOM     12  C   UNL     1       2.051   8.402  17.730  0.00  0.00    +0.000 A 
ATOM     13  C   UNL     1       1.435   9.244  18.651  0.00  0.00    +0.000 A 
ATOM     14  C   UNL     1       1.344   8.853  19.981  0.00  0.00    +0.000 A 
ATOM     15  C   UNL     1       1.835   7.602  20.375  0.00  0.00    +0.000 A 
ENDBRANCH   9  10
ENDBRANCH   2   4
BRANCH   1  16
ATOM     16  C   UNL     1       5.681   5.520  17.961  0.00  0.00    +0.000 C 
ATOM     17  C   UNL     1       6.783   4.656  18.544  0.00  0.00    +0.000 C 
ATOM     18  C   UNL     1       7.563   5.715  19.308  0.00  0.00    +0.000 C 
ATOM     19  N   UNL     1       7.667   6.821  18.340  0.00  0.00    +0.000 NA
ATOM     20  C   UNL     1       6.374   6.840  17.606  0.00  0.00    +0.000 C 
ATOM     21  H   UNL     1       8.399   6.579  17.672  0.00  0.00    +0.000 HD
ENDBRANCH   1  16
BRANCH   1  22
ATOM     22  C   UNL     1       4.894   5.057  15.568  0.00  0.00    +0.000 C 
BRANCH  22  24
ATOM     23  C   UNL     1       5.681   3.675  13.516  0.00  0.00    +0.000 C 
ATOM     24  C   UNL     1       5.994   4.144  14.942  0.00  0.00    +0.000 C 
ATOM     25  C   UNL     1       7.360   4.852  14.869  0.00  0.00    +0.000 C 
ENDBRANCH  22  24
ENDBRANCH   1  22
TORSDOF 5
ENDMDL
MODEL 4
REMARK VINA RESULT:      -6.8      1.654      3.345
REMARK  Name = 
REMARK  7 active torsions:
REMARK  status: ('A' for Active; 'I' for Inactive)
REMARK    1  A    between atoms: C_1  and  C_2
REMARK    2  A    between atoms: C_2  and  C_3
REMARK    3  A    between atoms: C_2  and  C_4
REMARK    4  A    between atoms: C_4  and  N_5
REMARK    5  A    between atoms: N_5  and  C_20
REMARK    6  A    between atoms: C_6  and  C_8
REMARK    7  A    between atoms: C_13  and  C_14
REMARK                            x       y       z     vdW  Elec       q    Type
REMARK                         _______ _______ _______ _____ _____    ______ ____
ROOT
ATOM      1  N   UNL     1       5.046   4.942  16.788  0.00  0.00    +0.000 N 
ATOM      2  C   UNL     1       3.894   4.233  17.213  0.00  0.00    +0.000 C 
ATOM      3  O   UNL     1       3.013   3.894  16.423  0.00  0.00    +0.000 OA
ENDROOT
BRANCH   2   4
ATOM      4  C   UNL     1       3.632   3.950  18.667  0.00  0.00    +0.000 A 
ATOM      5  C   UNL     1       4.143   2.693  19.073  0.00  0.00    +0.000 A 
ATOM      6  C   UNL     1       3.891   2.183  20.340  0.00  0.00    +0.000 A 
ATOM      7  C   UNL     1       3.122   2.920  21.225  0.00  0.00    +0.000 A 
ATOM      8  C   UNL     1       2.666   4.196  20.866  0.00  0.00    +0.000 A 
ATOM      9  C   UNL     1       2.931   4.774  19.602  0.00  0.00    +0.000 A 
BRANCH   9  10
ATOM     10  C   UNL     1       2.375   6.136  19.301  0.00  0.00    +0.000 A 
ATOM     11  C   UNL     1       1.800   6.947  20.294  0.00  0.00    +0.000 A 
ATOM     12  C   UNL     1       1.556   8.312  20.076  0.00  0.00    +0.000 A 
ATOM     13  C   UNL     1       1.835   8.891  18.841  0.00  0.00    +0.000 A 
ATOM     14  C   UNL     1       2.335   8.101  17.813  0.00  0.00    +0.000 A 
ATOM     15  C   UNL     1       2.594   6.743  18.040  0.00  0.00    +0.000 A 
ENDBRANCH   9  10
ENDBRANCH   2   4
BRANCH   1  16
ATOM     16  C   UNL     1       5.968   5.574  17.745  0.00  0.00    +0.000 C 
ATOM     17  C   UNL     1       7.166   4.797  18.257  0.00  0.00    +0.000 C 
ATOM     18  C   UNL     1       7.839   5.879  19.087  0.00  0.00    +0.000 C 
ATOM     19  N   UNL     1       7.808   7.054  18.197  0.00  0.00    +0.000 NA
ATOM     20  C   UNL     1       6.510   6.983  17.477  0.00  0.00    +0.000 C 
ATOM     21  H   UNL     1       8.553   6.938  17.509  0.00  0.00    +0.000 HD
ENDBRANCH   1  16
BRANCH   1  22
ATOM     22  C   UNL     1       5.188   5.207  15.333  0.00  0.00    +0.000 C 
BRANCH  22  24
ATOM     23  C   UNL     1       5.596   3.636  13.307  0.00  0.00    +0.000 C 
ATOM     24  C   UNL     1       6.184   4.281  14.568  0.00  0.00    +0.000 C 
ATOM     25  C   UNL     1       7.445   5.040  14.112  0.00  0.00    +0.000 C 
ENDBRANCH  22  24
ENDBRANCH   1  22
TORSDOF 5
ENDMDL
MODEL 5
REMARK VINA RESULT:      -6.6      1.937      4.592
REMARK  Name = 
REMARK  7 active torsions:
REMARK  status: ('A' for Active; 'I' for Inactive)
REMARK    1  A    between atoms: C_1  and  C_2
REMARK    2  A    between atoms: C_2  and  C_3
REMARK    3  A    between atoms: C_2  and  C_4
REMARK    4  A    between atoms: C_4  and  N_5
REMARK    5  A    between atoms: N_5  and  C_20
REMARK    6  A    between atoms: C_6  and  C_8
REMARK    7  A    between atoms: C_13  and  C_14
REMARK                            x       y       z     vdW  Elec       q    Type
REMARK                         _______ _______ _______ _____ _____    ______ ____
ROOT
ATOM      1  N   UNL     1       5.222   4.937  16.985  0.00  0.00    +0.000 N 
ATOM      2  C   UNL     1       3.810   4.932  17.124  0.00  0.00    +0.000 C 
ATOM      3  O   UNL     1       3.094   4.200  16.442  0.00  0.00    +0.000 OA
ENDROOT
BRANCH   2   4
ATOM      4  C   UNL     1       3.102   5.899  18.034  0.00  0.00    +0.000 A 
ATOM      5  C   UNL     1       3.059   7.209  17.499  0.00  0.00    +0.000 A 
ATOM      6  C   UNL     1       2.569   8.278  18.239  0.00  0.00    +0.000 A 
ATOM      7  C   UNL     1       2.114   8.056  19.528  0.00  0.00    +0.000 A 
ATOM      8  C   UNL     1       2.084   6.755  20.049  0.00  0.00    +0.000 A 
ATOM      9  C   UNL     1       2.536   5.630  19.318  0.00  0.00    +0.000 A 
BRANCH   9  10
ATOM     10  C   UNL     1       2.491   4.280  19.974  0.00  0.00    +0.000 A 
ATOM     11  C   UNL     1       3.613   3.437  20.034  0.00  0.00    +0.000 A 
ATOM     12  C   UNL     1       3.652   2.326  20.891  0.00  0.00    +0.000 A 
ATOM     13  C   UNL     1       2.549   1.999  21.674  0.00  0.00    +0.000 A 
ATOM     14  C   UNL     1       1.395   2.769  21.585  0.00  0.00    +0.000 A 
ATOM     15  C   UNL     1       1.366   3.888  20.742  0.00  0.00    +0.000 A 
ENDBRANCH   9  10
ENDBRANCH   2   4
BRANCH   1  16
ATOM     16  C   UNL     1       6.061   5.979  17.599  0.00  0.00    +0.000 C 
ATOM     17  C   UNL     1       7.410   5.607  18.183  0.00  0.00    +0.000 C 
ATOM     18  C   UNL     1       7.913   6.989  18.568  0.00  0.00    +0.000 C 
ATOM     19  N   UNL     1       7.611   7.802  17.376  0.00  0.00    +0.000 NA
ATOM     20  C   UNL     1       6.311   7.299  16.861  0.00  0.00    +0.000 C 
ATOM     21  H   UNL     1       8.324   7.597  16.675  0.00  0.00    +0.000 HD
ENDBRANCH   1  16
BRANCH   1  22
ATOM     22  C   UNL     1       5.818   3.971  16.027  0.00  0.00    +0.000 C 
BRANCH  22  24
ATOM     23  C   UNL     1       7.451   4.935  14.253  0.00  0.00    +0.000 C 
ATOM     24  C   UNL     1       6.016   4.495  14.570  0.00  0.00    +0.000 C 
ATOM     25  C   UNL     1       5.653   3.430  13.518  0.00  0.00    +0.000 C 
ENDBRANCH  22  24
ENDBRANCH   1  22
TORSDOF 5
ENDMDL
MODEL 6
REMARK VINA RESULT:      -6.5      0.774      1.037
REMARK  Name = 
REMARK  7 active torsions:
REMARK  status: ('A' for Active; 'I' for Inactive)
REMARK    1  A    between atoms: C_1  and  C_2
REMARK    2  A    between atoms: C_2  and  C_3
REMARK    3  A    between atoms: C_2  and  C_4
REMARK    4  A    between atoms: C_4  and  N_5
REMARK    5  A    between atoms: N_5  and  C_20
REMARK    6  A    between atoms: C_6  and  C_8
REMARK    7  A    between atoms: C_13  and  C_14
REMARK                            x       y       z     vdW  Elec       q    Type
REMARK                         _______ _______ _______ _____ _____    ______ ____
ROOT
ATOM      1  N   UNL     1       6.633   5.906  17.779  0.00  0.00    +0.000 N 
ATOM      2  C   UNL     1       5.708   5.461  18.757  0.00  0.00    +0.000 C 
ATOM      3  O   UNL     1       5.933   5.575  19.962  0.00  0.00    +0.000 OA
ENDROOT
BRANCH   2   4
ATOM      4  C   UNL     1       4.450   4.726  18.379  0.00  0.00    +0.000 A 
ATOM      5  C   UNL     1       4.690   3.360  18.092  0.00  0.00    +0.000 A 
ATOM      6  C   UNL     1       3.687   2.538  17.594  0.00  0.00    +0.000 A 
ATOM      7  C   UNL     1       2.426   3.066  17.373  0.00  0.00    +0.000 A 
ATOM      8  C   UNL     1       2.152   4.397  17.717  0.00  0.00    +0.000 A 
ATOM      9  C   UNL     1       3.131   5.262  18.264  0.00  0.00    +0.000 A 
BRANCH   9  10
ATOM     10  C   UNL     1       2.747   6.680  18.573  0.00  0.00    +0.000 A 
ATOM     11  C   UNL     1       2.721   7.682  17.589  0.00  0.00    +0.000 A 
ATOM     12  C   UNL     1       2.087   8.914  17.811  0.00  0.00    +0.000 A 
ATOM     13  C   UNL     1       1.505   9.196  19.044  0.00  0.00    +0.000 A 
ATOM     14  C   UNL     1       1.576   8.256  20.065  0.00  0.00    +0.000 A 
ATOM     15  C   UNL     1       2.194   7.020  19.833  0.00  0.00    +0.000 A 
ENDBRANCH   9  10
ENDBRANCH   2   4
BRANCH   1  16
ATOM     16  C   UNL     1       6.499   5.544  16.359  0.00  0.00    +0.000 C 
ATOM     17  C   UNL     1       6.861   4.143  15.904  0.00  0.00    +0.000 C 
ATOM     18  C   UNL     1       6.453   4.233  14.442  0.00  0.00    +0.000 C 
ATOM     19  N   UNL     1       5.127   4.875  14.501  0.00  0.00    +0.000 NA
ATOM     20  C   UNL     1       5.208   5.873  15.599  0.00  0.00    +0.000 C 
ATOM     21  H   UNL     1       4.452   4.161  14.779  0.00  0.00    +0.000 HD
ENDBRANCH   1  16
BRANCH   1  22
ATOM     22  C   UNL     1       7.865   6.581  18.261  0.00  0.00    +0.000 C 
BRANCH  22  24
ATOM     23  C   UNL     1       6.782   8.783  17.411  0.00  0.00    +0.000 C 
ATOM     24  C   UNL     1       8.080   8.043  17.756  0.00  0.00    +0.000 C 
ATOM     25  C   UNL     1       8.804   8.914  18.800  0.00  0.00    +0.000 C 
ENDBRANCH  22  24
ENDBRANCH   1  22
TORSDOF 5
ENDMDL
MODEL 7
REMARK VINA RESULT:      -6.4      2.629      5.746
REMARK  Name = 
REMARK  7 active torsions:
REMARK  status: ('A' for Active; 'I' for Inactive)
REMARK    1  A    between atoms: C_1  and  C_2
REMARK    2  A    between atoms: C_2  and  C_3
REMARK    3  A    between atoms: C_2  and  C_4
REMARK    4  A    between atoms: C_4  and  N_5
REMARK    5  A    between atoms: N_5  and  C_20
REMARK    6  A    between atoms: C_6  and  C_8
REMARK    7  A    between atoms: C_13  and  C_14
REMARK                            x       y       z     vdW  Elec       q    Type
REMARK                         _______ _______ _______ _____ _____    ______ ____
ROOT
ATOM      1  N   UNL     1       2.179   6.530  20.318  0.00  0.00    +0.000 N 
ATOM      2  C   UNL     1       2.556   6.676  18.958  0.00  0.00    +0.000 C 
ATOM      3  O   UNL     1       2.492   7.760  18.380  0.00  0.00    +0.000 OA
ENDROOT
BRANCH   2   4
ATOM      4  C   UNL     1       2.949   5.492  18.116  0.00  0.00    +0.000 A 
ATOM      5  C   UNL     1       1.829   4.742  17.684  0.00  0.00    +0.000 A 
ATOM      6  C   UNL     1       1.980   3.537  17.009  0.00  0.00    +0.000 A 
ATOM      7  C   UNL     1       3.255   3.060  16.754  0.00  0.00    +0.000 A 
ATOM      8  C   UNL     1       4.375   3.823  17.111  0.00  0.00    +0.000 A 
ATOM      9  C   UNL     1       4.270   5.074  17.765  0.00  0.00    +0.000 A 
BRANCH   9  10
ATOM     10  C   UNL     1       5.530   5.803  18.133  0.00  0.00    +0.000 A 
ATOM     11  C   UNL     1       6.373   5.368  19.170  0.00  0.00    +0.000 A 
ATOM     12  C   UNL     1       7.677   5.867  19.315  0.00  0.00    +0.000 A 
ATOM     13  C   UNL     1       8.155   6.852  18.455  0.00  0.00    +0.000 A 
ATOM     14  C   UNL     1       7.323   7.358  17.464  0.00  0.00    +0.000 A 
ATOM     15  C   UNL     1       6.028   6.844  17.311  0.00  0.00    +0.000 A 
ENDBRANCH   9  10
ENDBRANCH   2   4
BRANCH   1  16
ATOM     16  C   UNL     1       2.003   5.208  20.939  0.00  0.00    +0.000 C 
ATOM     17  C   UNL     1       0.838   4.331  20.520  0.00  0.00    +0.000 C 
ATOM     18  C   UNL     1       1.152   3.081  21.326  0.00  0.00    +0.000 C 
ATOM     19  N   UNL     1       2.594   2.882  21.090  0.00  0.00    +0.000 NA
ATOM     20  C   UNL     1       3.190   4.243  21.047  0.00  0.00    +0.000 C 
ATOM     21  H   UNL     1       2.699   2.467  20.163  0.00  0.00    +0.000 HD
ENDBRANCH   1  16
BRANCH   1  22
ATOM     22  C   UNL     1       1.765   7.756  21.047  0.00  0.00    +0.000 C 
BRANCH  22  24
ATOM     23  C   UNL     1      -0.488   8.456  22.132  0.00  0.00    +0.000 C 
ATOM     24  C   UNL     1       0.286   8.207  20.832  0.00  0.00    +0.000 C 
ATOM     25  C   UNL     1       0.193   9.514  20.021  0.00  0.00    +0.000 C 
ENDBRANCH  22  24
ENDBRANCH   1  22
TORSDOF 5
ENDMDL
MODEL 8
REMARK VINA RESULT:      -6.4      1.896      4.662
REMARK  Name = 
REMARK  7 active torsions:
REMARK  status: ('A' for Active; 'I' for Inactive)
REMARK    1  A    between atoms: C_1  and  C_2
REMARK    2  A    between atoms: C_2  and  C_3
REMARK    3  A    between atoms: C_2  and  C_4
REMARK    4  A    between atoms: C_4  and  N_5
REMARK    5  A    between atoms: N_5  and  C_20
REMARK    6  A    between atoms: C_6  and  C_8
REMARK    7  A    between atoms: C_13  and  C_14
REMARK                            x       y       z     vdW  Elec       q    Type
REMARK                         _______ _______ _______ _____ _____    ______ ____
ROOT
ATOM      1  N   UNL     1       5.057   4.985  17.076  0.00  0.00    +0.000 N 
ATOM      2  C   UNL     1       3.650   5.017  17.249  0.00  0.00    +0.000 C 
ATOM      3  O   UNL     1       2.900   4.287  16.601  0.00  0.00    +0.000 OA
ENDROOT
BRANCH   2   4
ATOM      4  C   UNL     1       2.988   6.020  18.154  0.00  0.00    +0.000 A 
ATOM      5  C   UNL     1       2.755   7.258  17.508  0.00  0.00    +0.000 A 
ATOM      6  C   UNL     1       2.276   8.360  18.204  0.00  0.00    +0.000 A 
ATOM      7  C   UNL     1       2.021   8.245  19.560  0.00  0.00    +0.000 A 
ATOM      8  C   UNL     1       2.178   7.009  20.202  0.00  0.00    +0.000 A 
ATOM      9  C   UNL     1       2.626   5.849  19.526  0.00  0.00    +0.000 A 
BRANCH   9  10
ATOM     10  C   UNL     1       2.790   4.578  20.308  0.00  0.00    +0.000 A 
ATOM     11  C   UNL     1       1.798   4.100  21.181  0.00  0.00    +0.000 A 
ATOM     12  C   UNL     1       1.825   2.786  21.674  0.00  0.00    +0.000 A 
ATOM     13  C   UNL     1       2.872   1.930  21.347  0.00  0.00    +0.000 A 
ATOM     14  C   UNL     1       3.909   2.393  20.545  0.00  0.00    +0.000 A 
ATOM     15  C   UNL     1       3.870   3.699  20.041  0.00  0.00    +0.000 A 
ENDBRANCH   9  10
ENDBRANCH   2   4
BRANCH   1  16
ATOM     16  C   UNL     1       5.935   6.020  17.644  0.00  0.00    +0.000 C 
ATOM     17  C   UNL     1       7.309   5.638  18.160  0.00  0.00    +0.000 C 
ATOM     18  C   UNL     1       7.843   7.015  18.517  0.00  0.00    +0.000 C 
ATOM     19  N   UNL     1       7.488   7.830  17.341  0.00  0.00    +0.000 NA
ATOM     20  C   UNL     1       6.160   7.338  16.893  0.00  0.00    +0.000 C 
ATOM     21  H   UNL     1       8.163   7.618  16.605  0.00  0.00    +0.000 HD
ENDBRANCH   1  16
BRANCH   1  22
ATOM     22  C   UNL     1       5.606   3.985  16.125  0.00  0.00    +0.000 C 
BRANCH  22  24
ATOM     23  C   UNL     1       7.412   4.822  14.457  0.00  0.00    +0.000 C 
ATOM     24  C   UNL     1       5.928   4.514  14.692  0.00  0.00    +0.000 C 
ATOM     25  C   UNL     1       5.522   3.508  13.599  0.00  0.00    +0.000 C 
ENDBRANCH  22  24
ENDBRANCH   1  22
TORSDOF 5
ENDMDL
MODEL 9
REMARK VINA RESULT:      -6.2      1.723      4.847
REMARK  Name = 
REMARK  7 active torsions:
REMARK  status: ('A' for Active; 'I' for Inactive)
REMARK    1  A    between atoms: C_1  and  C_2
REMARK    2  A    between atoms: C_2  and  C_3
REMARK    3  A    between atoms: C_2  and  C_4
REMARK    4  A    between atoms: C_4  and  N_5
REMARK    5  A    between atoms: N_5  and  C_20
REMARK    6  A    between atoms: C_6  and  C_8
REMARK    7  A    between atoms: C_13  and  C_14
REMARK                            x       y       z     vdW  Elec       q    Type
REMARK                         _______ _______ _______ _____ _____    ______ ____
ROOT
ATOM      1  N   UNL     1       6.132   6.067  16.411  0.00  0.00    +0.000 N 
ATOM      2  C   UNL     1       4.778   6.382  16.134  0.00  0.00    +0.000 C 
ATOM      3  O   UNL     1       4.358   6.481  14.981  0.00  0.00    +0.000 OA
ENDROOT
BRANCH   2   4
ATOM      4  C   UNL     1       3.804   6.720  17.231  0.00  0.00    +0.000 A 
ATOM      5  C   UNL     1       3.476   8.097  17.255  0.00  0.00    +0.000 A 
ATOM      6  C   UNL     1       2.699   8.639  18.271  0.00  0.00    +0.000 A 
ATOM      7  C   UNL     1       2.237   7.814  19.283  0.00  0.00    +0.000 A 
ATOM      8  C   UNL     1       2.493   6.436  19.238  0.00  0.00    +0.000 A 
ATOM      9  C   UNL     1       3.246   5.833  18.202  0.00  0.00    +0.000 A 
BRANCH   9  10
ATOM     10  C   UNL     1       3.491   4.352  18.259  0.00  0.00    +0.000 A 
ATOM     11  C   UNL     1       4.223   3.752  19.297  0.00  0.00    +0.000 A 
ATOM     12  C   UNL     1       4.197   2.364  19.505  0.00  0.00    +0.000 A 
ATOM     13  C   UNL     1       3.479   1.534  18.650  0.00  0.00    +0.000 A 
ATOM     14  C   UNL     1       2.803   2.087  17.568  0.00  0.00    +0.000 A 
ATOM     15  C   UNL     1       2.816   3.475  17.374  0.00  0.00    +0.000 A 
ENDBRANCH   9  10
ENDBRANCH   2   4
BRANCH   1  16
ATOM     16  C   UNL     1       6.702   6.201  17.761  0.00  0.00    +0.000 C 
ATOM     17  C   UNL     1       7.349   5.000  18.425  0.00  0.00    +0.000 C 
ATOM     18  C   UNL     1       7.864   5.654  19.696  0.00  0.00    +0.000 C 
ATOM     19  N   UNL     1       8.494   6.894  19.206  0.00  0.00    +0.000 NA
ATOM     20  C   UNL     1       7.636   7.371  18.091  0.00  0.00    +0.000 C 
ATOM     21  H   UNL     1       9.402   6.643  18.814  0.00  0.00    +0.000 HD
ENDBRANCH   1  16
BRANCH   1  22
ATOM     22  C   UNL     1       7.021   5.793  15.253  0.00  0.00    +0.000 C 
BRANCH  22  24
ATOM     23  C   UNL     1       5.970   3.423  15.404  0.00  0.00    +0.000 C 
ATOM     24  C   UNL     1       6.977   4.336  14.693  0.00  0.00    +0.000 C 
ATOM     25  C   UNL     1       6.605   4.302  13.199  0.00  0.00    +0.000 C 
ENDBRANCH  22  24
ENDBRANCH   1  22
TORSDOF 5
ENDMDL
