MODEL 1
REMARK VINA RESULT:      -8.5      0.000      0.000
REMARK  Name = 
REMARK  8 active torsions:
REMARK  status: ('A' for Active; 'I' for Inactive)
REMARK    1  A    between atoms: C_1  and  C_2
REMARK    2  A    between atoms: C_2  and  O_3
REMARK    3  A    between atoms: O_3  and  C_4
REMARK    4  A    between atoms: C_9  and  N_10
REMARK    5  A    between atoms: N_10  and  C_11
REMARK    6  A    between atoms: C_11  and  C_12
REMARK    7  A    between atoms: C_11  and  C_23
REMARK    8  A    between atoms: C_15  and  C_16
REMARK                            x       y       z     vdW  Elec       q    Type
REMARK                         _______ _______ _______ _____ _____    ______ ____
ROOT
ATOM      1  C   UNL     1       3.494   6.815  18.059  0.00  0.00    +0.000 C 
ENDROOT
BRANCH   1   2
ATOM      2  C   UNL     1       2.974   5.397  18.398  0.00  0.00    +0.000 A 
ATOM      3  C   UNL     1       1.720   4.953  17.907  0.00  0.00    +0.000 A 
ATOM      4  C   UNL     1       1.223   3.679  18.174  0.00  0.00    +0.000 A 
ATOM      5  C   UNL     1       1.987   2.799  18.912  0.00  0.00    +0.000 A 
ATOM      6  F   UNL     1       1.526   1.565  19.152  0.00  0.00    +0.000 F 
ATOM      7  C   UNL     1       3.237   3.164  19.378  0.00  0.00    +0.000 A 
ATOM      8  C   UNL     1       3.742   4.447  19.116  0.00  0.00    +0.000 A 
ATOM      9 CL   UNL     1       5.357   4.724  19.667  0.00  0.00    +0.000 Cl
ENDBRANCH   1   2
BRANCH   1  10
ATOM     10  C   UNL     1       2.556   7.973  18.327  0.00  0.00    +0.000 A 
ATOM     11  N   UNL     1       1.859   8.717  17.493  0.00  0.00    +0.000 NA
ATOM     12  N   UNL     1       1.021   9.494  18.248  0.00  0.00    +0.000 NA
ATOM     13  C   UNL     1       1.248   9.181  19.508  0.00  0.00    +0.000 A 
ATOM     14  O   UNL     1       2.252   8.253  19.650  0.00  0.00    +0.000 OA
BRANCH  13  15
ATOM     15  C   UNL     1       0.505   9.616  20.682  0.00  0.00    +0.000 A 
ATOM     16  C   UNL     1      -0.155  10.856  20.619  0.00  0.00    +0.000 A 
ATOM     17  C   UNL     1      -0.882  11.349  21.701  0.00  0.00    +0.000 A 
ATOM     18  C   UNL     1      -0.959  10.605  22.873  0.00  0.00    +0.000 A 
ATOM     19  C   UNL     1      -0.320   9.366  22.954  0.00  0.00    +0.000 A 
ATOM     20  C   UNL     1       0.407   8.869  21.864  0.00  0.00    +0.000 A 
ENDBRANCH  13  15
ENDBRANCH   1  10
BRANCH   1  21
ATOM     21  N   UNL     1       4.250   6.860  16.789  0.00  0.00    +0.000 N 
ATOM     22  H   UNL     1       3.750   7.351  16.056  0.00  0.00    +0.000 HD
BRANCH  21  28
ATOM     23  C   UNL     1       6.619   5.999  16.674  0.00  0.00    +0.000 A 
ATOM     24  C   UNL     1       7.514   5.154  15.991  0.00  0.00    +0.000 A 
ATOM     25  C   UNL     1       7.102   4.386  14.905  0.00  0.00    +0.000 A 
ATOM     26  C   UNL     1       5.778   4.420  14.509  0.00  0.00    +0.000 A 
ATOM     27  C   UNL     1       4.869   5.210  15.213  0.00  0.00    +0.000 A 
ATOM     28  C   UNL     1       5.249   6.010  16.315  0.00  0.00    +0.000 A 
BRANCH  23  29
ATOM     29  O   UNL     1       7.043   6.806  17.702  0.00  0.00    +0.000 OA
BRANCH  29  31
ATOM     30  C   UNL     1       8.493   8.588  18.463  0.00  0.00    +0.000 C 
ATOM     31  C   UNL     1       7.573   8.089  17.360  0.00  0.00    +0.000 C 
ENDBRANCH  29  31
ENDBRANCH  23  29
ENDBRANCH  21  28
ENDBRANCH   1  21
TORSDOF 7
ENDMDL
MODEL 2
REMARK VINA RESULT:      -8.4      1.401      1.830
REMARK  Name = 
REMARK  8 active torsions:
REMARK  status: ('A' for Active; 'I' for Inactive)
REMARK    1  A    between atoms: C_1  and  C_2
REMARK    2  A    between atoms: C_2  and  O_3
REMARK    3  A    between atoms: O_3  and  C_4
REMARK    4  A    between atoms: C_9  and  N_10
REMARK    5  A    between atoms: N_10  and  C_11
REMARK    6  A    between atoms: C_11  and  C_12
REMARK    7  A    between atoms: C_11  and  C_23
REMARK    8  A    between atoms: C_15  and  C_16
REMARK                            x       y       z     vdW  Elec       q    Type
REMARK                         _______ _______ _______ _____ _____    ______ ____
ROOT
ATOM      1  C   UNL     1       3.147   6.580  18.617  0.00  0.00    +0.000 C 
ENDROOT
BRANCH   1   2
ATOM      2  C   UNL     1       2.612   5.329  19.355  0.00  0.00    +0.000 A 
ATOM      3  C   UNL     1       2.921   5.112  20.722  0.00  0.00    +0.000 A 
ATOM      4  C   UNL     1       2.446   4.008  21.428  0.00  0.00    +0.000 A 
ATOM      5  C   UNL     1       1.614   3.110  20.793  0.00  0.00    +0.000 A 
ATOM      6  F   UNL     1       1.134   2.060  21.472  0.00  0.00    +0.000 F 
ATOM      7  C   UNL     1       1.244   3.297  19.474  0.00  0.00    +0.000 A 
ATOM      8  C   UNL     1       1.722   4.403  18.755  0.00  0.00    +0.000 A 
ATOM      9 CL   UNL     1       1.091   4.566  17.155  0.00  0.00    +0.000 Cl
ENDBRANCH   1   2
BRANCH   1  10
ATOM     10  C   UNL     1       2.342   7.855  18.753  0.00  0.00    +0.000 A 
ATOM     11  N   UNL     1       1.809   8.631  17.832  0.00  0.00    +0.000 NA
ATOM     12  N   UNL     1       1.018   9.543  18.479  0.00  0.00    +0.000 NA
ATOM     13  C   UNL     1       1.107   9.274  19.766  0.00  0.00    +0.000 A 
ATOM     14  O   UNL     1       1.973   8.241  20.033  0.00  0.00    +0.000 OA
BRANCH  13  15
ATOM     15  C   UNL     1       0.334   9.859  20.854  0.00  0.00    +0.000 A 
ATOM     16  C   UNL     1       0.321   9.183  22.087  0.00  0.00    +0.000 A 
ATOM     17  C   UNL     1      -0.398   9.672  23.175  0.00  0.00    +0.000 A 
ATOM     18  C   UNL     1      -1.123  10.851  23.047  0.00  0.00    +0.000 A 
ATOM     19  C   UNL     1      -1.116  11.544  21.835  0.00  0.00    +0.000 A 
ATOM     20  C   UNL     1      -0.388  11.054  20.741  0.00  0.00    +0.000 A 
ENDBRANCH  13  15
ENDBRANCH   1  10
BRANCH   1  21
ATOM     21  N   UNL     1       3.667   6.271  17.268  0.00  0.00    +0.000 N 
ATOM     22  H   UNL     1       2.938   6.259  16.563  0.00  0.00    +0.000 HD
BRANCH  21  28
ATOM     23  C   UNL     1       6.136   6.101  16.772  0.00  0.00    +0.000 A 
ATOM     24  C   UNL     1       7.160   5.290  16.249  0.00  0.00    +0.000 A 
ATOM     25  C   UNL     1       6.897   4.013  15.761  0.00  0.00    +0.000 A 
ATOM     26  C   UNL     1       5.611   3.509  15.825  0.00  0.00    +0.000 A 
ATOM     27  C   UNL     1       4.598   4.281  16.393  0.00  0.00    +0.000 A 
ATOM     28  C   UNL     1       4.822   5.585  16.892  0.00  0.00    +0.000 A 
BRANCH  23  29
ATOM     29  O   UNL     1       6.385   7.385  17.191  0.00  0.00    +0.000 OA
BRANCH  29  31
ATOM     30  C   UNL     1       7.983   9.115  17.748  0.00  0.00    +0.000 C 
ATOM     31  C   UNL     1       7.633   7.639  17.840  0.00  0.00    +0.000 C 
ENDBRANCH  29  31
ENDBRANCH  23  29
ENDBRANCH  21  28
ENDBRANCH   1  21
TORSDOF 7
ENDMDL
MODEL 3
REMARK VINA RESULT:      -8.4      1.523      2.389
REMARK  Name = 
REMARK  8 active torsions:
REMARK  status: ('A' for Active; 'I' for Inactive)
REMARK    1  A    between atoms: C_1  and  C_2
REMARK    2  A    between atoms: C_2  and  O_3
REMARK    3  A    between atoms: O_3  and  C_4
REMARK    4  A    between atoms: C_9  and  N_10
REMARK    5  A    between atoms: N_10  and  C_11
REMARK    6  A    between atoms: C_11  and  C_12
REMARK    7  A    between atoms: C_11  and  C_23
REMARK    8  A    between atoms: C_15  and  C_16
REMARK                            x       y       z     vdW  Elec       q    Type
REMARK                         _______ _______ _______ _____ _____    ______ ____
ROOT
ATOM      1  C   UNL     1       3.161   6.644  18.527  0.00  0.00    +0.000 C 
ENDROOT
BRANCH   1   2
ATOM      2  C   UNL     1       2.418   5.287  18.568  0.00  0.00    +0.000 A 
ATOM      3  C   UNL     1       2.469   4.403  17.460  0.00  0.00    +0.000 A 
ATOM      4  C   UNL     1       1.829   3.165  17.462  0.00  0.00    +0.000 A 
ATOM      5  C   UNL     1       1.149   2.762  18.592  0.00  0.00    +0.000 A 
ATOM      6  F   UNL     1       0.551   1.563  18.610  0.00  0.00    +0.000 F 
ATOM      7  C   UNL     1       1.104   3.564  19.717  0.00  0.00    +0.000 A 
ATOM      8  C   UNL     1       1.743   4.814  19.720  0.00  0.00    +0.000 A 
ATOM      9 CL   UNL     1       1.694   5.657  21.228  0.00  0.00    +0.000 Cl
ENDBRANCH   1   2
BRANCH   1  10
ATOM     10  C   UNL     1       2.317   7.894  18.654  0.00  0.00    +0.000 A 
ATOM     11  N   UNL     1       1.729   8.624  17.730  0.00  0.00    +0.000 NA
ATOM     12  N   UNL     1       0.927   9.527  18.378  0.00  0.00    +0.000 NA
ATOM     13  C   UNL     1       1.065   9.298  19.668  0.00  0.00    +0.000 A 
ATOM     14  O   UNL     1       1.976   8.303  19.934  0.00  0.00    +0.000 OA
BRANCH  13  15
ATOM     15  C   UNL     1       0.308   9.887  20.764  0.00  0.00    +0.000 A 
ATOM     16  C   UNL     1      -0.379  11.088  20.516  0.00  0.00    +0.000 A 
ATOM     17  C   UNL     1      -1.122  11.719  21.511  0.00  0.00    +0.000 A 
ATOM     18  C   UNL     1      -1.187  11.157  22.781  0.00  0.00    +0.000 A 
ATOM     19  C   UNL     1      -0.520   9.959  23.047  0.00  0.00    +0.000 A 
ATOM     20  C   UNL     1       0.222   9.322  22.044  0.00  0.00    +0.000 A 
ENDBRANCH  13  15
ENDBRANCH   1  10
BRANCH   1  21
ATOM     21  N   UNL     1       4.238   6.677  17.514  0.00  0.00    +0.000 N 
ATOM     22  H   UNL     1       3.888   6.855  16.579  0.00  0.00    +0.000 HD
BRANCH  21  28
ATOM     23  C   UNL     1       6.205   5.505  16.453  0.00  0.00    +0.000 A 
ATOM     24  C   UNL     1       7.421   4.836  16.688  0.00  0.00    +0.000 A 
ATOM     25  C   UNL     1       7.912   4.654  17.978  0.00  0.00    +0.000 A 
ATOM     26  C   UNL     1       7.215   5.174  19.053  0.00  0.00    +0.000 A 
ATOM     27  C   UNL     1       6.039   5.890  18.829  0.00  0.00    +0.000 A 
ATOM     28  C   UNL     1       5.503   6.089  17.536  0.00  0.00    +0.000 A 
BRANCH  23  29
ATOM     29  O   UNL     1       5.689   5.625  15.186  0.00  0.00    +0.000 OA
BRANCH  29  31
ATOM     30  C   UNL     1       6.308   4.028  13.475  0.00  0.00    +0.000 C 
ATOM     31  C   UNL     1       5.280   4.427  14.522  0.00  0.00    +0.000 C 
ENDBRANCH  29  31
ENDBRANCH  23  29
ENDBRANCH  21  28
ENDBRANCH   1  21
TORSDOF 7
ENDMDL
MODEL 4
REMARK VINA RESULT:      -8.3      0.965      1.308
REMARK  Name = 
REMARK  8 active torsions:
REMARK  status: ('A' for Active; 'I' for Inactive)
REMARK    1  A    between atoms: C_1  and  C_2
REMARK    2  A    between atoms: C_2  and  O_3
REMARK    3  A    between atoms: O_3  and  C_4
REMARK    4  A    between atoms: C_9  and  N_10
REMARK    5  A    between atoms: N_10  and  C_11
REMARK    6  A    between atoms: C_11  and  C_12
REMARK    7  A    between atoms: C_11  and  C_23
REMARK    8  A    between atoms: C_15  and  C_16
REMARK                            x       y       z     vdW  Elec       q    Type
REMARK                         _______ _______ _______ _____ _____    ______ ____
ROOT
ATOM      1  C   UNL     1       3.235   6.564  18.483  0.00  0.00    +0.000 C 
ENDROOT
BRANCH   1   2
ATOM      2  C   UNL     1       2.789   5.318  19.286  0.00  0.00    +0.000 A 
ATOM      3  C   UNL     1       1.413   5.007  19.429  0.00  0.00    +0.000 A 
ATOM      4  C   UNL     1       0.971   3.885  20.128  0.00  0.00    +0.000 A 
ATOM      5  C   UNL     1       1.898   3.022  20.672  0.00  0.00    +0.000 A 
ATOM      6  F   UNL     1       1.480   1.929  21.324  0.00  0.00    +0.000 F 
ATOM      7  C   UNL     1       3.254   3.252  20.524  0.00  0.00    +0.000 A 
ATOM      8  C   UNL     1       3.707   4.382  19.825  0.00  0.00    +0.000 A 
ATOM      9 CL   UNL     1       5.420   4.482  19.628  0.00  0.00    +0.000 Cl
ENDBRANCH   1   2
BRANCH   1  10
ATOM     10  C   UNL     1       2.407   7.820  18.651  0.00  0.00    +0.000 A 
ATOM     11  N   UNL     1       1.829   8.588  17.750  0.00  0.00    +0.000 NA
ATOM     12  N   UNL     1       1.038   9.480  18.426  0.00  0.00    +0.000 NA
ATOM     13  C   UNL     1       1.173   9.207  19.708  0.00  0.00    +0.000 A 
ATOM     14  O   UNL     1       2.070   8.193  19.943  0.00  0.00    +0.000 OA
BRANCH  13  15
ATOM     15  C   UNL     1       0.422   9.771  20.822  0.00  0.00    +0.000 A 
ATOM     16  C   UNL     1       0.449   9.082  22.047  0.00  0.00    +0.000 A 
ATOM     17  C   UNL     1      -0.246   9.550  23.160  0.00  0.00    +0.000 A 
ATOM     18  C   UNL     1      -0.989  10.722  23.063  0.00  0.00    +0.000 A 
ATOM     19  C   UNL     1      -1.023  11.427  21.859  0.00  0.00    +0.000 A 
ATOM     20  C   UNL     1      -0.318  10.959  20.742  0.00  0.00    +0.000 A 
ENDBRANCH  13  15
ENDBRANCH   1  10
BRANCH   1  21
ATOM     21  N   UNL     1       3.664   6.237  17.107  0.00  0.00    +0.000 N 
ATOM     22  H   UNL     1       2.882   6.136  16.469  0.00  0.00    +0.000 HD
BRANCH  21  28
ATOM     23  C   UNL     1       6.120   6.210  16.528  0.00  0.00    +0.000 A 
ATOM     24  C   UNL     1       7.162   5.478  15.930  0.00  0.00    +0.000 A 
ATOM     25  C   UNL     1       6.942   4.219  15.378  0.00  0.00    +0.000 A 
ATOM     26  C   UNL     1       5.682   3.653  15.452  0.00  0.00    +0.000 A 
ATOM     27  C   UNL     1       4.655   4.344  16.094  0.00  0.00    +0.000 A 
ATOM     28  C   UNL     1       4.835   5.627  16.659  0.00  0.00    +0.000 A 
BRANCH  23  29
ATOM     29  O   UNL     1       6.325   7.479  17.012  0.00  0.00    +0.000 OA
BRANCH  29  31
ATOM     30  C   UNL     1       8.015   6.852  18.627  0.00  0.00    +0.000 C 
ATOM     31  C   UNL     1       7.629   7.799  17.501  0.00  0.00    +0.000 C 
ENDBRANCH  29  31
ENDBRANCH  23  29
ENDBRANCH  21  28
ENDBRANCH   1  21
TORSDOF 7
ENDMDL
MODEL 5
REMARK VINA RESULT:      -8.3      1.168      1.498
REMARK  Name = 
REMARK  8 active torsions:
REMARK  status: ('A' for Active; 'I' for Inactive)
REMARK    1  A    between atoms: C_1  and  C_2
REMARK    2  A    between atoms: C_2  and  O_3
REMARK    3  A    between atoms: O_3  and  C_4
REMARK    4  A    between atoms: C_9  and  N_10
REMARK    5  A    between atoms: N_10  and  C_11
REMARK    6  A    between atoms: C_11  and  C_12
REMARK    7  A    between atoms: C_11  and  C_23
REMARK    8  A    between atoms: C_15  and  C_16
REMARK                            x       y       z     vdW  Elec       q    Type
REMARK                         _______ _______ _______ _____ _____    ______ ____
ROOT
ATOM      1  C   UNL     1       3.247   6.795  18.384  0.00  0.00    +0.000 C 
ENDROOT
BRANCH   1   2
ATOM      2  C   UNL     1       2.571   5.404  18.459  0.00  0.00    +0.000 A 
ATOM      3  C   UNL     1       2.519   4.566  17.316  0.00  0.00    +0.000 A 
ATOM      4  C   UNL     1       1.935   3.301  17.344  0.00  0.00    +0.000 A 
ATOM      5  C   UNL     1       1.421   2.824  18.531  0.00  0.00    +0.000 A 
ATOM      6  F   UNL     1       0.880   1.599  18.572  0.00  0.00    +0.000 F 
ATOM      7  C   UNL     1       1.485   3.580  19.687  0.00  0.00    +0.000 A 
ATOM      8  C   UNL     1       2.067   4.857  19.665  0.00  0.00    +0.000 A 
ATOM      9 CL   UNL     1       2.175   5.640  21.202  0.00  0.00    +0.000 Cl
ENDBRANCH   1   2
BRANCH   1  10
ATOM     10  C   UNL     1       2.354   8.003  18.565  0.00  0.00    +0.000 A 
ATOM     11  N   UNL     1       1.698   8.721  17.676  0.00  0.00    +0.000 NA
ATOM     12  N   UNL     1       0.883   9.576  18.370  0.00  0.00    +0.000 NA
ATOM     13  C   UNL     1       1.081   9.334  19.650  0.00  0.00    +0.000 A 
ATOM     14  O   UNL     1       2.044   8.377  19.864  0.00  0.00    +0.000 OA
BRANCH  13  15
ATOM     15  C   UNL     1       0.341   9.871  20.784  0.00  0.00    +0.000 A 
ATOM     16  C   UNL     1       0.218   9.064  21.929  0.00  0.00    +0.000 A 
ATOM     17  C   UNL     1      -0.479   9.501  23.053  0.00  0.00    +0.000 A 
ATOM     18  C   UNL     1      -1.071  10.759  23.050  0.00  0.00    +0.000 A 
ATOM     19  C   UNL     1      -0.953  11.580  21.927  0.00  0.00    +0.000 A 
ATOM     20  C   UNL     1      -0.247  11.143  20.798  0.00  0.00    +0.000 A 
ENDBRANCH  13  15
ENDBRANCH   1  10
BRANCH   1  21
ATOM     21  N   UNL     1       4.264   6.882  17.313  0.00  0.00    +0.000 N 
ATOM     22  H   UNL     1       4.065   7.621  16.648  0.00  0.00    +0.000 HD
BRANCH  21  28
ATOM     23  C   UNL     1       6.186   5.260  17.517  0.00  0.00    +0.000 A 
ATOM     24  C   UNL     1       7.049   4.391  16.823  0.00  0.00    +0.000 A 
ATOM     25  C   UNL     1       6.948   4.216  15.446  0.00  0.00    +0.000 A 
ATOM     26  C   UNL     1       5.955   4.875  14.745  0.00  0.00    +0.000 A 
ATOM     27  C   UNL     1       5.057   5.693  15.430  0.00  0.00    +0.000 A 
ATOM     28  C   UNL     1       5.131   5.905  16.825  0.00  0.00    +0.000 A 
BRANCH  23  29
ATOM     29  O   UNL     1       6.330   5.483  18.865  0.00  0.00    +0.000 OA
BRANCH  29  31
ATOM     30  C   UNL     1       8.103   7.106  18.579  0.00  0.00    +0.000 C 
ATOM     31  C   UNL     1       7.621   5.879  19.335  0.00  0.00    +0.000 C 
ENDBRANCH  29  31
ENDBRANCH  23  29
ENDBRANCH  21  28
ENDBRANCH   1  21
TORSDOF 7
ENDMDL
MODEL 6
REMARK VINA RESULT:      -8.2      1.150      1.202
REMARK  Name = 
REMARK  8 active torsions:
REMARK  status: ('A' for Active; 'I' for Inactive)
REMARK    1  A    between atoms: C_1  and  C_2
REMARK    2  A    between atoms: C_2  and  O_3
REMARK    3  A    between atoms: O_3  and  C_4
REMARK    4  A    between atoms: C_9  and  N_10
REMARK    5  A    between atoms: N_10  and  C_11
REMARK    6  A    between atoms: C_11  and  C_12
REMARK    7  A    between atoms: C_11  and  C_23
REMARK    8  A    between atoms: C_15  and  C_16
REMARK                            x       y       z     vdW  Elec       q    Type
REMARK                         _______ _______ _______ _____ _____    ______ ____
ROOT
ATOM      1  C   UNL     1       3.365   5.956  18.581  0.00  0.00    +0.000 C 
ENDROOT
BRANCH   1   2
ATOM      2  C   UNL     1       2.900   4.825  19.529  0.00  0.00    +0.000 A 
ATOM      3  C   UNL     1       1.548   4.750  19.953  0.00  0.00    +0.000 A 
ATOM      4  C   UNL     1       1.085   3.738  20.792  0.00  0.00    +0.000 A 
ATOM      5  C   UNL     1       1.955   2.750  21.199  0.00  0.00    +0.000 A 
ATOM      6  F   UNL     1       1.510   1.761  21.985  0.00  0.00    +0.000 F 
ATOM      7  C   UNL     1       3.273   2.748  20.779  0.00  0.00    +0.000 A 
ATOM      8  C   UNL     1       3.748   3.766  19.938  0.00  0.00    +0.000 A 
ATOM      9 CL   UNL     1       5.382   3.575  19.409  0.00  0.00    +0.000 Cl
ENDBRANCH   1   2
BRANCH   1  10
ATOM     10  C   UNL     1       2.688   7.302  18.733  0.00  0.00    +0.000 A 
ATOM     11  N   UNL     1       2.313   8.176  17.822  0.00  0.00    +0.000 NA
ATOM     12  N   UNL     1       1.572   9.134  18.463  0.00  0.00    +0.000 NA
ATOM     13  C   UNL     1       1.530   8.792  19.735  0.00  0.00    +0.000 A 
ATOM     14  O   UNL     1       2.261   7.660  20.003  0.00  0.00    +0.000 OA
BRANCH  13  15
ATOM     15  C   UNL     1       0.738   9.400  20.796  0.00  0.00    +0.000 A 
ATOM     16  C   UNL     1       0.161  10.658  20.545  0.00  0.00    +0.000 A 
ATOM     17  C   UNL     1      -0.604  11.311  21.509  0.00  0.00    +0.000 A 
ATOM     18  C   UNL     1      -0.804  10.714  22.748  0.00  0.00    +0.000 A 
ATOM     19  C   UNL     1      -0.249   9.461  23.015  0.00  0.00    +0.000 A 
ATOM     20  C   UNL     1       0.517   8.802  22.044  0.00  0.00    +0.000 A 
ENDBRANCH  13  15
ENDBRANCH   1  10
BRANCH   1  21
ATOM     21  N   UNL     1       3.595   5.488  17.198  0.00  0.00    +0.000 N 
ATOM     22  H   UNL     1       2.789   5.010  16.810  0.00  0.00    +0.000 HD
BRANCH  21  28
ATOM     23  C   UNL     1       6.049   5.822  16.712  0.00  0.00    +0.000 A 
ATOM     24  C   UNL     1       7.120   5.481  15.865  0.00  0.00    +0.000 A 
ATOM     25  C   UNL     1       6.953   4.600  14.801  0.00  0.00    +0.000 A 
ATOM     26  C   UNL     1       5.719   4.012  14.590  0.00  0.00    +0.000 A 
ATOM     27  C   UNL     1       4.664   4.297  15.456  0.00  0.00    +0.000 A 
ATOM     28  C   UNL     1       4.791   5.193  16.543  0.00  0.00    +0.000 A 
BRANCH  23  29
ATOM     29  O   UNL     1       6.200   6.743  17.720  0.00  0.00    +0.000 OA
BRANCH  29  31
ATOM     30  C   UNL     1       7.958   8.406  17.667  0.00  0.00    +0.000 C 
ATOM     31  C   UNL     1       7.529   7.032  18.158  0.00  0.00    +0.000 C 
ENDBRANCH  29  31
ENDBRANCH  23  29
ENDBRANCH  21  28
ENDBRANCH   1  21
TORSDOF 7
ENDMDL
MODEL 7
REMARK VINA RESULT:      -8.2      1.804      2.629
REMARK  Name = 
REMARK  8 active torsions:
REMARK  status: ('A' for Active; 'I' for Inactive)
REMARK    1  A    between atoms: C_1  and  C_2
REMARK    2  A    between atoms: C_2  and  O_3
REMARK    3  A    between atoms: O_3  and  C_4
REMARK    4  A    between atoms: C_9  and  N_10
REMARK    5  A    between atoms: N_10  and  C_11
REMARK    6  A    between atoms: C_11  and  C_12
REMARK    7  A    between atoms: C_11  and  C_23
REMARK    8  A    between atoms: C_15  and  C_16
REMARK                            x       y       z     vdW  Elec       q    Type
REMARK                         _______ _______ _______ _____ _____    ______ ____
ROOT
ATOM      1  C   UNL     1       2.966   6.360  19.595  0.00  0.00    +0.000 C 
ENDROOT
BRANCH   1   2
ATOM      2  C   UNL     1       2.155   5.073  19.306  0.00  0.00    +0.000 A 
ATOM      3  C   UNL     1       1.794   4.733  17.978  0.00  0.00    +0.000 A 
ATOM      4  C   UNL     1       1.080   3.575  17.672  0.00  0.00    +0.000 A 
ATOM      5  C   UNL     1       0.741   2.707  18.688  0.00  0.00    +0.000 A 
ATOM      6  F   UNL     1       0.076   1.580  18.398  0.00  0.00    +0.000 F 
ATOM      7  C   UNL     1       1.106   2.966  19.996  0.00  0.00    +0.000 A 
ATOM      8  C   UNL     1       1.821   4.132  20.311  0.00  0.00    +0.000 A 
ATOM      9 CL   UNL     1       2.302   4.270  21.965  0.00  0.00    +0.000 Cl
ENDBRANCH   1   2
BRANCH   1  10
ATOM     10  C   UNL     1       2.234   7.678  19.459  0.00  0.00    +0.000 A 
ATOM     11  N   UNL     1       1.869   8.345  18.383  0.00  0.00    +0.000 NA
ATOM     12  N   UNL     1       1.065   9.373  18.799  0.00  0.00    +0.000 NA
ATOM     13  C   UNL     1       0.977   9.279  20.110  0.00  0.00    +0.000 A 
ATOM     14  O   UNL     1       1.736   8.253  20.619  0.00  0.00    +0.000 OA
BRANCH  13  15
ATOM     15  C   UNL     1       0.116  10.043  21.003  0.00  0.00    +0.000 A 
ATOM     16  C   UNL     1      -0.060   9.565  22.314  0.00  0.00    +0.000 A 
ATOM     17  C   UNL     1      -0.871  10.233  23.228  0.00  0.00    +0.000 A 
ATOM     18  C   UNL     1      -1.528  11.396  22.843  0.00  0.00    +0.000 A 
ATOM     19  C   UNL     1      -1.360  11.894  21.549  0.00  0.00    +0.000 A 
ATOM     20  C   UNL     1      -0.539  11.225  20.632  0.00  0.00    +0.000 A 
ENDBRANCH  13  15
ENDBRANCH   1  10
BRANCH   1  21
ATOM     21  N   UNL     1       4.338   6.309  19.046  0.00  0.00    +0.000 N 
ATOM     22  H   UNL     1       4.927   7.054  19.402  0.00  0.00    +0.000 HD
BRANCH  21  28
ATOM     23  C   UNL     1       5.481   4.510  17.696  0.00  0.00    +0.000 A 
ATOM     24  C   UNL     1       5.999   4.159  16.435  0.00  0.00    +0.000 A 
ATOM     25  C   UNL     1       5.941   5.037  15.357  0.00  0.00    +0.000 A 
ATOM     26  C   UNL     1       5.327   6.267  15.510  0.00  0.00    +0.000 A 
ATOM     27  C   UNL     1       4.759   6.603  16.738  0.00  0.00    +0.000 A 
ATOM     28  C   UNL     1       4.804   5.744  17.860  0.00  0.00    +0.000 A 
BRANCH  23  29
ATOM     29  O   UNL     1       5.599   3.670  18.776  0.00  0.00    +0.000 OA
BRANCH  29  31
ATOM     30  C   UNL     1       4.674   2.033  20.300  0.00  0.00    +0.000 C 
ATOM     31  C   UNL     1       4.656   2.601  18.890  0.00  0.00    +0.000 C 
ENDBRANCH  29  31
ENDBRANCH  23  29
ENDBRANCH  21  28
ENDBRANCH   1  21
TORSDOF 7
ENDMDL
MODEL 8
REMARK VINA RESULT:      -8.1      1.776      2.864
REMARK  Name = 
REMARK  8 active torsions:
REMARK  status: ('A' for Active; 'I' for Inactive)
REMARK    1  A    between atoms: C_1  and  C_2
REMARK    2  A    between atoms: C_2  and  O_3
REMARK    3  A    between atoms: O_3  and  C_4
REMARK    4  A    between atoms: C_9  and  N_10
REMARK    5  A    between atoms: N_10  and  C_11
REMARK    6  A    between atoms: C_11  and  C_12
REMARK    7  A    between atoms: C_11  and  C_23
REMARK    8  A    between atoms: C_15  and  C_16
REMARK                            x       y       z     vdW  Elec       q    Type
REMARK                         _______ _______ _______ _____ _____    ______ ____
ROOT
ATOM      1  C   UNL     1       3.202   6.366  19.081  0.00  0.00    +0.000 C 
ENDROOT
BRANCH   1   2
ATOM      2  C   UNL     1       2.549   5.128  19.740  0.00  0.00    +0.000 A 
ATOM      3  C   UNL     1       2.726   4.870  21.124  0.00  0.00    +0.000 A 
ATOM      4  C   UNL     1       2.141   3.776  21.759  0.00  0.00    +0.000 A 
ATOM      5  C   UNL     1       1.330   2.930  21.033  0.00  0.00    +0.000 A 
ATOM      6  F   UNL     1       0.745   1.891  21.643  0.00  0.00    +0.000 F 
ATOM      7  C   UNL     1       1.086   3.159  19.691  0.00  0.00    +0.000 A 
ATOM      8  C   UNL     1       1.675   4.256  19.043  0.00  0.00    +0.000 A 
ATOM      9 CL   UNL     1       1.196   4.478  17.398  0.00  0.00    +0.000 Cl
ENDBRANCH   1   2
BRANCH   1  10
ATOM     10  C   UNL     1       2.374   7.632  19.025  0.00  0.00    +0.000 A 
ATOM     11  N   UNL     1       1.851   8.265  17.995  0.00  0.00    +0.000 NA
ATOM     12  N   UNL     1       1.030   9.241  18.495  0.00  0.00    +0.000 NA
ATOM     13  C   UNL     1       1.092   9.151  19.809  0.00  0.00    +0.000 A 
ATOM     14  O   UNL     1       1.969   8.182  20.232  0.00  0.00    +0.000 OA
BRANCH  13  15
ATOM     15  C   UNL     1       0.285   9.864  20.790  0.00  0.00    +0.000 A 
ATOM     16  C   UNL     1       0.201   9.326  22.086  0.00  0.00    +0.000 A 
ATOM     17  C   UNL     1      -0.555   9.942  23.081  0.00  0.00    +0.000 A 
ATOM     18  C   UNL     1      -1.248  11.113  22.792  0.00  0.00    +0.000 A 
ATOM     19  C   UNL     1      -1.171  11.669  21.514  0.00  0.00    +0.000 A 
ATOM     20  C   UNL     1      -0.406  11.052  20.515  0.00  0.00    +0.000 A 
ENDBRANCH  13  15
ENDBRANCH   1  10
BRANCH   1  21
ATOM     21  N   UNL     1       3.973   6.029  17.865  0.00  0.00    +0.000 N 
ATOM     22  H   UNL     1       3.378   5.736  17.097  0.00  0.00    +0.000 HD
BRANCH  21  28
ATOM     23  C   UNL     1       5.863   4.822  16.710  0.00  0.00    +0.000 A 
ATOM     24  C   UNL     1       7.202   4.398  16.810  0.00  0.00    +0.000 A 
ATOM     25  C   UNL     1       7.967   4.673  17.940  0.00  0.00    +0.000 A 
ATOM     26  C   UNL     1       7.420   5.413  18.972  0.00  0.00    +0.000 A 
ATOM     27  C   UNL     1       6.113   5.888  18.859  0.00  0.00    +0.000 A 
ATOM     28  C   UNL     1       5.300   5.623  17.734  0.00  0.00    +0.000 A 
BRANCH  23  29
ATOM     29  O   UNL     1       5.089   4.492  15.624  0.00  0.00    +0.000 OA
BRANCH  29  31
ATOM     30  C   UNL     1       5.942   3.726  13.492  0.00  0.00    +0.000 C 
ATOM     31  C   UNL     1       5.536   4.923  14.337  0.00  0.00    +0.000 C 
ENDBRANCH  29  31
ENDBRANCH  23  29
ENDBRANCH  21  28
ENDBRANCH   1  21
TORSDOF 7
ENDMDL
MODEL 9
REMARK VINA RESULT:      -8.1      2.432      4.573
REMARK  Name = 
REMARK  8 active torsions:
REMARK  status: ('A' for Active; 'I' for Inactive)
REMARK    1  A    between atoms: C_1  and  C_2
REMARK    2  A    between atoms: C_2  and  O_3
REMARK    3  A    between atoms: O_3  and  C_4
REMARK    4  A    between atoms: C_9  and  N_10
REMARK    5  A    between atoms: N_10  and  C_11
REMARK    6  A    between atoms: C_11  and  C_12
REMARK    7  A    between atoms: C_11  and  C_23
REMARK    8  A    between atoms: C_15  and  C_16
REMARK                            x       y       z     vdW  Elec       q    Type
REMARK                         _______ _______ _______ _____ _____    ______ ____
ROOT
ATOM      1  C   UNL     1       2.776   6.598  17.755  0.00  0.00    +0.000 C 
ENDROOT
BRANCH   1   2
ATOM      2  C   UNL     1       4.266   6.249  17.986  0.00  0.00    +0.000 A 
ATOM      3  C   UNL     1       4.687   5.656  19.203  0.00  0.00    +0.000 A 
ATOM      4  C   UNL     1       6.016   5.311  19.445  0.00  0.00    +0.000 A 
ATOM      5  C   UNL     1       6.955   5.516  18.456  0.00  0.00    +0.000 A 
ATOM      6  F   UNL     1       8.229   5.164  18.673  0.00  0.00    +0.000 F 
ATOM      7  C   UNL     1       6.593   6.049  17.233  0.00  0.00    +0.000 A 
ATOM      8  C   UNL     1       5.257   6.403  16.984  0.00  0.00    +0.000 A 
ATOM      9 CL   UNL     1       4.934   6.955  15.379  0.00  0.00    +0.000 Cl
ENDBRANCH   1   2
BRANCH   1  10
ATOM     10  C   UNL     1       2.300   7.945  18.255  0.00  0.00    +0.000 A 
ATOM     11  N   UNL     1       2.090   9.071  17.606  0.00  0.00    +0.000 NA
ATOM     12  N   UNL     1       1.477   9.932  18.477  0.00  0.00    +0.000 NA
ATOM     13  C   UNL     1       1.340   9.283  19.616  0.00  0.00    +0.000 A 
ATOM     14  O   UNL     1       1.887   8.023  19.576  0.00  0.00    +0.000 OA
BRANCH  13  15
ATOM     15  C   UNL     1       0.610   9.709  20.802  0.00  0.00    +0.000 A 
ATOM     16  C   UNL     1      -0.096  10.924  20.737  0.00  0.00    +0.000 A 
ATOM     17  C   UNL     1      -0.814  11.406  21.830  0.00  0.00    +0.000 A 
ATOM     18  C   UNL     1      -0.835  10.678  23.014  0.00  0.00    +0.000 A 
ATOM     19  C   UNL     1      -0.150   9.465  23.097  0.00  0.00    +0.000 A 
ATOM     20  C   UNL     1       0.568   8.977  21.997  0.00  0.00    +0.000 A 
ENDBRANCH  13  15
ENDBRANCH   1  10
BRANCH   1  21
ATOM     21  N   UNL     1       1.875   5.450  17.994  0.00  0.00    +0.000 N 
ATOM     22  H   UNL     1       0.943   5.605  17.626  0.00  0.00    +0.000 HD
BRANCH  21  28
ATOM     23  C   UNL     1       2.051   3.059  18.780  0.00  0.00    +0.000 A 
ATOM     24  C   UNL     1       1.961   2.192  19.884  0.00  0.00    +0.000 A 
ATOM     25  C   UNL     1       1.670   2.668  21.160  0.00  0.00    +0.000 A 
ATOM     26  C   UNL     1       1.504   4.027  21.359  0.00  0.00    +0.000 A 
ATOM     27  C   UNL     1       1.647   4.902  20.283  0.00  0.00    +0.000 A 
ATOM     28  C   UNL     1       1.934   4.458  18.972  0.00  0.00    +0.000 A 
BRANCH  23  29
ATOM     29  O   UNL     1       2.272   2.580  17.511  0.00  0.00    +0.000 OA
BRANCH  29  31
ATOM     30  C   UNL     1       4.515   3.000  16.705  0.00  0.00    +0.000 C 
ATOM     31  C   UNL     1       3.537   1.969  17.246  0.00  0.00    +0.000 C 
ENDBRANCH  29  31
ENDBRANCH  23  29
ENDBRANCH  21  28
ENDBRANCH   1  21
TORSDOF 7
ENDMDL
