MODEL 1
REMARK VINA RESULT:      -6.9      0.000      0.000
REMARK  Name = 
REMARK  9 active torsions:
REMARK  status: ('A' for Active; 'I' for Inactive)
REMARK    1  A    between atoms: C_1  and  C_2
REMARK    2  A    between atoms: C_2  and  O_3
REMARK    3  A    between atoms: O_3  and  C_4
REMARK    4  A    between atoms: C_6  and  C_7
REMARK    5  A    between atoms: C_16  and  C_17
REMARK    6  A    between atoms: C_18  and  C_19
REMARK    7  A    between atoms: C_19  and  C_20
REMARK    8  A    between atoms: C_20  and  C_21
REMARK    9  A    between atoms: C_21  and  O_22
REMARK                            x       y       z     vdW  Elec       q    Type
REMARK                         _______ _______ _______ _____ _____    ______ ____
ROOT
ATOM      1  C   UNL     1       5.072   6.674  17.683  0.00  0.00    +0.000 C 
ATOM      2  O   UNL     1       4.735   5.665  18.627  0.00  0.00    +0.000 OA
ATOM      3  C   UNL     1       4.953   4.357  18.360  0.00  0.00    +0.000 C 
ATOM      4  C   UNL     1       5.579   3.916  17.261  0.00  0.00    +0.000 C 
ATOM      5  C   UNL     1       6.100   4.812  16.192  0.00  0.00    +0.000 C 
ATOM      6  C   UNL     1       5.341   4.544  14.893  0.00  0.00    +0.000 C 
ATOM      7  C   UNL     1       6.080   6.313  16.557  0.00  0.00    +0.000 C 
ENDROOT
BRANCH   3   8
ATOM      8  C   UNL     1       4.418   3.299  19.308  0.00  0.00    +0.000 C 
ATOM      9  O   UNL     1       5.214   2.588  19.926  0.00  0.00    +0.000 OA
ATOM     10  N   UNL     1       3.051   3.150  19.470  0.00  0.00    +0.000 N 
ATOM     11  C   UNL     1       1.978   4.000  18.942  0.00  0.00    +0.000 C 
ATOM     12  C   UNL     1       1.034   4.455  20.064  0.00  0.00    +0.000 C 
ATOM     13  O   UNL     1       0.548   3.348  20.835  0.00  0.00    +0.000 OA
ATOM     14  C   UNL     1       1.642   2.618  21.413  0.00  0.00    +0.000 C 
ATOM     15  C   UNL     1       2.555   2.061  20.317  0.00  0.00    +0.000 C 
ENDBRANCH   3   8
BRANCH   1  16
ATOM     16  O   UNL     1       3.877   7.228  17.099  0.00  0.00    +0.000 OA
BRANCH  16  18
ATOM     17  C   UNL     1       2.155   8.767  17.803  0.00  0.00    +0.000 C 
ATOM     18  C   UNL     1       2.881   7.470  18.101  0.00  0.00    +0.000 C 
ENDBRANCH  16  18
ENDBRANCH   1  16
BRANCH   7  19
ATOM     19  C   UNL     1       7.503   6.816  16.932  0.00  0.00    +0.000 C 
BRANCH  19  20
ATOM     20  C   UNL     1       7.718   6.914  18.454  0.00  0.00    +0.000 C 
BRANCH  20  21
ATOM     21  C   UNL     1       8.238   5.617  19.062  0.00  0.00    +0.000 C 
BRANCH  21  22
ATOM     22  O   UNL     1       7.853   5.511  20.425  0.00  0.00    +0.000 OA
ATOM     23  H   UNL     1       8.370   6.166  20.926  0.00  0.00    +0.000 HD
ENDBRANCH  21  22
ENDBRANCH  20  21
ENDBRANCH  19  20
ENDBRANCH   7  19
TORSDOF 7
ENDMDL
MODEL 2
REMARK VINA RESULT:      -6.8      2.111      3.167
REMARK  Name = 
REMARK  9 active torsions:
REMARK  status: ('A' for Active; 'I' for Inactive)
REMARK    1  A    between atoms: C_1  and  C_2
REMARK    2  A    between atoms: C_2  and  O_3
REMARK    3  A    between atoms: O_3  and  C_4
REMARK    4  A    between atoms: C_6  and  C_7
REMARK    5  A    between atoms: C_16  and  C_17
REMARK    6  A    between atoms: C_18  and  C_19
REMARK    7  A    between atoms: C_19  and  C_20
REMARK    8  A    between atoms: C_20  and  C_21
REMARK    9  A    between atoms: C_21  and  O_22
REMARK                            x       y       z     vdW  Elec       q    Type
REMARK                         _______ _______ _______ _____ _____    ______ ____
ROOT
ATOM      1  C   UNL     1       5.383   6.538  16.493  0.00  0.00    +0.000 C 
ATOM      2  O   UNL     1       4.350   6.312  17.443  0.00  0.00    +0.000 OA
ATOM      3  C   UNL     1       4.621   5.782  18.658  0.00  0.00    +0.000 C 
ATOM      4  C   UNL     1       5.859   5.526  19.099  0.00  0.00    +0.000 C 
ATOM      5  C   UNL     1       7.089   5.781  18.299  0.00  0.00    +0.000 C 
ATOM      6  C   UNL     1       7.784   4.452  18.002  0.00  0.00    +0.000 C 
ATOM      7  C   UNL     1       6.848   6.592  17.006  0.00  0.00    +0.000 C 
ENDROOT
BRANCH   3   8
ATOM      8  C   UNL     1       3.478   5.387  19.575  0.00  0.00    +0.000 C 
ATOM      9  O   UNL     1       2.881   6.263  20.205  0.00  0.00    +0.000 OA
ATOM     10  N   UNL     1       3.118   4.054  19.690  0.00  0.00    +0.000 N 
ATOM     11  C   UNL     1       3.609   2.913  18.909  0.00  0.00    +0.000 C 
ATOM     12  C   UNL     1       2.442   2.121  18.301  0.00  0.00    +0.000 C 
ATOM     13  O   UNL     1       1.474   1.752  19.291  0.00  0.00    +0.000 OA
ATOM     14  C   UNL     1       0.953   2.919  19.947  0.00  0.00    +0.000 C 
ATOM     15  C   UNL     1       2.076   3.684  20.653  0.00  0.00    +0.000 C 
ENDBRANCH   3   8
BRANCH   1  16
ATOM     16  O   UNL     1       5.286   5.586  15.416  0.00  0.00    +0.000 OA
BRANCH  16  18
ATOM     17  C   UNL     1       6.520   4.060  14.010  0.00  0.00    +0.000 C 
ATOM     18  C   UNL     1       6.575   5.322  14.848  0.00  0.00    +0.000 C 
ENDBRANCH  16  18
ENDBRANCH   1  16
BRANCH   7  19
ATOM     19  C   UNL     1       7.300   8.070  17.183  0.00  0.00    +0.000 C 
BRANCH  19  20
ATOM     20  C   UNL     1       8.313   8.250  18.330  0.00  0.00    +0.000 C 
BRANCH  20  21
ATOM     21  C   UNL     1       8.761   9.696  18.501  0.00  0.00    +0.000 C 
BRANCH  21  22
ATOM     22  O   UNL     1       9.427   9.873  19.743  0.00  0.00    +0.000 OA
ATOM     23  H   UNL     1       9.054   9.226  20.368  0.00  0.00    +0.000 HD
ENDBRANCH  21  22
ENDBRANCH  20  21
ENDBRANCH  19  20
ENDBRANCH   7  19
TORSDOF 7
ENDMDL
MODEL 3
REMARK VINA RESULT:      -6.6      1.779      1.955
REMARK  Name = 
REMARK  9 active torsions:
REMARK  status: ('A' for Active; 'I' for Inactive)
REMARK    1  A    between atoms: C_1  and  C_2
REMARK    2  A    between atoms: C_2  and  O_3
REMARK    3  A    between atoms: O_3  and  C_4
REMARK    4  A    between atoms: C_6  and  C_7
REMARK    5  A    between atoms: C_16  and  C_17
REMARK    6  A    between atoms: C_18  and  C_19
REMARK    7  A    between atoms: C_19  and  C_20
REMARK    8  A    between atoms: C_20  and  C_21
REMARK    9  A    between atoms: C_21  and  O_22
REMARK                            x       y       z     vdW  Elec       q    Type
REMARK                         _______ _______ _______ _____ _____    ______ ____
ROOT
ATOM      1  C   UNL     1       5.312   6.977  17.959  0.00  0.00    +0.000 C 
ATOM      2  O   UNL     1       4.851   5.820  18.647  0.00  0.00    +0.000 OA
ATOM      3  C   UNL     1       5.282   4.585  18.304  0.00  0.00    +0.000 C 
ATOM      4  C   UNL     1       6.228   4.355  17.384  0.00  0.00    +0.000 C 
ATOM      5  C   UNL     1       6.912   5.433  16.616  0.00  0.00    +0.000 C 
ATOM      6  C   UNL     1       6.568   5.294  15.134  0.00  0.00    +0.000 C 
ATOM      7  C   UNL     1       6.621   6.860  17.131  0.00  0.00    +0.000 C 
ENDROOT
BRANCH   3   8
ATOM      8  C   UNL     1       4.637   3.364  18.933  0.00  0.00    +0.000 C 
ATOM      9  O   UNL     1       5.200   2.804  19.876  0.00  0.00    +0.000 OA
ATOM     10  N   UNL     1       3.426   2.899  18.447  0.00  0.00    +0.000 N 
ATOM     11  C   UNL     1       2.550   3.525  17.449  0.00  0.00    +0.000 C 
ATOM     12  C   UNL     1       1.119   3.668  17.986  0.00  0.00    +0.000 C 
ATOM     13  O   UNL     1       0.608   2.424  18.483  0.00  0.00    +0.000 OA
ATOM     14  C   UNL     1       1.451   1.916  19.530  0.00  0.00    +0.000 C 
ATOM     15  C   UNL     1       2.867   1.664  19.005  0.00  0.00    +0.000 C 
ENDBRANCH   3   8
BRANCH   1  16
ATOM     16  O   UNL     1       4.264   7.513  17.129  0.00  0.00    +0.000 OA
BRANCH  16  18
ATOM     17  C   UNL     1       2.254   8.723  17.697  0.00  0.00    +0.000 C 
ATOM     18  C   UNL     1       2.990   7.400  17.775  0.00  0.00    +0.000 C 
ENDBRANCH  16  18
ENDBRANCH   1  16
BRANCH   7  19
ATOM     19  C   UNL     1       7.823   7.414  17.948  0.00  0.00    +0.000 C 
BRANCH  19  20
ATOM     20  C   UNL     1       8.018   8.932  17.765  0.00  0.00    +0.000 C 
BRANCH  20  21
ATOM     21  C   UNL     1       8.937   9.541  18.817  0.00  0.00    +0.000 C 
BRANCH  21  22
ATOM     22  O   UNL     1       9.278  10.876  18.475  0.00  0.00    +0.000 OA
ATOM     23  H   UNL     1       8.801  11.465  19.086  0.00  0.00    +0.000 HD
ENDBRANCH  21  22
ENDBRANCH  20  21
ENDBRANCH  19  20
ENDBRANCH   7  19
TORSDOF 7
ENDMDL
MODEL 4
REMARK VINA RESULT:      -6.5      2.965      5.596
REMARK  Name = 
REMARK  9 active torsions:
REMARK  status: ('A' for Active; 'I' for Inactive)
REMARK    1  A    between atoms: C_1  and  C_2
REMARK    2  A    between atoms: C_2  and  O_3
REMARK    3  A    between atoms: O_3  and  C_4
REMARK    4  A    between atoms: C_6  and  C_7
REMARK    5  A    between atoms: C_16  and  C_17
REMARK    6  A    between atoms: C_18  and  C_19
REMARK    7  A    between atoms: C_19  and  C_20
REMARK    8  A    between atoms: C_20  and  C_21
REMARK    9  A    between atoms: C_21  and  O_22
REMARK                            x       y       z     vdW  Elec       q    Type
REMARK                         _______ _______ _______ _____ _____    ______ ____
ROOT
ATOM      1  C   UNL     1       2.450   4.932  19.282  0.00  0.00    +0.000 C 
ATOM      2  O   UNL     1       1.877   6.227  19.149  0.00  0.00    +0.000 OA
ATOM      3  C   UNL     1       2.473   7.181  18.397  0.00  0.00    +0.000 C 
ATOM      4  C   UNL     1       3.566   6.968  17.653  0.00  0.00    +0.000 C 
ATOM      5  C   UNL     1       4.268   5.656  17.573  0.00  0.00    +0.000 C 
ATOM      6  C   UNL     1       5.672   5.798  18.159  0.00  0.00    +0.000 C 
ATOM      7  C   UNL     1       3.500   4.486  18.227  0.00  0.00    +0.000 C 
ENDROOT
BRANCH   3   8
ATOM      8  C   UNL     1       1.934   8.599  18.422  0.00  0.00    +0.000 C 
ATOM      9  O   UNL     1       1.918   9.256  17.377  0.00  0.00    +0.000 OA
ATOM     10  N   UNL     1       1.465   9.136  19.609  0.00  0.00    +0.000 N 
ATOM     11  C   UNL     1       1.267   8.456  20.895  0.00  0.00    +0.000 C 
ATOM     12  C   UNL     1      -0.160   8.672  21.417  0.00  0.00    +0.000 C 
ATOM     13  O   UNL     1      -0.511  10.061  21.454  0.00  0.00    +0.000 OA
ATOM     14  C   UNL     1      -0.400  10.644  20.146  0.00  0.00    +0.000 C 
ATOM     15  C   UNL     1       1.038  10.538  19.632  0.00  0.00    +0.000 C 
ENDBRANCH   3   8
BRANCH   1  16
ATOM     16  O   UNL     1       2.996   4.764  20.605  0.00  0.00    +0.000 OA
BRANCH  16  18
ATOM     17  C   UNL     1       1.061   3.321  20.589  0.00  0.00    +0.000 C 
ATOM     18  C   UNL     1       2.094   4.029  21.442  0.00  0.00    +0.000 C 
ENDBRANCH  16  18
ENDBRANCH   1  16
BRANCH   7  19
ATOM     19  C   UNL     1       2.827   3.588  17.149  0.00  0.00    +0.000 C 
BRANCH  19  20
ATOM     20  C   UNL     1       2.808   2.099  17.544  0.00  0.00    +0.000 C 
BRANCH  20  21
ATOM     21  C   UNL     1       3.738   1.785  18.710  0.00  0.00    +0.000 C 
BRANCH  21  22
ATOM     22  O   UNL     1       4.400   0.545  18.507  0.00  0.00    +0.000 OA
ATOM     23  H   UNL     1       5.188   0.721  17.964  0.00  0.00    +0.000 HD
ENDBRANCH  21  22
ENDBRANCH  20  21
ENDBRANCH  19  20
ENDBRANCH   7  19
TORSDOF 7
ENDMDL
MODEL 5
REMARK VINA RESULT:      -6.5      2.361      4.036
REMARK  Name = 
REMARK  9 active torsions:
REMARK  status: ('A' for Active; 'I' for Inactive)
REMARK    1  A    between atoms: C_1  and  C_2
REMARK    2  A    between atoms: C_2  and  O_3
REMARK    3  A    between atoms: O_3  and  C_4
REMARK    4  A    between atoms: C_6  and  C_7
REMARK    5  A    between atoms: C_16  and  C_17
REMARK    6  A    between atoms: C_18  and  C_19
REMARK    7  A    between atoms: C_19  and  C_20
REMARK    8  A    between atoms: C_20  and  C_21
REMARK    9  A    between atoms: C_21  and  O_22
REMARK                            x       y       z     vdW  Elec       q    Type
REMARK                         _______ _______ _______ _____ _____    ______ ____
ROOT
ATOM      1  C   UNL     1       6.846   4.175  16.793  0.00  0.00    +0.000 C 
ATOM      2  O   UNL     1       6.003   4.007  17.925  0.00  0.00    +0.000 OA
ATOM      3  C   UNL     1       4.811   4.641  18.009  0.00  0.00    +0.000 C 
ATOM      4  C   UNL     1       4.289   5.379  17.020  0.00  0.00    +0.000 C 
ATOM      5  C   UNL     1       4.965   5.603  15.712  0.00  0.00    +0.000 C 
ATOM      6  C   UNL     1       5.297   7.087  15.563  0.00  0.00    +0.000 C 
ATOM      7  C   UNL     1       6.212   4.720  15.484  0.00  0.00    +0.000 C 
ENDROOT
BRANCH   3   8
ATOM      8  C   UNL     1       4.021   4.584  19.303  0.00  0.00    +0.000 C 
ATOM      9  O   UNL     1       4.153   5.490  20.130  0.00  0.00    +0.000 OA
ATOM     10  N   UNL     1       3.161   3.524  19.537  0.00  0.00    +0.000 N 
ATOM     11  C   UNL     1       2.767   2.455  18.612  0.00  0.00    +0.000 C 
ATOM     12  C   UNL     1       1.238   2.348  18.514  0.00  0.00    +0.000 C 
ATOM     13  O   UNL     1       0.628   2.228  19.805  0.00  0.00    +0.000 OA
ATOM     14  C   UNL     1       0.965   3.356  20.628  0.00  0.00    +0.000 C 
ATOM     15  C   UNL     1       2.480   3.438  20.833  0.00  0.00    +0.000 C 
ENDBRANCH   3   8
BRANCH   1  16
ATOM     16  O   UNL     1       7.993   4.976  17.141  0.00  0.00    +0.000 OA
BRANCH  16  18
ATOM     17  C   UNL     1       7.830   7.145  18.188  0.00  0.00    +0.000 C 
ATOM     18  C   UNL     1       7.790   5.644  18.393  0.00  0.00    +0.000 C 
ENDBRANCH  16  18
ENDBRANCH   1  16
BRANCH   7  19
ATOM     19  C   UNL     1       5.895   3.547  14.513  0.00  0.00    +0.000 C 
BRANCH  19  20
ATOM     20  C   UNL     1       6.387   3.812  13.078  0.00  0.00    +0.000 C 
BRANCH  20  21
ATOM     21  C   UNL     1       5.587   3.051  12.028  0.00  0.00    +0.000 C 
BRANCH  21  22
ATOM     22  O   UNL     1       6.182   1.791  11.757  0.00  0.00    +0.000 OA
ATOM     23  H   UNL     1       6.460   1.411  12.610  0.00  0.00    +0.000 HD
ENDBRANCH  21  22
ENDBRANCH  20  21
ENDBRANCH  19  20
ENDBRANCH   7  19
TORSDOF 7
ENDMDL
MODEL 6
REMARK VINA RESULT:      -6.5      2.108      3.250
REMARK  Name = 
REMARK  9 active torsions:
REMARK  status: ('A' for Active; 'I' for Inactive)
REMARK    1  A    between atoms: C_1  and  C_2
REMARK    2  A    between atoms: C_2  and  O_3
REMARK    3  A    between atoms: O_3  and  C_4
REMARK    4  A    between atoms: C_6  and  C_7
REMARK    5  A    between atoms: C_16  and  C_17
REMARK    6  A    between atoms: C_18  and  C_19
REMARK    7  A    between atoms: C_19  and  C_20
REMARK    8  A    between atoms: C_20  and  C_21
REMARK    9  A    between atoms: C_21  and  O_22
REMARK                            x       y       z     vdW  Elec       q    Type
REMARK                         _______ _______ _______ _____ _____    ______ ____
ROOT
ATOM      1  C   UNL     1       6.054   6.007  15.879  0.00  0.00    +0.000 C 
ATOM      2  O   UNL     1       4.872   5.321  16.270  0.00  0.00    +0.000 OA
ATOM      3  C   UNL     1       4.822   4.616  17.423  0.00  0.00    +0.000 C 
ATOM      4  C   UNL     1       5.815   4.587  18.321  0.00  0.00    +0.000 C 
ATOM      5  C   UNL     1       7.102   5.317  18.153  0.00  0.00    +0.000 C 
ATOM      6  C   UNL     1       8.245   4.308  18.047  0.00  0.00    +0.000 C 
ATOM      7  C   UNL     1       7.117   6.311  16.970  0.00  0.00    +0.000 C 
ENDROOT
BRANCH   3   8
ATOM      8  C   UNL     1       3.612   3.750  17.721  0.00  0.00    +0.000 C 
ATOM      9  O   UNL     1       3.603   2.576  17.342  0.00  0.00    +0.000 OA
ATOM     10  N   UNL     1       2.539   4.284  18.415  0.00  0.00    +0.000 N 
ATOM     11  C   UNL     1       2.444   5.595  19.069  0.00  0.00    +0.000 C 
ATOM     12  C   UNL     1       2.010   5.449  20.534  0.00  0.00    +0.000 C 
ATOM     13  O   UNL     1       0.816   4.668  20.663  0.00  0.00    +0.000 OA
ATOM     14  C   UNL     1       1.005   3.360  20.100  0.00  0.00    +0.000 C 
ATOM     15  C   UNL     1       1.342   3.460  18.609  0.00  0.00    +0.000 C 
ENDBRANCH   3   8
BRANCH   1  16
ATOM     16  O   UNL     1       6.681   5.329  14.773  0.00  0.00    +0.000 OA
BRANCH  16  18
ATOM     17  C   UNL     1       6.078   3.705  13.091  0.00  0.00    +0.000 C 
ATOM     18  C   UNL     1       6.102   4.034  14.571  0.00  0.00    +0.000 C 
ENDBRANCH  16  18
ENDBRANCH   1  16
BRANCH   7  19
ATOM     19  C   UNL     1       6.967   7.776  17.471  0.00  0.00    +0.000 C 
BRANCH  19  20
ATOM     20  C   UNL     1       8.241   8.303  18.158  0.00  0.00    +0.000 C 
BRANCH  20  21
ATOM     21  C   UNL     1       8.357   9.822  18.103  0.00  0.00    +0.000 C 
BRANCH  21  22
ATOM     22  O   UNL     1       9.190  10.300  19.149  0.00  0.00    +0.000 OA
ATOM     23  H   UNL     1       9.026   9.744  19.930  0.00  0.00    +0.000 HD
ENDBRANCH  21  22
ENDBRANCH  20  21
ENDBRANCH  19  20
ENDBRANCH   7  19
TORSDOF 7
ENDMDL
MODEL 7
REMARK VINA RESULT:      -6.5      1.938      3.317
REMARK  Name = 
REMARK  9 active torsions:
REMARK  status: ('A' for Active; 'I' for Inactive)
REMARK    1  A    between atoms: C_1  and  C_2
REMARK    2  A    between atoms: C_2  and  O_3
REMARK    3  A    between atoms: O_3  and  C_4
REMARK    4  A    between atoms: C_6  and  C_7
REMARK    5  A    between atoms: C_16  and  C_17
REMARK    6  A    between atoms: C_18  and  C_19
REMARK    7  A    between atoms: C_19  and  C_20
REMARK    8  A    between atoms: C_20  and  C_21
REMARK    9  A    between atoms: C_21  and  O_22
REMARK                            x       y       z     vdW  Elec       q    Type
REMARK                         _______ _______ _______ _____ _____    ______ ____
ROOT
ATOM      1  C   UNL     1       7.372   5.216  17.749  0.00  0.00    +0.000 C 
ATOM      2  O   UNL     1       6.664   4.307  18.583  0.00  0.00    +0.000 OA
ATOM      3  C   UNL     1       5.351   4.051  18.381  0.00  0.00    +0.000 C 
ATOM      4  C   UNL     1       4.648   4.537  17.350  0.00  0.00    +0.000 C 
ATOM      5  C   UNL     1       5.223   5.430  16.306  0.00  0.00    +0.000 C 
ATOM      6  C   UNL     1       4.541   6.795  16.377  0.00  0.00    +0.000 C 
ATOM      7  C   UNL     1       6.761   5.564  16.364  0.00  0.00    +0.000 C 
ENDROOT
BRANCH   3   8
ATOM      8  C   UNL     1       4.585   3.220  19.394  0.00  0.00    +0.000 C 
ATOM      9  O   UNL     1       5.189   2.377  20.062  0.00  0.00    +0.000 OA
ATOM     10  N   UNL     1       3.224   3.420  19.559  0.00  0.00    +0.000 N 
ATOM     11  C   UNL     1       2.385   4.471  18.971  0.00  0.00    +0.000 C 
ATOM     12  C   UNL     1       1.594   5.214  20.057  0.00  0.00    +0.000 C 
ATOM     13  O   UNL     1       0.862   4.313  20.896  0.00  0.00    +0.000 OA
ATOM     14  C   UNL     1       1.751   3.376  21.526  0.00  0.00    +0.000 C 
ATOM     15  C   UNL     1       2.487   2.543  20.473  0.00  0.00    +0.000 C 
ENDBRANCH   3   8
BRANCH   1  16
ATOM     16  O   UNL     1       7.657   6.432  18.468  0.00  0.00    +0.000 OA
BRANCH  16  18
ATOM     17  C   UNL     1       8.376   8.726  18.247  0.00  0.00    +0.000 C 
ATOM     18  C   UNL     1       7.674   7.559  17.582  0.00  0.00    +0.000 C 
ENDBRANCH  16  18
ENDBRANCH   1  16
BRANCH   7  19
ATOM     19  C   UNL     1       7.438   4.713  15.252  0.00  0.00    +0.000 C 
BRANCH  19  20
ATOM     20  C   UNL     1       6.667   4.755  13.919  0.00  0.00    +0.000 C 
BRANCH  20  21
ATOM     21  C   UNL     1       7.587   4.822  12.705  0.00  0.00    +0.000 C 
BRANCH  21  22
ATOM     22  O   UNL     1       8.341   6.026  12.712  0.00  0.00    +0.000 OA
ATOM     23  H   UNL     1       7.837   6.688  12.206  0.00  0.00    +0.000 HD
ENDBRANCH  21  22
ENDBRANCH  20  21
ENDBRANCH  19  20
ENDBRANCH   7  19
TORSDOF 7
ENDMDL
MODEL 8
REMARK VINA RESULT:      -6.4      1.442      1.553
REMARK  Name = 
REMARK  9 active torsions:
REMARK  status: ('A' for Active; 'I' for Inactive)
REMARK    1  A    between atoms: C_1  and  C_2
REMARK    2  A    between atoms: C_2  and  O_3
REMARK    3  A    between atoms: O_3  and  C_4
REMARK    4  A    between atoms: C_6  and  C_7
REMARK    5  A    between atoms: C_16  and  C_17
REMARK    6  A    between atoms: C_18  and  C_19
REMARK    7  A    between atoms: C_19  and  C_20
REMARK    8  A    between atoms: C_20  and  C_21
REMARK    9  A    between atoms: C_21  and  O_22
REMARK                            x       y       z     vdW  Elec       q    Type
REMARK                         _______ _______ _______ _____ _____    ______ ____
ROOT
ATOM      1  C   UNL     1       5.168   6.889  17.978  0.00  0.00    +0.000 C 
ATOM      2  O   UNL     1       4.763   5.803  18.803  0.00  0.00    +0.000 OA
ATOM      3  C   UNL     1       5.089   4.528  18.490  0.00  0.00    +0.000 C 
ATOM      4  C   UNL     1       5.882   4.193  17.465  0.00  0.00    +0.000 C 
ATOM      5  C   UNL     1       6.493   5.183  16.535  0.00  0.00    +0.000 C 
ATOM      6  C   UNL     1       5.934   4.967  15.129  0.00  0.00    +0.000 C 
ATOM      7  C   UNL     1       6.339   6.653  16.984  0.00  0.00    +0.000 C 
ENDROOT
BRANCH   3   8
ATOM      8  C   UNL     1       4.490   3.385  19.288  0.00  0.00    +0.000 C 
ATOM      9  O   UNL     1       5.242   2.577  19.841  0.00  0.00    +0.000 OA
ATOM     10  N   UNL     1       3.114   3.264  19.390  0.00  0.00    +0.000 N 
ATOM     11  C   UNL     1       2.086   4.207  18.936  0.00  0.00    +0.000 C 
ATOM     12  C   UNL     1       1.119   4.558  20.076  0.00  0.00    +0.000 C 
ATOM     13  O   UNL     1       0.574   3.385  20.694  0.00  0.00    +0.000 OA
ATOM     14  C   UNL     1       1.625   2.554  21.212  0.00  0.00    +0.000 C 
ATOM     15  C   UNL     1       2.556   2.100  20.085  0.00  0.00    +0.000 C 
ENDBRANCH   3   8
BRANCH   1  16
ATOM     16  O   UNL     1       4.035   7.424  17.267  0.00  0.00    +0.000 OA
BRANCH  16  18
ATOM     17  C   UNL     1       2.145   8.846  17.753  0.00  0.00    +0.000 C 
ATOM     18  C   UNL     1       2.916   7.601  18.146  0.00  0.00    +0.000 C 
ENDBRANCH  16  18
ENDBRANCH   1  16
BRANCH   7  19
ATOM     19  C   UNL     1       7.667   7.196  17.584  0.00  0.00    +0.000 C 
BRANCH  19  20
ATOM     20  C   UNL     1       7.747   8.735  17.555  0.00  0.00    +0.000 C 
BRANCH  20  21
ATOM     21  C   UNL     1       8.704   9.296  18.600  0.00  0.00    +0.000 C 
BRANCH  21  22
ATOM     22  O   UNL     1       8.998  10.660  18.333  0.00  0.00    +0.000 OA
ATOM     23  H   UNL     1       8.938  11.141  19.176  0.00  0.00    +0.000 HD
ENDBRANCH  21  22
ENDBRANCH  20  21
ENDBRANCH  19  20
ENDBRANCH   7  19
TORSDOF 7
ENDMDL
MODEL 9
REMARK VINA RESULT:      -6.4      2.754      5.046
REMARK  Name = 
REMARK  9 active torsions:
REMARK  status: ('A' for Active; 'I' for Inactive)
REMARK    1  A    between atoms: C_1  and  C_2
REMARK    2  A    between atoms: C_2  and  O_3
REMARK    3  A    between atoms: O_3  and  C_4
REMARK    4  A    between atoms: C_6  and  C_7
REMARK    5  A    between atoms: C_16  and  C_17
REMARK    6  A    between atoms: C_18  and  C_19
REMARK    7  A    between atoms: C_19  and  C_20
REMARK    8  A    between atoms: C_20  and  C_21
REMARK    9  A    between atoms: C_21  and  O_22
REMARK                            x       y       z     vdW  Elec       q    Type
REMARK                         _______ _______ _______ _____ _____    ______ ____
ROOT
ATOM      1  C   UNL     1       2.802   4.545  18.116  0.00  0.00    +0.000 C 
ATOM      2  O   UNL     1       2.162   5.814  18.071  0.00  0.00    +0.000 OA
ATOM      3  C   UNL     1       2.882   6.959  18.059  0.00  0.00    +0.000 C 
ATOM      4  C   UNL     1       4.219   6.997  17.986  0.00  0.00    +0.000 C 
ATOM      5  C   UNL     1       5.078   5.782  17.924  0.00  0.00    +0.000 C 
ATOM      6  C   UNL     1       5.948   5.713  19.178  0.00  0.00    +0.000 C 
ATOM      7  C   UNL     1       4.298   4.466  17.706  0.00  0.00    +0.000 C 
ENDROOT
BRANCH   3   8
ATOM      8  C   UNL     1       2.172   8.293  18.194  0.00  0.00    +0.000 C 
ATOM      9  O   UNL     1       2.013   8.996  17.192  0.00  0.00    +0.000 OA
ATOM     10  N   UNL     1       1.707   8.702  19.433  0.00  0.00    +0.000 N 
ATOM     11  C   UNL     1       1.669   7.936  20.684  0.00  0.00    +0.000 C 
ATOM     12  C   UNL     1       0.258   7.938  21.288  0.00  0.00    +0.000 C 
ATOM     13  O   UNL     1      -0.263   9.266  21.425  0.00  0.00    +0.000 OA
ATOM     14  C   UNL     1      -0.300   9.927  20.150  0.00  0.00    +0.000 C 
ATOM     15  C   UNL     1       1.108  10.034  19.559  0.00  0.00    +0.000 C 
ENDBRANCH   3   8
BRANCH   1  16
ATOM     16  O   UNL     1       2.627   3.945  19.414  0.00  0.00    +0.000 OA
BRANCH  16  18
ATOM     17  C   UNL     1       0.803   2.523  18.721  0.00  0.00    +0.000 C 
ATOM     18  C   UNL     1       1.249   3.632  19.653  0.00  0.00    +0.000 C 
ENDBRANCH  16  18
ENDBRANCH   1  16
BRANCH   7  19
ATOM     19  C   UNL     1       4.425   3.979  16.234  0.00  0.00    +0.000 C 
BRANCH  19  20
ATOM     20  C   UNL     1       5.886   3.732  15.813  0.00  0.00    +0.000 C 
BRANCH  20  21
ATOM     21  C   UNL     1       6.327   4.622  14.657  0.00  0.00    +0.000 C 
BRANCH  21  22
ATOM     22  O   UNL     1       7.426   5.436  15.040  0.00  0.00    +0.000 OA
ATOM     23  H   UNL     1       7.154   6.364  14.931  0.00  0.00    +0.000 HD
ENDBRANCH  21  22
ENDBRANCH  20  21
ENDBRANCH  19  20
ENDBRANCH   7  19
TORSDOF 7
ENDMDL
