MODEL 1
REMARK VINA RESULT:      -8.3      0.000      0.000
REMARK  Name = 
REMARK  3 active torsions:
REMARK  status: ('A' for Active; 'I' for Inactive)
REMARK    1  A    between atoms: C_2  and  C_4
REMARK    2  A    between atoms: C_5  and  C_6
REMARK    3  A    between atoms: C_23  and  O_24
REMARK                            x       y       z     vdW  Elec       q    Type
REMARK                         _______ _______ _______ _____ _____    ______ ____
ROOT
ATOM      1  C   UNL     1       2.533   6.417  18.810  0.00  0.00    +0.000 A 
ATOM      2  C   UNL     1       1.891   6.986  19.963  0.00  0.00    +0.000 A 
ATOM      3  N   UNL     1       1.486   6.011  20.787  0.00  0.00    +0.000 NA
ATOM      4  N   UNL     1       1.788   4.872  20.151  0.00  0.00    +0.000 N 
ATOM      5  C   UNL     1       2.188   5.062  18.846  0.00  0.00    +0.000 A 
ATOM      6  N   UNL     1       2.203   4.087  17.877  0.00  0.00    +0.000 N 
ATOM      7  C   UNL     1       2.294   2.627  18.041  0.00  0.00    +0.000 C 
ATOM      8  C   UNL     1       1.520   1.973  19.173  0.00  0.00    +0.000 C 
ATOM      9  C   UNL     1       2.306   2.405  20.404  0.00  0.00    +0.000 C 
ATOM     10  C   UNL     1       3.779   2.531  19.914  0.00  0.00    +0.000 C 
ATOM     11  C   UNL     1       3.729   2.235  18.406  0.00  0.00    +0.000 C 
ATOM     12  C   UNL     1       1.617   3.666  20.919  0.00  0.00    +0.000 C 
ATOM     13  H   UNL     1       2.642   4.354  16.995  0.00  0.00    +0.000 HD
ENDROOT
BRANCH   2  14
ATOM     14  C   UNL     1       1.523   8.377  20.290  0.00  0.00    +0.000 A 
ATOM     15  C   UNL     1       1.327   8.745  21.628  0.00  0.00    +0.000 A 
ATOM     16  C   UNL     1       0.778   9.981  21.981  0.00  0.00    +0.000 A 
ATOM     17  C   UNL     1       0.166  10.712  20.957  0.00  0.00    +0.000 A 
ATOM     18  S   UNL     1      -0.943  12.024  21.078  0.00  0.00    +0.000 S 
ATOM     19  C   UNL     1      -1.060  12.065  19.371  0.00  0.00    +0.000 A 
ATOM     20  N   UNL     1      -0.297  11.224  18.710  0.00  0.00    +0.000 NA
ATOM     21  C   UNL     1       0.366  10.400  19.611  0.00  0.00    +0.000 A 
ATOM     22  C   UNL     1       1.162   9.281  19.279  0.00  0.00    +0.000 A 
ENDBRANCH   2  14
BRANCH   1  24
ATOM     23  N   UNL     1       4.643   6.781  17.709  0.00  0.00    +0.000 N 
ATOM     24  C   UNL     1       3.349   7.161  17.859  0.00  0.00    +0.000 C 
ATOM     25  O   UNL     1       2.904   8.094  17.190  0.00  0.00    +0.000 OA
ATOM     26  H   UNL     1       5.120   7.252  16.947  0.00  0.00    +0.000 HD
ATOM     27  H   UNL     1       4.855   5.801  17.834  0.00  0.00    +0.000 HD
ENDBRANCH   1  24
BRANCH  11  28
ATOM     28  O   UNL     1       3.951   0.836  18.197  0.00  0.00    +0.000 OA
ATOM     29  H   UNL     1       4.906   0.659  18.231  0.00  0.00    +0.000 HD
ENDBRANCH  11  28
TORSDOF 3
ENDMDL
MODEL 2
REMARK VINA RESULT:      -7.5      2.144      3.251
REMARK  Name = 
REMARK  3 active torsions:
REMARK  status: ('A' for Active; 'I' for Inactive)
REMARK    1  A    between atoms: C_2  and  C_4
REMARK    2  A    between atoms: C_5  and  C_6
REMARK    3  A    between atoms: C_23  and  O_24
REMARK                            x       y       z     vdW  Elec       q    Type
REMARK                         _______ _______ _______ _____ _____    ______ ____
ROOT
ATOM      1  C   UNL     1       2.380   7.295  19.453  0.00  0.00    +0.000 A 
ATOM      2  C   UNL     1       2.233   8.181  18.330  0.00  0.00    +0.000 A 
ATOM      3  N   UNL     1       2.936   7.717  17.289  0.00  0.00    +0.000 NA
ATOM      4  N   UNL     1       3.562   6.627  17.750  0.00  0.00    +0.000 N 
ATOM      5  C   UNL     1       3.462   6.475  19.116  0.00  0.00    +0.000 A 
ATOM      6  N   UNL     1       4.284   5.683  19.883  0.00  0.00    +0.000 N 
ATOM      7  C   UNL     1       5.073   4.509  19.475  0.00  0.00    +0.000 C 
ATOM      8  C   UNL     1       5.780   4.539  18.131  0.00  0.00    +0.000 C 
ATOM      9  C   UNL     1       4.626   4.409  17.146  0.00  0.00    +0.000 C 
ATOM     10  C   UNL     1       3.561   3.549  17.889  0.00  0.00    +0.000 C 
ATOM     11  C   UNL     1       4.147   3.303  19.289  0.00  0.00    +0.000 C 
ATOM     12  C   UNL     1       4.244   5.835  16.759  0.00  0.00    +0.000 C 
ATOM     13  H   UNL     1       4.005   5.579  20.858  0.00  0.00    +0.000 HD
ENDROOT
BRANCH   2  14
ATOM     14  C   UNL     1       1.576   9.495  18.203  0.00  0.00    +0.000 A 
ATOM     15  C   UNL     1       2.338  10.665  18.325  0.00  0.00    +0.000 A 
ATOM     16  C   UNL     1       1.744  11.927  18.421  0.00  0.00    +0.000 A 
ATOM     17  C   UNL     1       0.370  11.956  18.685  0.00  0.00    +0.000 A 
ATOM     18  S   UNL     1      -0.592  13.259  19.267  0.00  0.00    +0.000 S 
ATOM     19  C   UNL     1      -1.959  12.229  19.274  0.00  0.00    +0.000 A 
ATOM     20  N   UNL     1      -1.776  11.009  18.823  0.00  0.00    +0.000 NA
ATOM     21  C   UNL     1      -0.430  10.821  18.538  0.00  0.00    +0.000 A 
ATOM     22  C   UNL     1       0.176   9.600  18.171  0.00  0.00    +0.000 A 
ENDBRANCH   2  14
BRANCH   1  24
ATOM     23  N   UNL     1       1.601   8.411  21.439  0.00  0.00    +0.000 N 
ATOM     24  C   UNL     1       1.541   7.313  20.644  0.00  0.00    +0.000 C 
ATOM     25  O   UNL     1       0.782   6.388  20.935  0.00  0.00    +0.000 OA
ATOM     26  H   UNL     1       0.906   8.417  22.178  0.00  0.00    +0.000 HD
ATOM     27  H   UNL     1       1.788   9.297  20.992  0.00  0.00    +0.000 HD
ENDBRANCH   1  24
BRANCH  11  28
ATOM     28  O   UNL     1       4.890   2.079  19.276  0.00  0.00    +0.000 OA
ATOM     29  H   UNL     1       5.824   2.278  19.092  0.00  0.00    +0.000 HD
ENDBRANCH  11  28
TORSDOF 3
ENDMDL
MODEL 3
REMARK VINA RESULT:      -7.4      3.839      8.880
REMARK  Name = 
REMARK  3 active torsions:
REMARK  status: ('A' for Active; 'I' for Inactive)
REMARK    1  A    between atoms: C_2  and  C_4
REMARK    2  A    between atoms: C_5  and  C_6
REMARK    3  A    between atoms: C_23  and  O_24
REMARK                            x       y       z     vdW  Elec       q    Type
REMARK                         _______ _______ _______ _____ _____    ______ ____
ROOT
ATOM      1  C   UNL     1      -1.325  11.410  19.444  0.00  0.00    +0.000 A 
ATOM      2  C   UNL     1      -0.298  10.723  20.178  0.00  0.00    +0.000 A 
ATOM      3  N   UNL     1      -0.325  11.101  21.463  0.00  0.00    +0.000 NA
ATOM      4  N   UNL     1      -1.276  12.042  21.527  0.00  0.00    +0.000 N 
ATOM      5  C   UNL     1      -1.731  12.446  20.291  0.00  0.00    +0.000 A 
ATOM      6  N   UNL     1      -2.412  13.616  20.047  0.00  0.00    +0.000 N 
ATOM      7  C   UNL     1      -3.216  14.424  20.977  0.00  0.00    +0.000 C 
ATOM      8  C   UNL     1      -2.716  14.609  22.400  0.00  0.00    +0.000 C 
ATOM      9  C   UNL     1      -2.945  13.234  23.013  0.00  0.00    +0.000 C 
ATOM     10  C   UNL     1      -4.197  12.672  22.277  0.00  0.00    +0.000 C 
ATOM     11  C   UNL     1      -4.562  13.737  21.230  0.00  0.00    +0.000 C 
ATOM     12  C   UNL     1      -1.628  12.480  22.853  0.00  0.00    +0.000 C 
ATOM     13  H   UNL     1      -2.790  13.713  19.104  0.00  0.00    +0.000 HD
ENDROOT
BRANCH   2  14
ATOM     14  C   UNL     1       0.786   9.826  19.735  0.00  0.00    +0.000 A 
ATOM     15  C   UNL     1       1.276   9.926  18.425  0.00  0.00    +0.000 A 
ATOM     16  C   UNL     1       2.147   8.974  17.888  0.00  0.00    +0.000 A 
ATOM     17  C   UNL     1       2.280   7.774  18.596  0.00  0.00    +0.000 A 
ATOM     18  S   UNL     1       2.904   6.262  18.056  0.00  0.00    +0.000 S 
ATOM     19  C   UNL     1       2.544   5.583  19.584  0.00  0.00    +0.000 A 
ATOM     20  N   UNL     1       2.052   6.399  20.489  0.00  0.00    +0.000 NA
ATOM     21  C   UNL     1       1.839   7.646  19.914  0.00  0.00    +0.000 A 
ATOM     22  C   UNL     1       1.190   8.740  20.527  0.00  0.00    +0.000 A 
ENDBRANCH   2  14
BRANCH   1  24
ATOM     23  N   UNL     1      -1.605  11.945  17.113  0.00  0.00    +0.000 N 
ATOM     24  C   UNL     1      -1.784  11.043  18.111  0.00  0.00    +0.000 C 
ATOM     25  O   UNL     1      -2.303   9.954  17.865  0.00  0.00    +0.000 OA
ATOM     26  H   UNL     1      -1.829  11.582  16.192  0.00  0.00    +0.000 HD
ATOM     27  H   UNL     1      -0.797  12.548  17.174  0.00  0.00    +0.000 HD
ENDBRANCH   1  24
BRANCH  11  28
ATOM     28  O   UNL     1      -5.508  14.649  21.801  0.00  0.00    +0.000 OA
ATOM     29  H   UNL     1      -5.319  15.545  21.475  0.00  0.00    +0.000 HD
ENDBRANCH  11  28
TORSDOF 3
ENDMDL
MODEL 4
REMARK VINA RESULT:      -7.4      9.244     10.750
REMARK  Name = 
REMARK  3 active torsions:
REMARK  status: ('A' for Active; 'I' for Inactive)
REMARK    1  A    between atoms: C_2  and  C_4
REMARK    2  A    between atoms: C_5  and  C_6
REMARK    3  A    between atoms: C_23  and  O_24
REMARK                            x       y       z     vdW  Elec       q    Type
REMARK                         _______ _______ _______ _____ _____    ______ ____
ROOT
ATOM      1  C   UNL     1       8.189  13.785  20.911  0.00  0.00    +0.000 A 
ATOM      2  C   UNL     1       8.542  13.101  22.125  0.00  0.00    +0.000 A 
ATOM      3  N   UNL     1       9.628  12.343  21.921  0.00  0.00    +0.000 NA
ATOM      4  N   UNL     1       9.907  12.481  20.618  0.00  0.00    +0.000 N 
ATOM      5  C   UNL     1       8.922  13.136  19.913  0.00  0.00    +0.000 A 
ATOM      6  N   UNL     1       8.772  13.094  18.546  0.00  0.00    +0.000 N 
ATOM      7  C   UNL     1       9.786  12.814  17.517  0.00  0.00    +0.000 C 
ATOM      8  C   UNL     1      10.810  11.724  17.783  0.00  0.00    +0.000 C 
ATOM      9  C   UNL     1      11.705  12.361  18.838  0.00  0.00    +0.000 C 
ATOM     10  C   UNL     1      11.675  13.885  18.521  0.00  0.00    +0.000 C 
ATOM     11  C   UNL     1      10.697  14.033  17.343  0.00  0.00    +0.000 C 
ATOM     12  C   UNL     1      11.154  11.903  20.186  0.00  0.00    +0.000 C 
ATOM     13  H   UNL     1       8.071  13.730  18.164  0.00  0.00    +0.000 HD
ENDROOT
BRANCH   2  14
ATOM     14  C   UNL     1       7.862  13.013  23.430  0.00  0.00    +0.000 A 
ATOM     15  C   UNL     1       8.547  13.385  24.594  0.00  0.00    +0.000 A 
ATOM     16  C   UNL     1       8.032  13.129  25.869  0.00  0.00    +0.000 A 
ATOM     17  C   UNL     1       6.960  12.234  25.944  0.00  0.00    +0.000 A 
ATOM     18  S   UNL     1       6.358  11.379  27.312  0.00  0.00    +0.000 S 
ATOM     19  C   UNL     1       5.203  10.613  26.309  0.00  0.00    +0.000 A 
ATOM     20  N   UNL     1       5.184  10.982  25.048  0.00  0.00    +0.000 NA
ATOM     21  C   UNL     1       6.228  11.867  24.813  0.00  0.00    +0.000 A 
ATOM     22  C   UNL     1       6.620  12.369  23.553  0.00  0.00    +0.000 A 
ENDBRANCH   2  14
BRANCH   1  24
ATOM     23  N   UNL     1       7.432  15.932  21.696  0.00  0.00    +0.000 N 
ATOM     24  C   UNL     1       7.260  14.905  20.826  0.00  0.00    +0.000 C 
ATOM     25  O   UNL     1       6.353  14.953  19.995  0.00  0.00    +0.000 OA
ATOM     26  H   UNL     1       6.837  16.732  21.505  0.00  0.00    +0.000 HD
ATOM     27  H   UNL     1       8.377  16.136  21.992  0.00  0.00    +0.000 HD
ENDBRANCH   1  24
BRANCH  11  28
ATOM     28  O   UNL     1      11.431  13.958  16.115  0.00  0.00    +0.000 OA
ATOM     29  H   UNL     1      11.420  14.831  15.687  0.00  0.00    +0.000 HD
ENDBRANCH  11  28
TORSDOF 3
ENDMDL
MODEL 5
REMARK VINA RESULT:      -7.3      2.379      3.895
REMARK  Name = 
REMARK  3 active torsions:
REMARK  status: ('A' for Active; 'I' for Inactive)
REMARK    1  A    between atoms: C_2  and  C_4
REMARK    2  A    between atoms: C_5  and  C_6
REMARK    3  A    between atoms: C_23  and  O_24
REMARK                            x       y       z     vdW  Elec       q    Type
REMARK                         _______ _______ _______ _____ _____    ______ ____
ROOT
ATOM      1  C   UNL     1       2.817   6.150  19.066  0.00  0.00    +0.000 A 
ATOM      2  C   UNL     1       2.349   7.472  18.752  0.00  0.00    +0.000 A 
ATOM      3  N   UNL     1       3.083   7.992  17.759  0.00  0.00    +0.000 NA
ATOM      4  N   UNL     1       4.022   7.072  17.505  0.00  0.00    +0.000 N 
ATOM      5  C   UNL     1       4.062   6.057  18.436  0.00  0.00    +0.000 A 
ATOM      6  N   UNL     1       5.125   5.206  18.629  0.00  0.00    +0.000 N 
ATOM      7  C   UNL     1       6.186   4.828  17.681  0.00  0.00    +0.000 C 
ATOM      8  C   UNL     1       6.763   5.899  16.771  0.00  0.00    +0.000 C 
ATOM      9  C   UNL     1       5.629   6.141  15.782  0.00  0.00    +0.000 C 
ATOM     10  C   UNL     1       4.906   4.767  15.660  0.00  0.00    +0.000 C 
ATOM     11  C   UNL     1       5.631   3.840  16.650  0.00  0.00    +0.000 C 
ATOM     12  C   UNL     1       4.833   7.317  16.340  0.00  0.00    +0.000 C 
ATOM     13  H   UNL     1       4.954   4.431  19.269  0.00  0.00    +0.000 HD
ENDROOT
BRANCH   2  14
ATOM     14  C   UNL     1       1.339   8.330  19.399  0.00  0.00    +0.000 A 
ATOM     15  C   UNL     1       1.011   9.567  18.827  0.00  0.00    +0.000 A 
ATOM     16  C   UNL     1       0.224  10.506  19.499  0.00  0.00    +0.000 A 
ATOM     17  C   UNL     1       0.021  10.292  20.867  0.00  0.00    +0.000 A 
ATOM     18  S   UNL     1      -0.513  11.404  22.068  0.00  0.00    +0.000 S 
ATOM     19  C   UNL     1      -0.334  10.185  23.256  0.00  0.00    +0.000 A 
ATOM     20  N   UNL     1       0.033   8.999  22.829  0.00  0.00    +0.000 NA
ATOM     21  C   UNL     1       0.299   9.063  21.467  0.00  0.00    +0.000 A 
ATOM     22  C   UNL     1       0.855   8.029  20.682  0.00  0.00    +0.000 A 
ENDBRANCH   2  14
BRANCH   1  24
ATOM     23  N   UNL     1       2.449   5.045  21.174  0.00  0.00    +0.000 N 
ATOM     24  C   UNL     1       2.090   5.178  19.872  0.00  0.00    +0.000 C 
ATOM     25  O   UNL     1       1.166   4.500  19.421  0.00  0.00    +0.000 OA
ATOM     26  H   UNL     1       1.827   4.449  21.709  0.00  0.00    +0.000 HD
ATOM     27  H   UNL     1       2.797   5.869  21.644  0.00  0.00    +0.000 HD
ENDBRANCH   1  24
BRANCH  11  28
ATOM     28  O   UNL     1       6.688   3.160  15.965  0.00  0.00    +0.000 OA
ATOM     29  H   UNL     1       6.336   2.344  15.571  0.00  0.00    +0.000 HD
ENDBRANCH  11  28
TORSDOF 3
ENDMDL
MODEL 6
REMARK VINA RESULT:      -7.3      2.267      3.461
REMARK  Name = 
REMARK  3 active torsions:
REMARK  status: ('A' for Active; 'I' for Inactive)
REMARK    1  A    between atoms: C_2  and  C_4
REMARK    2  A    between atoms: C_5  and  C_6
REMARK    3  A    between atoms: C_23  and  O_24
REMARK                            x       y       z     vdW  Elec       q    Type
REMARK                         _______ _______ _______ _____ _____    ______ ____
ROOT
ATOM      1  C   UNL     1       1.540   8.138  20.009  0.00  0.00    +0.000 A 
ATOM      2  C   UNL     1       1.560   8.910  18.796  0.00  0.00    +0.000 A 
ATOM      3  N   UNL     1       1.997   8.152  17.781  0.00  0.00    +0.000 NA
ATOM      4  N   UNL     1       2.311   6.975  18.336  0.00  0.00    +0.000 N 
ATOM      5  C   UNL     1       2.295   6.998  19.714  0.00  0.00    +0.000 A 
ATOM      6  N   UNL     1       2.912   6.073  20.524  0.00  0.00    +0.000 N 
ATOM      7  C   UNL     1       3.277   4.680  20.219  0.00  0.00    +0.000 C 
ATOM      8  C   UNL     1       3.836   4.359  18.844  0.00  0.00    +0.000 C 
ATOM      9  C   UNL     1       2.610   4.490  17.949  0.00  0.00    +0.000 C 
ATOM     10  C   UNL     1       1.411   4.073  18.851  0.00  0.00    +0.000 C 
ATOM     11  C   UNL     1       2.022   3.801  20.235  0.00  0.00    +0.000 C 
ATOM     12  C   UNL     1       2.635   5.919  17.413  0.00  0.00    +0.000 C 
ATOM     13  H   UNL     1       2.705   6.157  21.519  0.00  0.00    +0.000 HD
ENDROOT
BRANCH   2  14
ATOM     14  C   UNL     1       1.314  10.342  18.546  0.00  0.00    +0.000 A 
ATOM     15  C   UNL     1       2.389  11.186  18.238  0.00  0.00    +0.000 A 
ATOM     16  C   UNL     1       2.248  12.577  18.198  0.00  0.00    +0.000 A 
ATOM     17  C   UNL     1       1.080  13.106  18.757  0.00  0.00    +0.000 A 
ATOM     18  S   UNL     1       0.755  14.723  19.254  0.00  0.00    +0.000 S 
ATOM     19  C   UNL     1      -0.792  14.231  19.794  0.00  0.00    +0.000 A 
ATOM     20  N   UNL     1      -1.116  12.975  19.583  0.00  0.00    +0.000 NA
ATOM     21  C   UNL     1      -0.026  12.305  19.043  0.00  0.00    +0.000 A 
ATOM     22  C   UNL     1       0.060  10.914  18.815  0.00  0.00    +0.000 A 
ENDBRANCH   2  14
BRANCH   1  24
ATOM     23  N   UNL     1       1.619   8.967  22.267  0.00  0.00    +0.000 N 
ATOM     24  C   UNL     1       0.856   8.529  21.234  0.00  0.00    +0.000 C 
ATOM     25  O   UNL     1      -0.369   8.491  21.351  0.00  0.00    +0.000 OA
ATOM     26  H   UNL     1       1.079   9.341  23.041  0.00  0.00    +0.000 HD
ATOM     27  H   UNL     1       2.473   9.456  22.038  0.00  0.00    +0.000 HD
ENDBRANCH   1  24
BRANCH  11  28
ATOM     28  O   UNL     1       2.365   2.414  20.330  0.00  0.00    +0.000 OA
ATOM     29  H   UNL     1       1.753   1.899  19.776  0.00  0.00    +0.000 HD
ENDBRANCH  11  28
TORSDOF 3
ENDMDL
MODEL 7
REMARK VINA RESULT:      -7.3      9.148     10.689
REMARK  Name = 
REMARK  3 active torsions:
REMARK  status: ('A' for Active; 'I' for Inactive)
REMARK    1  A    between atoms: C_2  and  C_4
REMARK    2  A    between atoms: C_5  and  C_6
REMARK    3  A    between atoms: C_23  and  O_24
REMARK                            x       y       z     vdW  Elec       q    Type
REMARK                         _______ _______ _______ _____ _____    ______ ____
ROOT
ATOM      1  C   UNL     1       8.965  13.725  21.899  0.00  0.00    +0.000 A 
ATOM      2  C   UNL     1       8.466  12.604  22.648  0.00  0.00    +0.000 A 
ATOM      3  N   UNL     1       8.680  11.470  21.969  0.00  0.00    +0.000 NA
ATOM      4  N   UNL     1       9.222  11.858  20.807  0.00  0.00    +0.000 N 
ATOM      5  C   UNL     1       9.179  13.221  20.611  0.00  0.00    +0.000 A 
ATOM      6  N   UNL     1       9.319  13.847  19.394  0.00  0.00    +0.000 N 
ATOM      7  C   UNL     1       9.992  13.358  18.180  0.00  0.00    +0.000 C 
ATOM      8  C   UNL     1       9.833  11.896  17.798  0.00  0.00    +0.000 C 
ATOM      9  C   UNL     1      10.679  11.186  18.847  0.00  0.00    +0.000 C 
ATOM     10  C   UNL     1      11.821  12.189  19.186  0.00  0.00    +0.000 C 
ATOM     11  C   UNL     1      11.511  13.448  18.359  0.00  0.00    +0.000 C 
ATOM     12  C   UNL     1       9.717  10.798  19.967  0.00  0.00    +0.000 C 
ATOM     13  H   UNL     1       9.388  14.864  19.431  0.00  0.00    +0.000 HD
ENDROOT
BRANCH   2  14
ATOM     14  C   UNL     1       7.695  12.534  23.903  0.00  0.00    +0.000 A 
ATOM     15  C   UNL     1       8.318  12.849  25.118  0.00  0.00    +0.000 A 
ATOM     16  C   UNL     1       7.704  12.602  26.349  0.00  0.00    +0.000 A 
ATOM     17  C   UNL     1       6.582  11.767  26.335  0.00  0.00    +0.000 A 
ATOM     18  S   UNL     1       5.842  10.926  27.643  0.00  0.00    +0.000 S 
ATOM     19  C   UNL     1       4.718  10.241  26.549  0.00  0.00    +0.000 A 
ATOM     20  N   UNL     1       4.806  10.630  25.297  0.00  0.00    +0.000 NA
ATOM     21  C   UNL     1       5.910  11.459  25.150  0.00  0.00    +0.000 A 
ATOM     22  C   UNL     1       6.415  11.959  23.929  0.00  0.00    +0.000 A 
ENDBRANCH   2  14
BRANCH   1  24
ATOM     23  N   UNL     1       8.110  15.904  22.461  0.00  0.00    +0.000 N 
ATOM     24  C   UNL     1       9.174  15.062  22.438  0.00  0.00    +0.000 C 
ATOM     25  O   UNL     1      10.260  15.436  22.881  0.00  0.00    +0.000 OA
ATOM     26  H   UNL     1       8.287  16.770  22.960  0.00  0.00    +0.000 HD
ATOM     27  H   UNL     1       7.196  15.493  22.585  0.00  0.00    +0.000 HD
ENDBRANCH   1  24
BRANCH  11  28
ATOM     28  O   UNL     1      12.185  13.357  17.099  0.00  0.00    +0.000 OA
ATOM     29  H   UNL     1      12.816  12.618  17.131  0.00  0.00    +0.000 HD
ENDBRANCH  11  28
TORSDOF 3
ENDMDL
MODEL 8
REMARK VINA RESULT:      -7.1      3.349      7.986
REMARK  Name = 
REMARK  3 active torsions:
REMARK  status: ('A' for Active; 'I' for Inactive)
REMARK    1  A    between atoms: C_2  and  C_4
REMARK    2  A    between atoms: C_5  and  C_6
REMARK    3  A    between atoms: C_23  and  O_24
REMARK                            x       y       z     vdW  Elec       q    Type
REMARK                         _______ _______ _______ _____ _____    ______ ____
ROOT
ATOM      1  C   UNL     1       0.593  10.067  19.811  0.00  0.00    +0.000 A 
ATOM      2  C   UNL     1       0.844   8.890  20.597  0.00  0.00    +0.000 A 
ATOM      3  N   UNL     1       0.360   9.057  21.835  0.00  0.00    +0.000 NA
ATOM      4  N   UNL     1      -0.109  10.310  21.858  0.00  0.00    +0.000 N 
ATOM      5  C   UNL     1       0.237  11.045  20.745  0.00  0.00    +0.000 A 
ATOM      6  N   UNL     1       0.210  12.419  20.669  0.00  0.00    +0.000 N 
ATOM      7  C   UNL     1      -0.588  13.369  21.460  0.00  0.00    +0.000 C 
ATOM      8  C   UNL     1      -0.775  13.104  22.944  0.00  0.00    +0.000 C 
ATOM      9  C   UNL     1      -1.733  11.919  22.950  0.00  0.00    +0.000 C 
ATOM     10  C   UNL     1      -2.608  12.105  21.676  0.00  0.00    +0.000 C 
ATOM     11  C   UNL     1      -2.042  13.352  20.976  0.00  0.00    +0.000 C 
ATOM     12  C   UNL     1      -0.855  10.674  23.036  0.00  0.00    +0.000 C 
ATOM     13  H   UNL     1       0.375  12.808  19.741  0.00  0.00    +0.000 HD
ENDROOT
BRANCH   2  14
ATOM     14  C   UNL     1       1.612   7.665  20.304  0.00  0.00    +0.000 A 
ATOM     15  C   UNL     1       2.411   7.607  19.154  0.00  0.00    +0.000 A 
ATOM     16  C   UNL     1       2.991   6.413  18.718  0.00  0.00    +0.000 A 
ATOM     17  C   UNL     1       2.512   5.233  19.297  0.00  0.00    +0.000 A 
ATOM     18  S   UNL     1       2.672   3.612  18.740  0.00  0.00    +0.000 S 
ATOM     19  C   UNL     1       1.731   3.078  20.066  0.00  0.00    +0.000 A 
ATOM     20  N   UNL     1       1.354   3.997  20.927  0.00  0.00    +0.000 NA
ATOM     21  C   UNL     1       1.745   5.247  20.464  0.00  0.00    +0.000 A 
ATOM     22  C   UNL     1       1.397   6.489  21.039  0.00  0.00    +0.000 A 
ENDBRANCH   2  14
BRANCH   1  24
ATOM     23  N   UNL     1       1.783  10.790  17.847  0.00  0.00    +0.000 N 
ATOM     24  C   UNL     1       0.708  10.141  18.361  0.00  0.00    +0.000 C 
ATOM     25  O   UNL     1      -0.116   9.628  17.604  0.00  0.00    +0.000 OA
ATOM     26  H   UNL     1       1.871  10.698  16.840  0.00  0.00    +0.000 HD
ATOM     27  H   UNL     1       2.642  10.755  18.378  0.00  0.00    +0.000 HD
ENDBRANCH   1  24
BRANCH  11  28
ATOM     28  O   UNL     1      -2.752  14.508  21.434  0.00  0.00    +0.000 OA
ATOM     29  H   UNL     1      -2.332  15.303  21.065  0.00  0.00    +0.000 HD
ENDBRANCH  11  28
TORSDOF 3
ENDMDL
MODEL 9
REMARK VINA RESULT:      -7.1      3.374      8.088
REMARK  Name = 
REMARK  3 active torsions:
REMARK  status: ('A' for Active; 'I' for Inactive)
REMARK    1  A    between atoms: C_2  and  C_4
REMARK    2  A    between atoms: C_5  and  C_6
REMARK    3  A    between atoms: C_23  and  O_24
REMARK                            x       y       z     vdW  Elec       q    Type
REMARK                         _______ _______ _______ _____ _____    ______ ____
ROOT
ATOM      1  C   UNL     1       0.618   9.414  20.421  0.00  0.00    +0.000 A 
ATOM      2  C   UNL     1       1.592   8.813  19.551  0.00  0.00    +0.000 A 
ATOM      3  N   UNL     1       2.012   9.711  18.650  0.00  0.00    +0.000 NA
ATOM      4  N   UNL     1       1.284  10.809  18.887  0.00  0.00    +0.000 N 
ATOM      5  C   UNL     1       0.252  10.600  19.776  0.00  0.00    +0.000 A 
ATOM      6  N   UNL     1      -0.842  11.421  19.919  0.00  0.00    +0.000 N 
ATOM      7  C   UNL     1      -0.970  12.850  19.592  0.00  0.00    +0.000 C 
ATOM      8  C   UNL     1      -0.317  13.367  18.321  0.00  0.00    +0.000 C 
ATOM      9  C   UNL     1       1.165  13.330  18.672  0.00  0.00    +0.000 C 
ATOM     10  C   UNL     1       1.219  13.593  20.206  0.00  0.00    +0.000 C 
ATOM     11  C   UNL     1      -0.249  13.690  20.651  0.00  0.00    +0.000 C 
ATOM     12  C   UNL     1       1.682  11.988  18.162  0.00  0.00    +0.000 C 
ATOM     13  H   UNL     1      -1.455  11.199  20.703  0.00  0.00    +0.000 HD
ENDROOT
BRANCH   2  14
ATOM     14  C   UNL     1       2.067   7.422  19.429  0.00  0.00    +0.000 A 
ATOM     15  C   UNL     1       2.541   6.958  18.195  0.00  0.00    +0.000 A 
ATOM     16  C   UNL     1       2.806   5.604  17.967  0.00  0.00    +0.000 A 
ATOM     17  C   UNL     1       2.308   4.700  18.912  0.00  0.00    +0.000 A 
ATOM     18  S   UNL     1       2.074   3.000  18.763  0.00  0.00    +0.000 S 
ATOM     19  C   UNL     1       1.417   2.966  20.343  0.00  0.00    +0.000 A 
ATOM     20  N   UNL     1       1.409   4.104  21.000  0.00  0.00    +0.000 NA
ATOM     21  C   UNL     1       1.861   5.118  20.166  0.00  0.00    +0.000 A 
ATOM     22  C   UNL     1       1.860   6.499  20.466  0.00  0.00    +0.000 A 
ENDBRANCH   2  14
BRANCH   1  24
ATOM     23  N   UNL     1       0.846   9.186  22.807  0.00  0.00    +0.000 N 
ATOM     24  C   UNL     1       0.165   8.845  21.683  0.00  0.00    +0.000 C 
ATOM     25  O   UNL     1      -0.807   8.093  21.761  0.00  0.00    +0.000 OA
ATOM     26  H   UNL     1       0.408   8.860  23.662  0.00  0.00    +0.000 HD
ATOM     27  H   UNL     1       1.259  10.107  22.836  0.00  0.00    +0.000 HD
ENDBRANCH   1  24
BRANCH  11  28
ATOM     28  O   UNL     1      -0.665  15.059  20.596  0.00  0.00    +0.000 OA
ATOM     29  H   UNL     1      -1.357  15.151  19.919  0.00  0.00    +0.000 HD
ENDBRANCH  11  28
TORSDOF 3
ENDMDL
