MODEL 1
REMARK VINA RESULT:      -8.2      0.000      0.000
REMARK  Name = 
REMARK  10 active torsions:
REMARK  status: ('A' for Active; 'I' for Inactive)
REMARK    1  A    between atoms: C_1  and  O_2
REMARK    2  A    between atoms: O_2  and  C_3
REMARK    3  A    between atoms: C_6  and  C_7
REMARK    4  A    between atoms: C_7  and  C_8
REMARK    5  A    between atoms: C_17  and  O_18
REMARK    6  A    between atoms: O_18  and  C_19
REMARK    7  A    between atoms: C_20  and  O_21
REMARK    8  A    between atoms: O_21  and  C_22
REMARK    9  A    between atoms: C_28  and  O_29
REMARK   10  A    between atoms: O_29  and  C_30
REMARK                            x       y       z     vdW  Elec       q    Type
REMARK                         _______ _______ _______ _____ _____    ______ ____
ROOT
ATOM      1  C   UNL     1       0.984   9.606  19.159  0.00  0.00    +0.000 C 
ATOM      2  O   UNL     1       1.004  10.349  20.139  0.00  0.00    +0.000 OA
ATOM      3  N   UNL     1       1.554   8.324  19.169  0.00  0.00    +0.000 N 
ATOM      4  C   UNL     1       2.248   7.997  17.946  0.00  0.00    +0.000 C 
ATOM      5  C   UNL     1       3.613   7.468  18.278  0.00  0.00    +0.000 C 
ATOM      6  C   UNL     1       3.257   6.093  18.752  0.00  0.00    +0.000 A 
ATOM      7  C   UNL     1       2.477   6.066  19.945  0.00  0.00    +0.000 A 
ATOM      8  C   UNL     1       1.903   4.834  20.279  0.00  0.00    +0.000 A 
ATOM      9  C   UNL     1       1.720   3.859  19.279  0.00  0.00    +0.000 A 
ATOM     10  C   UNL     1       2.446   3.896  18.104  0.00  0.00    +0.000 A 
ATOM     11  C   UNL     1       3.252   5.014  17.842  0.00  0.00    +0.000 A 
ATOM     12  C   UNL     1       0.982   2.675  19.829  0.00  0.00    +0.000 C 
ATOM     13  C   UNL     1       1.785   2.581  21.112  0.00  0.00    +0.000 C 
ATOM     14  C   UNL     1       1.879   4.067  21.601  0.00  0.00    +0.000 C 
ATOM     15  C   UNL     1       1.959   7.486  20.392  0.00  0.00    +0.000 C 
ENDROOT
BRANCH  10  16
ATOM     16  O   UNL     1       2.369   2.793  17.304  0.00  0.00    +0.000 OA
ATOM     17  C   UNL     1       3.325   1.787  17.635  0.00  0.00    +0.000 C 
ENDBRANCH  10  16
BRANCH  11  18
ATOM     18  O   UNL     1       3.770   5.092  16.574  0.00  0.00    +0.000 OA
ATOM     19  C   UNL     1       5.131   4.746  16.385  0.00  0.00    +0.000 C 
ENDBRANCH  11  18
BRANCH   1  20
ATOM     20  C   UNL     1       0.202   9.967  17.848  0.00  0.00    +0.000 C 
BRANCH  20  24
ATOM     21  C   UNL     1      -4.023  11.211  17.668  0.00  0.00    +0.000 A 
ATOM     22  C   UNL     1      -3.460  10.375  16.692  0.00  0.00    +0.000 A 
ATOM     23  C   UNL     1      -2.129   9.907  16.771  0.00  0.00    +0.000 A 
ATOM     24  C   UNL     1      -1.303  10.296  17.823  0.00  0.00    +0.000 A 
ATOM     25  C   UNL     1      -1.865  11.183  18.772  0.00  0.00    +0.000 A 
ATOM     26  C   UNL     1      -3.203  11.645  18.715  0.00  0.00    +0.000 A 
BRANCH  21  28
ATOM     27  C   UNL     1      -6.294  10.940  18.297  0.00  0.00    +0.000 C 
ATOM     28  O   UNL     1      -5.306  11.680  17.588  0.00  0.00    +0.000 OA
ENDBRANCH  21  28
BRANCH  26  29
ATOM     29  O   UNL     1      -3.501  12.530  19.720  0.00  0.00    +0.000 OA
ATOM     30  C   UNL     1      -2.460  13.199  20.418  0.00  0.00    +0.000 C 
ENDBRANCH  26  29
ENDBRANCH  20  24
ENDBRANCH   1  20
TORSDOF 6
ENDMDL
MODEL 2
REMARK VINA RESULT:      -8.1      0.761      1.779
REMARK  Name = 
REMARK  10 active torsions:
REMARK  status: ('A' for Active; 'I' for Inactive)
REMARK    1  A    between atoms: C_1  and  O_2
REMARK    2  A    between atoms: O_2  and  C_3
REMARK    3  A    between atoms: C_6  and  C_7
REMARK    4  A    between atoms: C_7  and  C_8
REMARK    5  A    between atoms: C_17  and  O_18
REMARK    6  A    between atoms: O_18  and  C_19
REMARK    7  A    between atoms: C_20  and  O_21
REMARK    8  A    between atoms: O_21  and  C_22
REMARK    9  A    between atoms: C_28  and  O_29
REMARK   10  A    between atoms: O_29  and  C_30
REMARK                            x       y       z     vdW  Elec       q    Type
REMARK                         _______ _______ _______ _____ _____    ______ ____
ROOT
ATOM      1  C   UNL     1       0.957   9.604  19.230  0.00  0.00    +0.000 C 
ATOM      2  O   UNL     1       0.948  10.319  20.231  0.00  0.00    +0.000 OA
ATOM      3  N   UNL     1       1.522   8.320  19.222  0.00  0.00    +0.000 N 
ATOM      4  C   UNL     1       2.254   8.025  18.011  0.00  0.00    +0.000 C 
ATOM      5  C   UNL     1       3.606   7.483  18.370  0.00  0.00    +0.000 C 
ATOM      6  C   UNL     1       3.233   6.096  18.794  0.00  0.00    +0.000 A 
ATOM      7  C   UNL     1       2.416   6.038  19.961  0.00  0.00    +0.000 A 
ATOM      8  C   UNL     1       1.829   4.799  20.242  0.00  0.00    +0.000 A 
ATOM      9  C   UNL     1       1.674   3.853  19.210  0.00  0.00    +0.000 A 
ATOM     10  C   UNL     1       2.436   3.921  18.059  0.00  0.00    +0.000 A 
ATOM     11  C   UNL     1       3.253   5.043  17.854  0.00  0.00    +0.000 A 
ATOM     12  C   UNL     1       0.917   2.657  19.703  0.00  0.00    +0.000 C 
ATOM     13  C   UNL     1       1.680   2.524  21.007  0.00  0.00    +0.000 C 
ATOM     14  C   UNL     1       1.762   3.995  21.541  0.00  0.00    +0.000 C 
ATOM     15  C   UNL     1       1.888   7.447  20.432  0.00  0.00    +0.000 C 
ENDROOT
BRANCH  10  16
ATOM     16  O   UNL     1       2.381   2.841  17.226  0.00  0.00    +0.000 OA
ATOM     17  C   UNL     1       3.312   1.816  17.569  0.00  0.00    +0.000 C 
ENDBRANCH  10  16
BRANCH  11  18
ATOM     18  O   UNL     1       3.810   5.155  16.605  0.00  0.00    +0.000 OA
ATOM     19  C   UNL     1       5.175   4.811  16.448  0.00  0.00    +0.000 C 
ENDBRANCH  11  18
BRANCH   1  20
ATOM     20  C   UNL     1       0.216  10.004  17.906  0.00  0.00    +0.000 C 
BRANCH  20  24
ATOM     21  C   UNL     1      -3.924  11.517  17.886  0.00  0.00    +0.000 A 
ATOM     22  C   UNL     1      -3.077  11.707  18.989  0.00  0.00    +0.000 A 
ATOM     23  C   UNL     1      -1.725  11.293  18.986  0.00  0.00    +0.000 A 
ATOM     24  C   UNL     1      -1.187  10.639  17.880  0.00  0.00    +0.000 A 
ATOM     25  C   UNL     1      -2.067  10.404  16.796  0.00  0.00    +0.000 A 
ATOM     26  C   UNL     1      -3.418  10.830  16.778  0.00  0.00    +0.000 A 
BRANCH  21  28
ATOM     27  C   UNL     1      -5.637  12.774  18.942  0.00  0.00    +0.000 C 
ATOM     28  O   UNL     1      -5.237  11.901  17.890  0.00  0.00    +0.000 OA
ENDBRANCH  21  28
BRANCH  26  29
ATOM     29  O   UNL     1      -4.079  10.448  15.639  0.00  0.00    +0.000 OA
ATOM     30  C   UNL     1      -3.354  10.165  14.450  0.00  0.00    +0.000 C 
ENDBRANCH  26  29
ENDBRANCH  20  24
ENDBRANCH   1  20
TORSDOF 6
ENDMDL
MODEL 3
REMARK VINA RESULT:      -6.9      2.879      9.090
REMARK  Name = 
REMARK  10 active torsions:
REMARK  status: ('A' for Active; 'I' for Inactive)
REMARK    1  A    between atoms: C_1  and  O_2
REMARK    2  A    between atoms: O_2  and  C_3
REMARK    3  A    between atoms: C_6  and  C_7
REMARK    4  A    between atoms: C_7  and  C_8
REMARK    5  A    between atoms: C_17  and  O_18
REMARK    6  A    between atoms: O_18  and  C_19
REMARK    7  A    between atoms: C_20  and  O_21
REMARK    8  A    between atoms: O_21  and  C_22
REMARK    9  A    between atoms: C_28  and  O_29
REMARK   10  A    between atoms: O_29  and  C_30
REMARK                            x       y       z     vdW  Elec       q    Type
REMARK                         _______ _______ _______ _____ _____    ______ ____
ROOT
ATOM      1  C   UNL     1       0.229   8.721  21.448  0.00  0.00    +0.000 C 
ATOM      2  O   UNL     1      -0.688   8.085  21.967  0.00  0.00    +0.000 OA
ATOM      3  N   UNL     1       0.119  10.083  21.131  0.00  0.00    +0.000 N 
ATOM      4  C   UNL     1       0.724  10.426  19.865  0.00  0.00    +0.000 C 
ATOM      5  C   UNL     1      -0.249  11.229  19.053  0.00  0.00    +0.000 C 
ATOM      6  C   UNL     1      -0.154  12.549  19.753  0.00  0.00    +0.000 A 
ATOM      7  C   UNL     1      -0.619  12.534  21.102  0.00  0.00    +0.000 A 
ATOM      8  C   UNL     1      -0.311  13.660  21.873  0.00  0.00    +0.000 A 
ATOM      9  C   UNL     1       0.761  14.492  21.492  0.00  0.00    +0.000 A 
ATOM     10  C   UNL     1       1.242  14.488  20.196  0.00  0.00    +0.000 A 
ATOM     11  C   UNL     1       0.761  13.523  19.299  0.00  0.00    +0.000 A 
ATOM     12  C   UNL     1       0.988  15.559  22.520  0.00  0.00    +0.000 C 
ATOM     13  C   UNL     1      -0.476  15.916  22.692  0.00  0.00    +0.000 C 
ATOM     14  C   UNL     1      -1.189  14.523  22.779  0.00  0.00    +0.000 C 
ATOM     15  C   UNL     1      -0.924  11.087  21.647  0.00  0.00    +0.000 C 
ENDROOT
BRANCH  10  16
ATOM     16  O   UNL     1       2.118  15.482  19.868  0.00  0.00    +0.000 OA
ATOM     17  C   UNL     1       1.507  16.566  19.171  0.00  0.00    +0.000 C 
ENDBRANCH  10  16
BRANCH  11  18
ATOM     18  O   UNL     1       1.431  13.432  18.105  0.00  0.00    +0.000 OA
ATOM     19  C   UNL     1       2.743  12.897  18.114  0.00  0.00    +0.000 C 
ENDBRANCH  11  18
BRANCH   1  20
ATOM     20  C   UNL     1       1.653   8.105  21.218  0.00  0.00    +0.000 C 
BRANCH  20  24
ATOM     21  C   UNL     1       2.063   4.588  18.593  0.00  0.00    +0.000 A 
ATOM     22  C   UNL     1       2.474   5.865  18.181  0.00  0.00    +0.000 A 
ATOM     23  C   UNL     1       2.417   6.990  19.034  0.00  0.00    +0.000 A 
ATOM     24  C   UNL     1       1.910   6.875  20.326  0.00  0.00    +0.000 A 
ATOM     25  C   UNL     1       1.448   5.594  20.711  0.00  0.00    +0.000 A 
ATOM     26  C   UNL     1       1.516   4.453  19.873  0.00  0.00    +0.000 A 
BRANCH  21  28
ATOM     27  C   UNL     1       3.344   2.809  17.685  0.00  0.00    +0.000 C 
ATOM     28  O   UNL     1       2.101   3.498  17.766  0.00  0.00    +0.000 OA
ENDBRANCH  21  28
BRANCH  26  29
ATOM     29  O   UNL     1       0.966   3.338  20.452  0.00  0.00    +0.000 OA
ATOM     30  C   UNL     1       1.616   2.702  21.544  0.00  0.00    +0.000 C 
ENDBRANCH  26  29
ENDBRANCH  20  24
ENDBRANCH   1  20
TORSDOF 6
ENDMDL
MODEL 4
REMARK VINA RESULT:      -6.9      0.921      1.764
REMARK  Name = 
REMARK  10 active torsions:
REMARK  status: ('A' for Active; 'I' for Inactive)
REMARK    1  A    between atoms: C_1  and  O_2
REMARK    2  A    between atoms: O_2  and  C_3
REMARK    3  A    between atoms: C_6  and  C_7
REMARK    4  A    between atoms: C_7  and  C_8
REMARK    5  A    between atoms: C_17  and  O_18
REMARK    6  A    between atoms: O_18  and  C_19
REMARK    7  A    between atoms: C_20  and  O_21
REMARK    8  A    between atoms: O_21  and  C_22
REMARK    9  A    between atoms: C_28  and  O_29
REMARK   10  A    between atoms: O_29  and  C_30
REMARK                            x       y       z     vdW  Elec       q    Type
REMARK                         _______ _______ _______ _____ _____    ______ ____
ROOT
ATOM      1  C   UNL     1       0.972   9.605  20.038  0.00  0.00    +0.000 C 
ATOM      2  O   UNL     1       1.037  10.187  21.119  0.00  0.00    +0.000 OA
ATOM      3  N   UNL     1       1.500   8.320  19.837  0.00  0.00    +0.000 N 
ATOM      4  C   UNL     1       2.155   8.165  18.559  0.00  0.00    +0.000 C 
ATOM      5  C   UNL     1       3.510   7.554  18.769  0.00  0.00    +0.000 C 
ATOM      6  C   UNL     1       3.121   6.133  19.037  0.00  0.00    +0.000 A 
ATOM      7  C   UNL     1       2.367   5.945  20.233  0.00  0.00    +0.000 A 
ATOM      8  C   UNL     1       1.762   4.693  20.391  0.00  0.00    +0.000 A 
ATOM      9  C   UNL     1       1.525   3.889  19.259  0.00  0.00    +0.000 A 
ATOM     10  C   UNL     1       2.225   4.085  18.084  0.00  0.00    +0.000 A 
ATOM     11  C   UNL     1       3.060   5.207  17.974  0.00  0.00    +0.000 A 
ATOM     12  C   UNL     1       0.762   2.656  19.642  0.00  0.00    +0.000 C 
ATOM     13  C   UNL     1       1.591   2.344  20.873  0.00  0.00    +0.000 C 
ATOM     14  C   UNL     1       1.743   3.733  21.580  0.00  0.00    +0.000 C 
ATOM     15  C   UNL     1       1.906   7.294  20.906  0.00  0.00    +0.000 C 
ENDROOT
BRANCH  10  16
ATOM     16  O   UNL     1       2.094   3.120  17.127  0.00  0.00    +0.000 OA
ATOM     17  C   UNL     1       3.021   2.047  17.277  0.00  0.00    +0.000 C 
ENDBRANCH  10  16
BRANCH  11  18
ATOM     18  O   UNL     1       3.551   5.464  16.718  0.00  0.00    +0.000 OA
ATOM     19  C   UNL     1       4.912   5.168  16.459  0.00  0.00    +0.000 C 
ENDBRANCH  11  18
BRANCH   1  20
ATOM     20  C   UNL     1       0.171  10.185  18.819  0.00  0.00    +0.000 C 
BRANCH  20  24
ATOM     21  C   UNL     1      -3.630  12.335  19.414  0.00  0.00    +0.000 A 
ATOM     22  C   UNL     1      -2.496  12.618  20.190  0.00  0.00    +0.000 A 
ATOM     23  C   UNL     1      -1.249  11.991  19.966  0.00  0.00    +0.000 A 
ATOM     24  C   UNL     1      -1.110  11.026  18.971  0.00  0.00    +0.000 A 
ATOM     25  C   UNL     1      -2.275  10.710  18.231  0.00  0.00    +0.000 A 
ATOM     26  C   UNL     1      -3.526  11.343  18.433  0.00  0.00    +0.000 A 
BRANCH  21  28
ATOM     27  C   UNL     1      -5.635  12.374  20.682  0.00  0.00    +0.000 C 
ATOM     28  O   UNL     1      -4.843  12.928  19.637  0.00  0.00    +0.000 OA
ENDBRANCH  21  28
BRANCH  26  29
ATOM     29  O   UNL     1      -4.513  10.836  17.627  0.00  0.00    +0.000 OA
ATOM     30  C   UNL     1      -4.995  11.589  16.523  0.00  0.00    +0.000 C 
ENDBRANCH  26  29
ENDBRANCH  20  24
ENDBRANCH   1  20
TORSDOF 6
ENDMDL
MODEL 5
REMARK VINA RESULT:      -6.8      2.590      9.517
REMARK  Name = 
REMARK  10 active torsions:
REMARK  status: ('A' for Active; 'I' for Inactive)
REMARK    1  A    between atoms: C_1  and  O_2
REMARK    2  A    between atoms: O_2  and  C_3
REMARK    3  A    between atoms: C_6  and  C_7
REMARK    4  A    between atoms: C_7  and  C_8
REMARK    5  A    between atoms: C_17  and  O_18
REMARK    6  A    between atoms: O_18  and  C_19
REMARK    7  A    between atoms: C_20  and  O_21
REMARK    8  A    between atoms: O_21  and  C_22
REMARK    9  A    between atoms: C_28  and  O_29
REMARK   10  A    between atoms: O_29  and  C_30
REMARK                            x       y       z     vdW  Elec       q    Type
REMARK                         _______ _______ _______ _____ _____    ______ ____
ROOT
ATOM      1  C   UNL     1       0.701   9.688  18.751  0.00  0.00    +0.000 C 
ATOM      2  O   UNL     1       0.239   9.288  17.684  0.00  0.00    +0.000 OA
ATOM      3  N   UNL     1       0.144  10.763  19.462  0.00  0.00    +0.000 N 
ATOM      4  C   UNL     1       1.134  11.638  20.044  0.00  0.00    +0.000 C 
ATOM      5  C   UNL     1       0.806  13.060  19.690  0.00  0.00    +0.000 C 
ATOM      6  C   UNL     1      -0.340  13.307  20.621  0.00  0.00    +0.000 A 
ATOM      7  C   UNL     1      -1.495  12.514  20.356  0.00  0.00    +0.000 A 
ATOM      8  C   UNL     1      -2.485  12.516  21.344  0.00  0.00    +0.000 A 
ATOM      9  C   UNL     1      -2.149  12.875  22.665  0.00  0.00    +0.000 A 
ATOM     10  C   UNL     1      -1.013  13.613  22.937  0.00  0.00    +0.000 A 
ATOM     11  C   UNL     1      -0.103  13.862  21.898  0.00  0.00    +0.000 A 
ATOM     12  C   UNL     1      -3.326  12.690  23.575  0.00  0.00    +0.000 C 
ATOM     13  C   UNL     1      -4.337  13.332  22.644  0.00  0.00    +0.000 C 
ATOM     14  C   UNL     1      -3.998  12.714  21.245  0.00  0.00    +0.000 C 
ATOM     15  C   UNL     1      -1.251  11.384  19.285  0.00  0.00    +0.000 C 
ENDROOT
BRANCH  10  16
ATOM     16  O   UNL     1      -0.893  14.105  24.204  0.00  0.00    +0.000 OA
ATOM     17  C   UNL     1      -1.391  15.434  24.343  0.00  0.00    +0.000 C 
ENDBRANCH  10  16
BRANCH  11  18
ATOM     18  O   UNL     1       1.099  14.405  22.275  0.00  0.00    +0.000 OA
ATOM     19  C   UNL     1       1.348  15.763  21.959  0.00  0.00    +0.000 C 
ENDBRANCH  11  18
BRANCH   1  20
ATOM     20  C   UNL     1       1.872   8.949  19.489  0.00  0.00    +0.000 C 
BRANCH  20  24
ATOM     21  C   UNL     1       3.455   4.933  18.604  0.00  0.00    +0.000 A 
ATOM     22  C   UNL     1       2.683   5.183  19.748  0.00  0.00    +0.000 A 
ATOM     23  C   UNL     1       2.107   6.446  20.012  0.00  0.00    +0.000 A 
ATOM     24  C   UNL     1       2.318   7.516  19.145  0.00  0.00    +0.000 A 
ATOM     25  C   UNL     1       3.144   7.265  18.023  0.00  0.00    +0.000 A 
ATOM     26  C   UNL     1       3.713   6.000  17.737  0.00  0.00    +0.000 A 
BRANCH  21  28
ATOM     27  C   UNL     1       4.167   2.840  19.466  0.00  0.00    +0.000 C 
ATOM     28  O   UNL     1       4.029   3.716  18.352  0.00  0.00    +0.000 OA
ENDBRANCH  21  28
BRANCH  26  29
ATOM     29  O   UNL     1       4.509   6.017  16.621  0.00  0.00    +0.000 OA
ATOM     30  C   UNL     1       5.880   6.378  16.723  0.00  0.00    +0.000 C 
ENDBRANCH  26  29
ENDBRANCH  20  24
ENDBRANCH   1  20
TORSDOF 6
ENDMDL
MODEL 6
REMARK VINA RESULT:      -6.8      2.575      9.361
REMARK  Name = 
REMARK  10 active torsions:
REMARK  status: ('A' for Active; 'I' for Inactive)
REMARK    1  A    between atoms: C_1  and  O_2
REMARK    2  A    between atoms: O_2  and  C_3
REMARK    3  A    between atoms: C_6  and  C_7
REMARK    4  A    between atoms: C_7  and  C_8
REMARK    5  A    between atoms: C_17  and  O_18
REMARK    6  A    between atoms: O_18  and  C_19
REMARK    7  A    between atoms: C_20  and  O_21
REMARK    8  A    between atoms: O_21  and  C_22
REMARK    9  A    between atoms: C_28  and  O_29
REMARK   10  A    between atoms: O_29  and  C_30
REMARK                            x       y       z     vdW  Elec       q    Type
REMARK                         _______ _______ _______ _____ _____    ______ ____
ROOT
ATOM      1  C   UNL     1       0.811   9.674  18.726  0.00  0.00    +0.000 C 
ATOM      2  O   UNL     1       0.399   9.297  17.630  0.00  0.00    +0.000 OA
ATOM      3  N   UNL     1       0.243  10.755  19.417  0.00  0.00    +0.000 N 
ATOM      4  C   UNL     1       1.223  11.598  20.063  0.00  0.00    +0.000 C 
ATOM      5  C   UNL     1       0.951  13.032  19.708  0.00  0.00    +0.000 C 
ATOM      6  C   UNL     1      -0.238  13.299  20.577  0.00  0.00    +0.000 A 
ATOM      7  C   UNL     1      -1.397  12.540  20.240  0.00  0.00    +0.000 A 
ATOM      8  C   UNL     1      -2.440  12.558  21.172  0.00  0.00    +0.000 A 
ATOM      9  C   UNL     1      -2.168  12.894  22.513  0.00  0.00    +0.000 A 
ATOM     10  C   UNL     1      -1.030  13.600  22.856  0.00  0.00    +0.000 A 
ATOM     11  C   UNL     1      -0.059  13.835  21.871  0.00  0.00    +0.000 A 
ATOM     12  C   UNL     1      -3.398  12.730  23.355  0.00  0.00    +0.000 C 
ATOM     13  C   UNL     1      -4.339  13.408  22.378  0.00  0.00    +0.000 C 
ATOM     14  C   UNL     1      -3.939  12.796  20.992  0.00  0.00    +0.000 C 
ATOM     15  C   UNL     1      -1.123  11.414  19.171  0.00  0.00    +0.000 C 
ENDROOT
BRANCH  10  16
ATOM     16  O   UNL     1      -0.968  14.075  24.133  0.00  0.00    +0.000 OA
ATOM     17  C   UNL     1      -1.446  15.413  24.261  0.00  0.00    +0.000 C 
ENDBRANCH  10  16
BRANCH  11  18
ATOM     18  O   UNL     1       1.135  14.342  22.320  0.00  0.00    +0.000 OA
ATOM     19  C   UNL     1       1.416  15.709  22.072  0.00  0.00    +0.000 C 
ENDBRANCH  11  18
BRANCH   1  20
ATOM     20  C   UNL     1       1.921   8.897  19.518  0.00  0.00    +0.000 C 
BRANCH  20  24
ATOM     21  C   UNL     1       2.766   4.691  18.509  0.00  0.00    +0.000 A 
ATOM     22  C   UNL     1       3.223   5.746  17.705  0.00  0.00    +0.000 A 
ATOM     23  C   UNL     1       3.024   7.102  18.050  0.00  0.00    +0.000 A 
ATOM     24  C   UNL     1       2.325   7.444  19.205  0.00  0.00    +0.000 A 
ATOM     25  C   UNL     1       1.822   6.371  19.979  0.00  0.00    +0.000 A 
ATOM     26  C   UNL     1       2.029   5.008  19.655  0.00  0.00    +0.000 A 
BRANCH  21  28
ATOM     27  C   UNL     1       4.064   2.719  18.754  0.00  0.00    +0.000 C 
ATOM     28  O   UNL     1       2.943   3.376  18.172  0.00  0.00    +0.000 OA
ENDBRANCH  21  28
BRANCH  26  29
ATOM     29  O   UNL     1       1.408   4.154  20.531  0.00  0.00    +0.000 OA
ATOM     30  C   UNL     1       2.119   3.626  21.643  0.00  0.00    +0.000 C 
ENDBRANCH  26  29
ENDBRANCH  20  24
ENDBRANCH   1  20
TORSDOF 6
ENDMDL
MODEL 7
REMARK VINA RESULT:      -6.7      3.066      4.686
REMARK  Name = 
REMARK  10 active torsions:
REMARK  status: ('A' for Active; 'I' for Inactive)
REMARK    1  A    between atoms: C_1  and  O_2
REMARK    2  A    between atoms: O_2  and  C_3
REMARK    3  A    between atoms: C_6  and  C_7
REMARK    4  A    between atoms: C_7  and  C_8
REMARK    5  A    between atoms: C_17  and  O_18
REMARK    6  A    between atoms: O_18  and  C_19
REMARK    7  A    between atoms: C_20  and  O_21
REMARK    8  A    between atoms: O_21  and  C_22
REMARK    9  A    between atoms: C_28  and  O_29
REMARK   10  A    between atoms: O_29  and  C_30
REMARK                            x       y       z     vdW  Elec       q    Type
REMARK                         _______ _______ _______ _____ _____    ______ ____
ROOT
ATOM      1  C   UNL     1       1.228   8.821  19.508  0.00  0.00    +0.000 C 
ATOM      2  O   UNL     1       0.388   9.365  18.793  0.00  0.00    +0.000 OA
ATOM      3  N   UNL     1       2.108   7.839  19.027  0.00  0.00    +0.000 N 
ATOM      4  C   UNL     1       2.316   6.754  19.958  0.00  0.00    +0.000 C 
ATOM      5  C   UNL     1       2.126   5.447  19.243  0.00  0.00    +0.000 C 
ATOM      6  C   UNL     1       3.407   5.378  18.471  0.00  0.00    +0.000 A 
ATOM      7  C   UNL     1       3.555   6.397  17.485  0.00  0.00    +0.000 A 
ATOM      8  C   UNL     1       4.831   6.534  16.926  0.00  0.00    +0.000 A 
ATOM      9  C   UNL     1       5.951   6.041  17.623  0.00  0.00    +0.000 A 
ATOM     10  C   UNL     1       5.815   5.079  18.605  0.00  0.00    +0.000 A 
ATOM     11  C   UNL     1       4.525   4.715  19.021  0.00  0.00    +0.000 A 
ATOM     12  C   UNL     1       7.217   6.403  16.904  0.00  0.00    +0.000 C 
ATOM     13  C   UNL     1       6.717   6.027  15.523  0.00  0.00    +0.000 C 
ATOM     14  C   UNL     1       5.278   6.645  15.468  0.00  0.00    +0.000 C 
ATOM     15  C   UNL     1       2.448   7.517  17.564  0.00  0.00    +0.000 C 
ENDROOT
BRANCH  10  16
ATOM     16  O   UNL     1       6.966   4.502  19.058  0.00  0.00    +0.000 OA
ATOM     17  C   UNL     1       7.743   5.365  19.885  0.00  0.00    +0.000 C 
ENDBRANCH  10  16
BRANCH  11  18
ATOM     18  O   UNL     1       4.460   3.925  20.141  0.00  0.00    +0.000 OA
ATOM     19  C   UNL     1       4.174   2.548  19.972  0.00  0.00    +0.000 C 
ENDBRANCH  11  18
BRANCH   1  20
ATOM     20  C   UNL     1       1.490   9.271  20.988  0.00  0.00    +0.000 C 
BRANCH  20  24
ATOM     21  C   UNL     1      -1.284  12.128  22.876  0.00  0.00    +0.000 A 
ATOM     22  C   UNL     1      -1.253  10.777  23.251  0.00  0.00    +0.000 A 
ATOM     23  C   UNL     1      -0.323   9.861  22.709  0.00  0.00    +0.000 A 
ATOM     24  C   UNL     1       0.591  10.270  21.740  0.00  0.00    +0.000 A 
ATOM     25  C   UNL     1       0.513  11.623  21.331  0.00  0.00    +0.000 A 
ATOM     26  C   UNL     1      -0.402  12.556  21.878  0.00  0.00    +0.000 A 
BRANCH  21  28
ATOM     27  C   UNL     1      -3.525  12.909  22.893  0.00  0.00    +0.000 C 
ATOM     28  O   UNL     1      -2.194  13.015  23.386  0.00  0.00    +0.000 OA
ENDBRANCH  21  28
BRANCH  26  29
ATOM     29  O   UNL     1      -0.316  13.791  21.290  0.00  0.00    +0.000 OA
ATOM     30  C   UNL     1      -1.057  14.077  20.112  0.00  0.00    +0.000 C 
ENDBRANCH  26  29
ENDBRANCH  20  24
ENDBRANCH   1  20
TORSDOF 6
ENDMDL
MODEL 8
REMARK VINA RESULT:      -6.7      1.807      9.335
REMARK  Name = 
REMARK  10 active torsions:
REMARK  status: ('A' for Active; 'I' for Inactive)
REMARK    1  A    between atoms: C_1  and  O_2
REMARK    2  A    between atoms: O_2  and  C_3
REMARK    3  A    between atoms: C_6  and  C_7
REMARK    4  A    between atoms: C_7  and  C_8
REMARK    5  A    between atoms: C_17  and  O_18
REMARK    6  A    between atoms: O_18  and  C_19
REMARK    7  A    between atoms: C_20  and  O_21
REMARK    8  A    between atoms: O_21  and  C_22
REMARK    9  A    between atoms: C_28  and  O_29
REMARK   10  A    between atoms: O_29  and  C_30
REMARK                            x       y       z     vdW  Elec       q    Type
REMARK                         _______ _______ _______ _____ _____    ______ ____
ROOT
ATOM      1  C   UNL     1       1.282   9.212  18.488  0.00  0.00    +0.000 C 
ATOM      2  O   UNL     1       1.852   8.958  17.427  0.00  0.00    +0.000 OA
ATOM      3  N   UNL     1       0.222  10.127  18.577  0.00  0.00    +0.000 N 
ATOM      4  C   UNL     1       0.281  10.956  19.758  0.00  0.00    +0.000 C 
ATOM      5  C   UNL     1       0.114  12.395  19.362  0.00  0.00    +0.000 C 
ATOM      6  C   UNL     1      -1.358  12.427  19.094  0.00  0.00    +0.000 A 
ATOM      7  C   UNL     1      -1.774  11.620  17.993  0.00  0.00    +0.000 A 
ATOM      8  C   UNL     1      -3.151  11.411  17.866  0.00  0.00    +0.000 A 
ATOM      9  C   UNL     1      -3.985  11.577  18.990  0.00  0.00    +0.000 A 
ATOM     10  C   UNL     1      -3.579  12.327  20.076  0.00  0.00    +0.000 A 
ATOM     11  C   UNL     1      -2.255  12.787  20.123  0.00  0.00    +0.000 A 
ATOM     12  C   UNL     1      -5.394  11.184  18.659  0.00  0.00    +0.000 C 
ATOM     13  C   UNL     1      -5.442  11.905  17.326  0.00  0.00    +0.000 C 
ATOM     14  C   UNL     1      -4.075  11.535  16.655  0.00  0.00    +0.000 C 
ATOM     15  C   UNL     1      -0.634  10.688  17.430  0.00  0.00    +0.000 C 
ENDROOT
BRANCH  10  16
ATOM     16  O   UNL     1      -4.533  12.620  21.007  0.00  0.00    +0.000 OA
ATOM     17  C   UNL     1      -5.094  13.922  20.850  0.00  0.00    +0.000 C 
ENDBRANCH  10  16
BRANCH  11  18
ATOM     18  O   UNL     1      -1.854  13.332  21.317  0.00  0.00    +0.000 OA
ATOM     19  C   UNL     1      -1.696  12.466  22.428  0.00  0.00    +0.000 C 
ENDBRANCH  11  18
BRANCH   1  20
ATOM     20  C   UNL     1       1.592   8.435  19.815  0.00  0.00    +0.000 C 
BRANCH  20  24
ATOM     21  C   UNL     1       3.099   4.303  20.105  0.00  0.00    +0.000 A 
ATOM     22  C   UNL     1       1.985   4.733  20.842  0.00  0.00    +0.000 A 
ATOM     23  C   UNL     1       1.444   6.032  20.709  0.00  0.00    +0.000 A 
ATOM     24  C   UNL     1       2.030   6.958  19.849  0.00  0.00    +0.000 A 
ATOM     25  C   UNL     1       3.185   6.531  19.152  0.00  0.00    +0.000 A 
ATOM     26  C   UNL     1       3.728   5.226  19.263  0.00  0.00    +0.000 A 
BRANCH  21  28
ATOM     27  C   UNL     1       3.331   2.116  19.214  0.00  0.00    +0.000 C 
ATOM     28  O   UNL     1       3.637   3.052  20.243  0.00  0.00    +0.000 OA
ENDBRANCH  21  28
BRANCH  26  29
ATOM     29  O   UNL     1       4.873   5.065  18.526  0.00  0.00    +0.000 OA
ATOM     30  C   UNL     1       6.143   5.328  19.108  0.00  0.00    +0.000 C 
ENDBRANCH  26  29
ENDBRANCH  20  24
ENDBRANCH   1  20
TORSDOF 6
ENDMDL
MODEL 9
REMARK VINA RESULT:      -6.7      1.872      9.370
REMARK  Name = 
REMARK  10 active torsions:
REMARK  status: ('A' for Active; 'I' for Inactive)
REMARK    1  A    between atoms: C_1  and  O_2
REMARK    2  A    between atoms: O_2  and  C_3
REMARK    3  A    between atoms: C_6  and  C_7
REMARK    4  A    between atoms: C_7  and  C_8
REMARK    5  A    between atoms: C_17  and  O_18
REMARK    6  A    between atoms: O_18  and  C_19
REMARK    7  A    between atoms: C_20  and  O_21
REMARK    8  A    between atoms: O_21  and  C_22
REMARK    9  A    between atoms: C_28  and  O_29
REMARK   10  A    between atoms: O_29  and  C_30
REMARK                            x       y       z     vdW  Elec       q    Type
REMARK                         _______ _______ _______ _____ _____    ______ ____
ROOT
ATOM      1  C   UNL     1       0.803   9.688  18.592  0.00  0.00    +0.000 C 
ATOM      2  O   UNL     1       1.408   9.628  17.523  0.00  0.00    +0.000 OA
ATOM      3  N   UNL     1      -0.333  10.491  18.774  0.00  0.00    +0.000 N 
ATOM      4  C   UNL     1      -0.364  11.155  20.057  0.00  0.00    +0.000 C 
ATOM      5  C   UNL     1      -0.648  12.614  19.852  0.00  0.00    +0.000 C 
ATOM      6  C   UNL     1      -2.113  12.559  19.552  0.00  0.00    +0.000 A 
ATOM      7  C   UNL     1      -2.441  11.878  18.343  0.00  0.00    +0.000 A 
ATOM      8  C   UNL     1      -3.794  11.573  18.153  0.00  0.00    +0.000 A 
ATOM      9  C   UNL     1      -4.656  11.516  19.266  0.00  0.00    +0.000 A 
ATOM     10  C   UNL     1      -4.332  12.143  20.454  0.00  0.00    +0.000 A 
ATOM     11  C   UNL     1      -3.053  12.702  20.596  0.00  0.00    +0.000 A 
ATOM     12  C   UNL     1      -6.020  11.055  18.850  0.00  0.00    +0.000 C 
ATOM     13  C   UNL     1      -6.110  11.943  17.624  0.00  0.00    +0.000 C 
ATOM     14  C   UNL     1      -4.707  11.782  16.945  0.00  0.00    +0.000 C 
ATOM     15  C   UNL     1      -1.217  11.128  17.691  0.00  0.00    +0.000 C 
ENDROOT
BRANCH  10  16
ATOM     16  O   UNL     1      -5.321  12.227  21.390  0.00  0.00    +0.000 OA
ATOM     17  C   UNL     1      -5.989  13.487  21.394  0.00  0.00    +0.000 C 
ENDBRANCH  10  16
BRANCH  11  18
ATOM     18  O   UNL     1      -2.718  13.112  21.863  0.00  0.00    +0.000 OA
ATOM     19  C   UNL     1      -2.514  12.120  22.854  0.00  0.00    +0.000 C 
ENDBRANCH  11  18
BRANCH   1  20
ATOM     20  C   UNL     1       1.159   8.767  19.811  0.00  0.00    +0.000 C 
BRANCH  20  24
ATOM     21  C   UNL     1       3.351   4.971  19.349  0.00  0.00    +0.000 A 
ATOM     22  C   UNL     1       3.497   6.021  18.430  0.00  0.00    +0.000 A 
ATOM     23  C   UNL     1       2.859   7.271  18.600  0.00  0.00    +0.000 A 
ATOM     24  C   UNL     1       2.020   7.496  19.689  0.00  0.00    +0.000 A 
ATOM     25  C   UNL     1       1.837   6.410  20.579  0.00  0.00    +0.000 A 
ATOM     26  C   UNL     1       2.484   5.159  20.431  0.00  0.00    +0.000 A 
BRANCH  21  28
ATOM     27  C   UNL     1       3.952   3.225  17.859  0.00  0.00    +0.000 C 
ATOM     28  O   UNL     1       3.954   3.754  19.181  0.00  0.00    +0.000 OA
ENDBRANCH  21  28
BRANCH  26  29
ATOM     29  O   UNL     1       2.114   4.253  21.392  0.00  0.00    +0.000 OA
ATOM     30  C   UNL     1       1.241   3.180  21.068  0.00  0.00    +0.000 C 
ENDBRANCH  26  29
ENDBRANCH  20  24
ENDBRANCH   1  20
TORSDOF 6
ENDMDL
