MODEL 1
REMARK VINA RESULT:      -9.3      0.000      0.000
REMARK  Name = 
REMARK  7 active torsions:
REMARK  status: ('A' for Active; 'I' for Inactive)
REMARK    1  A    between atoms: C_1  and  C_2
REMARK    2  A    between atoms: C_2  and  N_3
REMARK    3  A    between atoms: C_2  and  C_24
REMARK    4  A    between atoms: C_4  and  C_6
REMARK    5  A    between atoms: C_6  and  N_7
REMARK    6  A    between atoms: C_6  and  C_18
REMARK    7  A    between atoms: N_10  and  C_11
REMARK                            x       y       z     vdW  Elec       q    Type
REMARK                         _______ _______ _______ _____ _____    ______ ____
ROOT
ATOM      1  C   UNL     1       6.489   6.144  17.427  0.00  0.00    +0.000 C 
ENDROOT
BRANCH   1   2
ATOM      2  N   UNL     1       6.821   7.544  17.189  0.00  0.00    +0.000 N 
ATOM      3  C   UNL     1       7.818   8.137  17.919  0.00  0.00    +0.000 C 
ATOM      4  O   UNL     1       8.468   7.507  18.751  0.00  0.00    +0.000 OA
ATOM      5  N   UNL     1       7.960   9.484  17.673  0.00  0.00    +0.000 N 
ATOM      6  H   UNL     1       6.262   8.059  16.525  0.00  0.00    +0.000 HD
ATOM      7  H   UNL     1       7.114   9.963  17.402  0.00  0.00    +0.000 HD
BRANCH   5   8
ATOM      8  C   UNL     1       8.950  10.253  18.332  0.00  0.00    +0.000 A 
ATOM      9  C   UNL     1       9.009  10.235  19.726  0.00  0.00    +0.000 A 
ATOM     10  C   UNL     1      10.037  10.906  20.399  0.00  0.00    +0.000 A 
ATOM     11  C   UNL     1      10.971  11.650  19.681  0.00  0.00    +0.000 A 
ATOM     12  C   UNL     1      10.878  11.719  18.291  0.00  0.00    +0.000 A 
ATOM     13 CL   UNL     1      11.995  12.684  17.408  0.00  0.00    +0.000 Cl
ATOM     14  C   UNL     1       9.881  11.014  17.613  0.00  0.00    +0.000 A 
ENDBRANCH   5   8
ENDBRANCH   1   2
BRANCH   1  15
ATOM     15  C   UNL     1       6.443   5.330  16.141  0.00  0.00    +0.000 A 
ATOM     16  C   UNL     1       5.460   4.338  15.988  0.00  0.00    +0.000 A 
ATOM     17  C   UNL     1       5.339   3.634  14.790  0.00  0.00    +0.000 A 
ATOM     18  C   UNL     1       6.207   3.902  13.735  0.00  0.00    +0.000 A 
ATOM     19  C   UNL     1       7.201   4.868  13.879  0.00  0.00    +0.000 A 
ATOM     20  C   UNL     1       7.322   5.580  15.075  0.00  0.00    +0.000 A 
ENDBRANCH   1  15
BRANCH   1  22
ATOM     21  N   UNL     1       4.056   6.457  17.574  0.00  0.00    +0.000 N 
ATOM     22  C   UNL     1       5.174   5.964  18.230  0.00  0.00    +0.000 C 
ATOM     23  O   UNL     1       5.140   5.447  19.347  0.00  0.00    +0.000 OA
ATOM     24  H   UNL     1       4.167   6.757  16.615  0.00  0.00    +0.000 HD
BRANCH  21  26
ATOM     25  C   UNL     1       2.590   7.426  19.288  0.00  0.00    +0.000 C 
ATOM     26  C   UNL     1       2.714   6.431  18.138  0.00  0.00    +0.000 C 
BRANCH  26  27
ATOM     27  C   UNL     1       2.309   5.054  18.649  0.00  0.00    +0.000 A 
ATOM     28  C   UNL     1       2.267   3.983  17.740  0.00  0.00    +0.000 A 
ATOM     29  C   UNL     1       1.713   2.754  18.104  0.00  0.00    +0.000 A 
ATOM     30  C   UNL     1       1.204   2.571  19.386  0.00  0.00    +0.000 A 
ATOM     31  C   UNL     1       1.278   3.607  20.315  0.00  0.00    +0.000 A 
ATOM     32  C   UNL     1       1.827   4.840  19.951  0.00  0.00    +0.000 A 
ENDBRANCH  26  27
ENDBRANCH  21  26
ENDBRANCH   1  22
TORSDOF 6
ENDMDL
MODEL 2
REMARK VINA RESULT:      -9.3      1.012      2.618
REMARK  Name = 
REMARK  7 active torsions:
REMARK  status: ('A' for Active; 'I' for Inactive)
REMARK    1  A    between atoms: C_1  and  C_2
REMARK    2  A    between atoms: C_2  and  N_3
REMARK    3  A    between atoms: C_2  and  C_24
REMARK    4  A    between atoms: C_4  and  C_6
REMARK    5  A    between atoms: C_6  and  N_7
REMARK    6  A    between atoms: C_6  and  C_18
REMARK    7  A    between atoms: N_10  and  C_11
REMARK                            x       y       z     vdW  Elec       q    Type
REMARK                         _______ _______ _______ _____ _____    ______ ____
ROOT
ATOM      1  C   UNL     1       6.747   6.038  17.366  0.00  0.00    +0.000 C 
ENDROOT
BRANCH   1   2
ATOM      2  N   UNL     1       6.956   7.473  17.201  0.00  0.00    +0.000 N 
ATOM      3  C   UNL     1       7.930   8.102  17.932  0.00  0.00    +0.000 C 
ATOM      4  O   UNL     1       8.661   7.481  18.701  0.00  0.00    +0.000 OA
ATOM      5  N   UNL     1       7.954   9.468  17.762  0.00  0.00    +0.000 N 
ATOM      6  H   UNL     1       6.332   7.977  16.590  0.00  0.00    +0.000 HD
ATOM      7  H   UNL     1       7.063   9.891  17.551  0.00  0.00    +0.000 HD
BRANCH   5   8
ATOM      8  C   UNL     1       8.905  10.277  18.433  0.00  0.00    +0.000 A 
ATOM      9  C   UNL     1       8.880  10.343  19.826  0.00  0.00    +0.000 A 
ATOM     10  C   UNL     1       9.867  11.055  20.518  0.00  0.00    +0.000 A 
ATOM     11  C   UNL     1      10.845  11.755  19.814  0.00  0.00    +0.000 A 
ATOM     12  C   UNL     1      10.836  11.739  18.420  0.00  0.00    +0.000 A 
ATOM     13 CL   UNL     1      12.007  12.650  17.549  0.00  0.00    +0.000 Cl
ATOM     14  C   UNL     1       9.880  10.993  17.727  0.00  0.00    +0.000 A 
ENDBRANCH   5   8
ENDBRANCH   1   2
BRANCH   1  15
ATOM     15  C   UNL     1       6.482   5.333  16.043  0.00  0.00    +0.000 A 
ATOM     16  C   UNL     1       7.388   5.495  14.981  0.00  0.00    +0.000 A 
ATOM     17  C   UNL     1       7.219   4.797  13.786  0.00  0.00    +0.000 A 
ATOM     18  C   UNL     1       6.134   3.937  13.632  0.00  0.00    +0.000 A 
ATOM     19  C   UNL     1       5.215   3.782  14.667  0.00  0.00    +0.000 A 
ATOM     20  C   UNL     1       5.385   4.476  15.868  0.00  0.00    +0.000 A 
ENDBRANCH   1  15
BRANCH   1  22
ATOM     21  N   UNL     1       4.427   6.337  18.119  0.00  0.00    +0.000 N 
ATOM     22  C   UNL     1       5.631   5.706  18.390  0.00  0.00    +0.000 C 
ATOM     23  O   UNL     1       5.813   4.964  19.356  0.00  0.00    +0.000 OA
ATOM     24  H   UNL     1       4.343   6.832  17.241  0.00  0.00    +0.000 HD
BRANCH  21  26
ATOM     25  C   UNL     1       2.380   5.033  18.489  0.00  0.00    +0.000 C 
ATOM     26  C   UNL     1       3.241   6.205  18.953  0.00  0.00    +0.000 C 
BRANCH  26  27
ATOM     27  C   UNL     1       2.377   7.460  18.964  0.00  0.00    +0.000 A 
ATOM     28  C   UNL     1       2.388   8.296  17.835  0.00  0.00    +0.000 A 
ATOM     29  C   UNL     1       1.779   9.552  17.866  0.00  0.00    +0.000 A 
ATOM     30  C   UNL     1       1.139   9.988  19.023  0.00  0.00    +0.000 A 
ATOM     31  C   UNL     1       1.080   9.155  20.137  0.00  0.00    +0.000 A 
ATOM     32  C   UNL     1       1.693   7.899  20.110  0.00  0.00    +0.000 A 
ENDBRANCH  26  27
ENDBRANCH  21  26
ENDBRANCH   1  22
TORSDOF 6
ENDMDL
MODEL 3
REMARK VINA RESULT:      -9.3      3.633      7.416
REMARK  Name = 
REMARK  7 active torsions:
REMARK  status: ('A' for Active; 'I' for Inactive)
REMARK    1  A    between atoms: C_1  and  C_2
REMARK    2  A    between atoms: C_2  and  N_3
REMARK    3  A    between atoms: C_2  and  C_24
REMARK    4  A    between atoms: C_4  and  C_6
REMARK    5  A    between atoms: C_6  and  N_7
REMARK    6  A    between atoms: C_6  and  C_18
REMARK    7  A    between atoms: N_10  and  C_11
REMARK                            x       y       z     vdW  Elec       q    Type
REMARK                         _______ _______ _______ _____ _____    ______ ____
ROOT
ATOM      1  C   UNL     1       2.872   6.031  19.249  0.00  0.00    +0.000 C 
ENDROOT
BRANCH   1   2
ATOM      2  N   UNL     1       2.594   6.739  20.494  0.00  0.00    +0.000 N 
ATOM      3  C   UNL     1       1.730   7.802  20.489  0.00  0.00    +0.000 C 
ATOM      4  O   UNL     1       1.151   8.157  19.464  0.00  0.00    +0.000 OA
ATOM      5  N   UNL     1       1.636   8.446  21.702  0.00  0.00    +0.000 N 
ATOM      6  H   UNL     1       3.097   6.458  21.322  0.00  0.00    +0.000 HD
ATOM      7  H   UNL     1       2.469   8.414  22.272  0.00  0.00    +0.000 HD
BRANCH   5   8
ATOM      8  C   UNL     1       0.780   9.560  21.881  0.00  0.00    +0.000 A 
ATOM      9  C   UNL     1      -0.235   9.493  22.836  0.00  0.00    +0.000 A 
ATOM     10  C   UNL     1      -1.032  10.612  23.102  0.00  0.00    +0.000 A 
ATOM     11  C   UNL     1      -0.856  11.784  22.368  0.00  0.00    +0.000 A 
ATOM     12  C   UNL     1       0.118  11.834  21.371  0.00  0.00    +0.000 A 
ATOM     13 CL   UNL     1       0.297  13.260  20.425  0.00  0.00    +0.000 Cl
ATOM     14  C   UNL     1       0.945  10.735  21.134  0.00  0.00    +0.000 A 
ENDBRANCH   5   8
ENDBRANCH   1   2
BRANCH   1  15
ATOM     15  C   UNL     1       2.083   4.735  19.128  0.00  0.00    +0.000 A 
ATOM     16  C   UNL     1       2.195   3.966  17.957  0.00  0.00    +0.000 A 
ATOM     17  C   UNL     1       1.552   2.733  17.850  0.00  0.00    +0.000 A 
ATOM     18  C   UNL     1       0.778   2.259  18.905  0.00  0.00    +0.000 A 
ATOM     19  C   UNL     1       0.639   3.019  20.064  0.00  0.00    +0.000 A 
ATOM     20  C   UNL     1       1.287   4.252  20.178  0.00  0.00    +0.000 A 
ENDBRANCH   1  15
BRANCH   1  22
ATOM     21  N   UNL     1       4.830   6.128  17.768  0.00  0.00    +0.000 N 
ATOM     22  C   UNL     1       4.385   5.767  19.030  0.00  0.00    +0.000 C 
ATOM     23  O   UNL     1       5.107   5.271  19.896  0.00  0.00    +0.000 OA
ATOM     24  H   UNL     1       4.191   6.633  17.170  0.00  0.00    +0.000 HD
BRANCH  21  26
ATOM     25  C   UNL     1       6.892   7.298  17.130  0.00  0.00    +0.000 C 
ATOM     26  C   UNL     1       6.203   5.949  17.316  0.00  0.00    +0.000 C 
BRANCH  26  27
ATOM     27  C   UNL     1       6.303   5.174  16.008  0.00  0.00    +0.000 A 
ATOM     28  C   UNL     1       7.398   5.419  15.161  0.00  0.00    +0.000 A 
ATOM     29  C   UNL     1       7.438   4.893  13.869  0.00  0.00    +0.000 A 
ATOM     30  C   UNL     1       6.390   4.101  13.406  0.00  0.00    +0.000 A 
ATOM     31  C   UNL     1       5.319   3.810  14.246  0.00  0.00    +0.000 A 
ATOM     32  C   UNL     1       5.274   4.341  15.538  0.00  0.00    +0.000 A 
ENDBRANCH  26  27
ENDBRANCH  21  26
ENDBRANCH   1  22
TORSDOF 6
ENDMDL
MODEL 4
REMARK VINA RESULT:      -9.2      0.254      1.290
REMARK  Name = 
REMARK  7 active torsions:
REMARK  status: ('A' for Active; 'I' for Inactive)
REMARK    1  A    between atoms: C_1  and  C_2
REMARK    2  A    between atoms: C_2  and  N_3
REMARK    3  A    between atoms: C_2  and  C_24
REMARK    4  A    between atoms: C_4  and  C_6
REMARK    5  A    between atoms: C_6  and  N_7
REMARK    6  A    between atoms: C_6  and  C_18
REMARK    7  A    between atoms: N_10  and  C_11
REMARK                            x       y       z     vdW  Elec       q    Type
REMARK                         _______ _______ _______ _____ _____    ______ ____
ROOT
ATOM      1  C   UNL     1       6.475   6.128  17.335  0.00  0.00    +0.000 C 
ENDROOT
BRANCH   1   2
ATOM      2  N   UNL     1       6.791   7.538  17.141  0.00  0.00    +0.000 N 
ATOM      3  C   UNL     1       7.786   8.117  17.884  0.00  0.00    +0.000 C 
ATOM      4  O   UNL     1       8.448   7.468  18.691  0.00  0.00    +0.000 OA
ATOM      5  N   UNL     1       7.912   9.473  17.681  0.00  0.00    +0.000 N 
ATOM      6  H   UNL     1       6.222   8.069  16.498  0.00  0.00    +0.000 HD
ATOM      7  H   UNL     1       7.060   9.952  17.432  0.00  0.00    +0.000 HD
BRANCH   5   8
ATOM      8  C   UNL     1       8.899  10.231  18.359  0.00  0.00    +0.000 A 
ATOM      9  C   UNL     1       8.923  10.223  19.755  0.00  0.00    +0.000 A 
ATOM     10  C   UNL     1       9.945  10.882  20.448  0.00  0.00    +0.000 A 
ATOM     11  C   UNL     1      10.910  11.605  19.747  0.00  0.00    +0.000 A 
ATOM     12  C   UNL     1      10.852  11.663  18.356  0.00  0.00    +0.000 A 
ATOM     13 CL   UNL     1      12.008  12.602  17.494  0.00  0.00    +0.000 Cl
ATOM     14  C   UNL     1       9.861  10.970  17.658  0.00  0.00    +0.000 A 
ENDBRANCH   5   8
ENDBRANCH   1   2
BRANCH   1  15
ATOM     15  C   UNL     1       6.387   5.364  16.021  0.00  0.00    +0.000 A 
ATOM     16  C   UNL     1       7.282   5.674  14.983  0.00  0.00    +0.000 A 
ATOM     17  C   UNL     1       7.282   4.937  13.798  0.00  0.00    +0.000 A 
ATOM     18  C   UNL     1       6.380   3.889  13.632  0.00  0.00    +0.000 A 
ATOM     19  C   UNL     1       5.473   3.584  14.643  0.00  0.00    +0.000 A 
ATOM     20  C   UNL     1       5.473   4.316  15.834  0.00  0.00    +0.000 A 
ENDBRANCH   1  15
BRANCH   1  22
ATOM     21  N   UNL     1       4.039   6.369  17.557  0.00  0.00    +0.000 N 
ATOM     22  C   UNL     1       5.191   5.908  18.177  0.00  0.00    +0.000 C 
ATOM     23  O   UNL     1       5.206   5.387  19.292  0.00  0.00    +0.000 OA
ATOM     24  H   UNL     1       4.113   6.675  16.596  0.00  0.00    +0.000 HD
BRANCH  21  26
ATOM     25  C   UNL     1       2.681   7.078  19.476  0.00  0.00    +0.000 C 
ATOM     26  C   UNL     1       2.717   6.303  18.161  0.00  0.00    +0.000 C 
BRANCH  26  27
ATOM     27  C   UNL     1       2.256   4.876  18.433  0.00  0.00    +0.000 A 
ATOM     28  C   UNL     1       1.769   4.557  19.712  0.00  0.00    +0.000 A 
ATOM     29  C   UNL     1       1.525   3.231  20.076  0.00  0.00    +0.000 A 
ATOM     30  C   UNL     1       1.751   2.204  19.165  0.00  0.00    +0.000 A 
ATOM     31  C   UNL     1       2.191   2.505  17.878  0.00  0.00    +0.000 A 
ATOM     32  C   UNL     1       2.442   3.830  17.512  0.00  0.00    +0.000 A 
ENDBRANCH  26  27
ENDBRANCH  21  26
ENDBRANCH   1  22
TORSDOF 6
ENDMDL
MODEL 5
REMARK VINA RESULT:      -9.1      1.470      3.013
REMARK  Name = 
REMARK  7 active torsions:
REMARK  status: ('A' for Active; 'I' for Inactive)
REMARK    1  A    between atoms: C_1  and  C_2
REMARK    2  A    between atoms: C_2  and  N_3
REMARK    3  A    between atoms: C_2  and  C_24
REMARK    4  A    between atoms: C_4  and  C_6
REMARK    5  A    between atoms: C_6  and  N_7
REMARK    6  A    between atoms: C_6  and  C_18
REMARK    7  A    between atoms: N_10  and  C_11
REMARK                            x       y       z     vdW  Elec       q    Type
REMARK                         _______ _______ _______ _____ _____    ______ ____
ROOT
ATOM      1  C   UNL     1       6.834   6.097  17.463  0.00  0.00    +0.000 C 
ENDROOT
BRANCH   1   2
ATOM      2  N   UNL     1       7.108   7.509  17.223  0.00  0.00    +0.000 N 
ATOM      3  C   UNL     1       8.030   8.160  18.000  0.00  0.00    +0.000 C 
ATOM      4  O   UNL     1       8.663   7.575  18.876  0.00  0.00    +0.000 OA
ATOM      5  N   UNL     1       8.118   9.510  17.742  0.00  0.00    +0.000 N 
ATOM      6  H   UNL     1       6.562   7.987  16.522  0.00  0.00    +0.000 HD
ATOM      7  H   UNL     1       7.266   9.943  17.417  0.00  0.00    +0.000 HD
BRANCH   5   8
ATOM      8  C   UNL     1       9.029  10.336  18.444  0.00  0.00    +0.000 A 
ATOM      9  C   UNL     1      10.178  10.790  17.794  0.00  0.00    +0.000 A 
ATOM     10  C   UNL     1      11.044  11.686  18.431  0.00  0.00    +0.000 A 
ATOM     11  C   UNL     1      10.796  12.082  19.744  0.00  0.00    +0.000 A 
ATOM     12  C   UNL     1       9.681  11.584  20.416  0.00  0.00    +0.000 A 
ATOM     13 CL   UNL     1       9.405  12.026  22.056  0.00  0.00    +0.000 Cl
ATOM     14  C   UNL     1       8.790  10.725  19.769  0.00  0.00    +0.000 A 
ENDBRANCH   5   8
ENDBRANCH   1   2
BRANCH   1  15
ATOM     15  C   UNL     1       6.585   5.325  16.175  0.00  0.00    +0.000 A 
ATOM     16  C   UNL     1       7.271   5.696  15.006  0.00  0.00    +0.000 A 
ATOM     17  C   UNL     1       7.129   4.957  13.831  0.00  0.00    +0.000 A 
ATOM     18  C   UNL     1       6.290   3.846  13.807  0.00  0.00    +0.000 A 
ATOM     19  C   UNL     1       5.586   3.479  14.952  0.00  0.00    +0.000 A 
ATOM     20  C   UNL     1       5.730   4.213  16.132  0.00  0.00    +0.000 A 
ENDBRANCH   1  15
BRANCH   1  22
ATOM     21  N   UNL     1       4.432   6.248  17.965  0.00  0.00    +0.000 N 
ATOM     22  C   UNL     1       5.670   5.870  18.464  0.00  0.00    +0.000 C 
ATOM     23  O   UNL     1       5.843   5.413  19.594  0.00  0.00    +0.000 OA
ATOM     24  H   UNL     1       4.377   6.502  16.989  0.00  0.00    +0.000 HD
BRANCH  21  26
ATOM     25  C   UNL     1       2.222   5.185  18.070  0.00  0.00    +0.000 C 
ATOM     26  C   UNL     1       3.195   6.159  18.728  0.00  0.00    +0.000 C 
BRANCH  26  27
ATOM     27  C   UNL     1       2.495   7.503  18.887  0.00  0.00    +0.000 A 
ATOM     28  C   UNL     1       1.871   7.797  20.111  0.00  0.00    +0.000 A 
ATOM     29  C   UNL     1       1.048   8.917  20.246  0.00  0.00    +0.000 A 
ATOM     30  C   UNL     1       0.847   9.769  19.164  0.00  0.00    +0.000 A 
ATOM     31  C   UNL     1       1.493   9.518  17.956  0.00  0.00    +0.000 A 
ATOM     32  C   UNL     1       2.312   8.394  17.816  0.00  0.00    +0.000 A 
ENDBRANCH  26  27
ENDBRANCH  21  26
ENDBRANCH   1  22
TORSDOF 6
ENDMDL
MODEL 6
REMARK VINA RESULT:      -9.0      0.982      1.308
REMARK  Name = 
REMARK  7 active torsions:
REMARK  status: ('A' for Active; 'I' for Inactive)
REMARK    1  A    between atoms: C_1  and  C_2
REMARK    2  A    between atoms: C_2  and  N_3
REMARK    3  A    between atoms: C_2  and  C_24
REMARK    4  A    between atoms: C_4  and  C_6
REMARK    5  A    between atoms: C_6  and  N_7
REMARK    6  A    between atoms: C_6  and  C_18
REMARK    7  A    between atoms: N_10  and  C_11
REMARK                            x       y       z     vdW  Elec       q    Type
REMARK                         _______ _______ _______ _____ _____    ______ ____
ROOT
ATOM      1  C   UNL     1       6.510   6.166  17.517  0.00  0.00    +0.000 C 
ENDROOT
BRANCH   1   2
ATOM      2  N   UNL     1       6.845   7.562  17.258  0.00  0.00    +0.000 N 
ATOM      3  C   UNL     1       7.844   8.163  17.979  0.00  0.00    +0.000 C 
ATOM      4  O   UNL     1       8.493   7.544  18.819  0.00  0.00    +0.000 OA
ATOM      5  N   UNL     1       7.989   9.505  17.712  0.00  0.00    +0.000 N 
ATOM      6  H   UNL     1       6.286   8.069  16.588  0.00  0.00    +0.000 HD
ATOM      7  H   UNL     1       7.144   9.984  17.435  0.00  0.00    +0.000 HD
BRANCH   5   8
ATOM      8  C   UNL     1       8.982  10.282  18.359  0.00  0.00    +0.000 A 
ATOM      9  C   UNL     1      10.121  10.660  17.647  0.00  0.00    +0.000 A 
ATOM     10  C   UNL     1      11.070  11.508  18.230  0.00  0.00    +0.000 A 
ATOM     11  C   UNL     1      10.912  11.930  19.550  0.00  0.00    +0.000 A 
ATOM     12  C   UNL     1       9.804  11.504  20.282  0.00  0.00    +0.000 A 
ATOM     13 CL   UNL     1       9.638  11.976  21.928  0.00  0.00    +0.000 Cl
ATOM     14  C   UNL     1       8.833  10.695  19.690  0.00  0.00    +0.000 A 
ENDBRANCH   5   8
ENDBRANCH   1   2
BRANCH   1  15
ATOM     15  C   UNL     1       6.495   5.326  16.247  0.00  0.00    +0.000 A 
ATOM     16  C   UNL     1       5.700   4.169  16.196  0.00  0.00    +0.000 A 
ATOM     17  C   UNL     1       5.600   3.425  15.020  0.00  0.00    +0.000 A 
ATOM     18  C   UNL     1       6.303   3.820  13.885  0.00  0.00    +0.000 A 
ATOM     19  C   UNL     1       7.112   4.953  13.927  0.00  0.00    +0.000 A 
ATOM     20  C   UNL     1       7.211   5.705  15.101  0.00  0.00    +0.000 A 
ENDBRANCH   1  15
BRANCH   1  22
ATOM     21  N   UNL     1       4.069   6.446  17.586  0.00  0.00    +0.000 N 
ATOM     22  C   UNL     1       5.176   6.001  18.292  0.00  0.00    +0.000 C 
ATOM     23  O   UNL     1       5.120   5.532  19.430  0.00  0.00    +0.000 OA
ATOM     24  H   UNL     1       4.201   6.705  16.618  0.00  0.00    +0.000 HD
BRANCH  21  26
ATOM     25  C   UNL     1       2.555   7.435  19.247  0.00  0.00    +0.000 C 
ATOM     26  C   UNL     1       2.713   6.422  18.115  0.00  0.00    +0.000 C 
BRANCH  26  27
ATOM     27  C   UNL     1       2.300   5.051  18.637  0.00  0.00    +0.000 A 
ATOM     28  C   UNL     1       2.298   3.964  17.747  0.00  0.00    +0.000 A 
ATOM     29  C   UNL     1       1.741   2.737  18.114  0.00  0.00    +0.000 A 
ATOM     30  C   UNL     1       1.188   2.574  19.381  0.00  0.00    +0.000 A 
ATOM     31  C   UNL     1       1.222   3.627  20.292  0.00  0.00    +0.000 A 
ATOM     32  C   UNL     1       1.774   4.857  19.925  0.00  0.00    +0.000 A 
ENDBRANCH  26  27
ENDBRANCH  21  26
ENDBRANCH   1  22
TORSDOF 6
ENDMDL
MODEL 7
REMARK VINA RESULT:      -9.0      3.641      7.361
REMARK  Name = 
REMARK  7 active torsions:
REMARK  status: ('A' for Active; 'I' for Inactive)
REMARK    1  A    between atoms: C_1  and  C_2
REMARK    2  A    between atoms: C_2  and  N_3
REMARK    3  A    between atoms: C_2  and  C_24
REMARK    4  A    between atoms: C_4  and  C_6
REMARK    5  A    between atoms: C_6  and  N_7
REMARK    6  A    between atoms: C_6  and  C_18
REMARK    7  A    between atoms: N_10  and  C_11
REMARK                            x       y       z     vdW  Elec       q    Type
REMARK                         _______ _______ _______ _____ _____    ______ ____
ROOT
ATOM      1  C   UNL     1       3.075   5.857  19.119  0.00  0.00    +0.000 C 
ENDROOT
BRANCH   1   2
ATOM      2  N   UNL     1       2.794   6.547  20.373  0.00  0.00    +0.000 N 
ATOM      3  C   UNL     1       1.911   7.594  20.386  0.00  0.00    +0.000 C 
ATOM      4  O   UNL     1       1.317   7.949  19.370  0.00  0.00    +0.000 OA
ATOM      5  N   UNL     1       1.815   8.224  21.606  0.00  0.00    +0.000 N 
ATOM      6  H   UNL     1       3.309   6.267  21.194  0.00  0.00    +0.000 HD
ATOM      7  H   UNL     1       2.653   8.201  22.169  0.00  0.00    +0.000 HD
BRANCH   5   8
ATOM      8  C   UNL     1       0.940   9.320  21.804  0.00  0.00    +0.000 A 
ATOM      9  C   UNL     1      -0.004   9.262  22.830  0.00  0.00    +0.000 A 
ATOM     10  C   UNL     1      -0.814  10.368  23.109  0.00  0.00    +0.000 A 
ATOM     11  C   UNL     1      -0.724  11.515  22.322  0.00  0.00    +0.000 A 
ATOM     12  C   UNL     1       0.177  11.554  21.259  0.00  0.00    +0.000 A 
ATOM     13 CL   UNL     1       0.247  12.946  20.251  0.00  0.00    +0.000 Cl
ATOM     14  C   UNL     1       1.018  10.469  21.005  0.00  0.00    +0.000 A 
ENDBRANCH   5   8
ENDBRANCH   1   2
BRANCH   1  15
ATOM     15  C   UNL     1       2.353   4.521  19.015  0.00  0.00    +0.000 A 
ATOM     16  C   UNL     1       1.326   4.219  19.925  0.00  0.00    +0.000 A 
ATOM     17  C   UNL     1       0.590   3.041  19.805  0.00  0.00    +0.000 A 
ATOM     18  C   UNL     1       0.878   2.143  18.780  0.00  0.00    +0.000 A 
ATOM     19  C   UNL     1       1.907   2.418  17.883  0.00  0.00    +0.000 A 
ATOM     20  C   UNL     1       2.644   3.600  17.996  0.00  0.00    +0.000 A 
ENDBRANCH   1  15
BRANCH   1  22
ATOM     21  N   UNL     1       4.938   5.779  17.518  0.00  0.00    +0.000 N 
ATOM     22  C   UNL     1       4.593   5.675  18.857  0.00  0.00    +0.000 C 
ATOM     23  O   UNL     1       5.401   5.445  19.757  0.00  0.00    +0.000 OA
ATOM     24  H   UNL     1       4.225   6.083  16.871  0.00  0.00    +0.000 HD
BRANCH  21  26
ATOM     25  C   UNL     1       7.090   6.910  17.174  0.00  0.00    +0.000 C 
ATOM     26  C   UNL     1       6.297   5.615  17.021  0.00  0.00    +0.000 C 
BRANCH  26  27
ATOM     27  C   UNL     1       6.350   5.189  15.559  0.00  0.00    +0.000 A 
ATOM     28  C   UNL     1       5.303   4.403  15.048  0.00  0.00    +0.000 A 
ATOM     29  C   UNL     1       5.396   3.819  13.783  0.00  0.00    +0.000 A 
ATOM     30  C   UNL     1       6.531   4.023  13.003  0.00  0.00    +0.000 A 
ATOM     31  C   UNL     1       7.559   4.836  13.475  0.00  0.00    +0.000 A 
ATOM     32  C   UNL     1       7.471   5.416  14.743  0.00  0.00    +0.000 A 
ENDBRANCH  26  27
ENDBRANCH  21  26
ENDBRANCH   1  22
TORSDOF 6
ENDMDL
MODEL 8
REMARK VINA RESULT:      -9.0      4.063      7.452
REMARK  Name = 
REMARK  7 active torsions:
REMARK  status: ('A' for Active; 'I' for Inactive)
REMARK    1  A    between atoms: C_1  and  C_2
REMARK    2  A    between atoms: C_2  and  N_3
REMARK    3  A    between atoms: C_2  and  C_24
REMARK    4  A    between atoms: C_4  and  C_6
REMARK    5  A    between atoms: C_6  and  N_7
REMARK    6  A    between atoms: C_6  and  C_18
REMARK    7  A    between atoms: N_10  and  C_11
REMARK                            x       y       z     vdW  Elec       q    Type
REMARK                         _______ _______ _______ _____ _____    ______ ____
ROOT
ATOM      1  C   UNL     1       2.502   6.196  19.190  0.00  0.00    +0.000 C 
ENDROOT
BRANCH   1   2
ATOM      2  N   UNL     1       2.438   7.011  20.398  0.00  0.00    +0.000 N 
ATOM      3  C   UNL     1       1.516   8.021  20.484  0.00  0.00    +0.000 C 
ATOM      4  O   UNL     1       0.711   8.238  19.581  0.00  0.00    +0.000 OA
ATOM      5  N   UNL     1       1.630   8.779  21.628  0.00  0.00    +0.000 N 
ATOM      6  H   UNL     1       3.122   6.844  21.120  0.00  0.00    +0.000 HD
ATOM      7  H   UNL     1       2.563   8.850  22.006  0.00  0.00    +0.000 HD
BRANCH   5   8
ATOM      8  C   UNL     1       0.750   9.858  21.888  0.00  0.00    +0.000 A 
ATOM      9  C   UNL     1      -0.253   9.703  22.846  0.00  0.00    +0.000 A 
ATOM     10  C   UNL     1      -1.073  10.784  23.192  0.00  0.00    +0.000 A 
ATOM     11  C   UNL     1      -0.933  12.005  22.535  0.00  0.00    +0.000 A 
ATOM     12  C   UNL     1       0.029  12.144  21.535  0.00  0.00    +0.000 A 
ATOM     13 CL   UNL     1       0.164  13.632  20.683  0.00  0.00    +0.000 Cl
ATOM     14  C   UNL     1       0.879  11.082  21.218  0.00  0.00    +0.000 A 
ENDBRANCH   5   8
ENDBRANCH   1   2
BRANCH   1  15
ATOM     15  C   UNL     1       1.899   4.812  19.388  0.00  0.00    +0.000 A 
ATOM     16  C   UNL     1       1.643   4.004  18.268  0.00  0.00    +0.000 A 
ATOM     17  C   UNL     1       1.171   2.701  18.422  0.00  0.00    +0.000 A 
ATOM     18  C   UNL     1       0.936   2.193  19.696  0.00  0.00    +0.000 A 
ATOM     19  C   UNL     1       1.164   2.990  20.816  0.00  0.00    +0.000 A 
ATOM     20  C   UNL     1       1.643   4.294  20.667  0.00  0.00    +0.000 A 
ENDBRANCH   1  15
BRANCH   1  22
ATOM     21  N   UNL     1       4.615   4.951  19.036  0.00  0.00    +0.000 N 
ATOM     22  C   UNL     1       3.938   6.084  18.613  0.00  0.00    +0.000 C 
ATOM     23  O   UNL     1       4.423   6.934  17.865  0.00  0.00    +0.000 OA
ATOM     24  H   UNL     1       4.094   4.258  19.554  0.00  0.00    +0.000 HD
BRANCH  21  26
ATOM     25  C   UNL     1       6.937   5.748  19.105  0.00  0.00    +0.000 C 
ATOM     26  C   UNL     1       5.986   4.642  18.655  0.00  0.00    +0.000 C 
BRANCH  26  27
ATOM     27  C   UNL     1       6.156   4.444  17.153  0.00  0.00    +0.000 A 
ATOM     28  C   UNL     1       7.287   4.994  16.525  0.00  0.00    +0.000 A 
ATOM     29  C   UNL     1       7.394   5.019  15.133  0.00  0.00    +0.000 A 
ATOM     30  C   UNL     1       6.378   4.483  14.347  0.00  0.00    +0.000 A 
ATOM     31  C   UNL     1       5.271   3.893  14.952  0.00  0.00    +0.000 A 
ATOM     32  C   UNL     1       5.159   3.872  16.345  0.00  0.00    +0.000 A 
ENDBRANCH  26  27
ENDBRANCH  21  26
ENDBRANCH   1  22
TORSDOF 6
ENDMDL
MODEL 9
REMARK VINA RESULT:      -9.0      4.060      7.515
REMARK  Name = 
REMARK  7 active torsions:
REMARK  status: ('A' for Active; 'I' for Inactive)
REMARK    1  A    between atoms: C_1  and  C_2
REMARK    2  A    between atoms: C_2  and  N_3
REMARK    3  A    between atoms: C_2  and  C_24
REMARK    4  A    between atoms: C_4  and  C_6
REMARK    5  A    between atoms: C_6  and  N_7
REMARK    6  A    between atoms: C_6  and  C_18
REMARK    7  A    between atoms: N_10  and  C_11
REMARK                            x       y       z     vdW  Elec       q    Type
REMARK                         _______ _______ _______ _____ _____    ______ ____
ROOT
ATOM      1  C   UNL     1       2.834   6.117  18.471  0.00  0.00    +0.000 C 
ENDROOT
BRANCH   1   2
ATOM      2  N   UNL     1       2.509   7.267  19.308  0.00  0.00    +0.000 N 
ATOM      3  C   UNL     1       1.792   8.308  18.779  0.00  0.00    +0.000 C 
ATOM      4  O   UNL     1       1.382   8.284  17.620  0.00  0.00    +0.000 OA
ATOM      5  N   UNL     1       1.645   9.373  19.638  0.00  0.00    +0.000 N 
ATOM      6  H   UNL     1       2.877   7.290  20.248  0.00  0.00    +0.000 HD
ATOM      7  H   UNL     1       2.397   9.501  20.299  0.00  0.00    +0.000 HD
BRANCH   5   8
ATOM      8  C   UNL     1       0.921  10.531  19.260  0.00  0.00    +0.000 A 
ATOM      9  C   UNL     1       1.620  11.692  18.929  0.00  0.00    +0.000 A 
ATOM     10  C   UNL     1       0.937  12.819  18.458  0.00  0.00    +0.000 A 
ATOM     11  C   UNL     1      -0.455  12.807  18.376  0.00  0.00    +0.000 A 
ATOM     12  C   UNL     1      -1.159  11.668  18.762  0.00  0.00    +0.000 A 
ATOM     13 CL   UNL     1      -2.879  11.672  18.717  0.00  0.00    +0.000 Cl
ATOM     14  C   UNL     1      -0.478  10.526  19.190  0.00  0.00    +0.000 A 
ENDBRANCH   5   8
ENDBRANCH   1   2
BRANCH   1  15
ATOM     15  C   UNL     1       2.068   4.866  18.878  0.00  0.00    +0.000 A 
ATOM     16  C   UNL     1       1.917   3.819  17.955  0.00  0.00    +0.000 A 
ATOM     17  C   UNL     1       1.295   2.626  18.324  0.00  0.00    +0.000 A 
ATOM     18  C   UNL     1       0.804   2.470  19.617  0.00  0.00    +0.000 A 
ATOM     19  C   UNL     1       0.926   3.508  20.538  0.00  0.00    +0.000 A 
ATOM     20  C   UNL     1       1.555   4.702  20.174  0.00  0.00    +0.000 A 
ENDBRANCH   1  15
BRANCH   1  22
ATOM     21  N   UNL     1       4.854   5.757  17.119  0.00  0.00    +0.000 N 
ATOM     22  C   UNL     1       4.356   5.825  18.412  0.00  0.00    +0.000 C 
ATOM     23  O   UNL     1       5.043   5.658  19.420  0.00  0.00    +0.000 OA
ATOM     24  H   UNL     1       4.239   6.023  16.363  0.00  0.00    +0.000 HD
BRANCH  21  26
ATOM     25  C   UNL     1       7.103   6.722  16.924  0.00  0.00    +0.000 C 
ATOM     26  C   UNL     1       6.246   5.465  16.806  0.00  0.00    +0.000 C 
BRANCH  26  27
ATOM     27  C   UNL     1       6.434   4.885  15.410  0.00  0.00    +0.000 A 
ATOM     28  C   UNL     1       7.498   5.356  14.622  0.00  0.00    +0.000 A 
ATOM     29  C   UNL     1       7.599   5.012  13.273  0.00  0.00    +0.000 A 
ATOM     30  C   UNL     1       6.645   4.181  12.692  0.00  0.00    +0.000 A 
ATOM     31  C   UNL     1       5.608   3.668  13.468  0.00  0.00    +0.000 A 
ATOM     32  C   UNL     1       5.502   4.016  14.817  0.00  0.00    +0.000 A 
ENDBRANCH  26  27
ENDBRANCH  21  26
ENDBRANCH   1  22
TORSDOF 6
ENDMDL
