MODEL 1
REMARK VINA RESULT:      -4.8      0.000      0.000
REMARK  Name = 
REMARK  1 active torsions:
REMARK  status: ('A' for Active; 'I' for Inactive)
REMARK    1  A    between atoms: C_1  and  C_2
REMARK                            x       y       z     vdW  Elec       q    Type
REMARK                         _______ _______ _______ _____ _____    ______ ____
ROOT
ATOM      1  C   UNL     1       1.533   4.235  17.905  0.00  0.00    +0.000 C 
ATOM      2  C   UNL     1       1.695   2.993  18.789  0.00  0.00    +0.000 C 
ATOM      3  C   UNL     1       1.019   3.195  20.142  0.00  0.00    +0.000 C 
ATOM      4  C   UNL     1       1.856   3.121  21.406  0.00  0.00    +0.000 C 
ATOM      5  N   UNL     1       3.209   2.610  21.295  0.00  0.00    +0.000 NA
ATOM      6  C   UNL     1       3.771   2.362  20.178  0.00  0.00    +0.000 C 
ATOM      7  N   UNL     1       5.062   1.907  20.201  0.00  0.00    +0.000 N 
ATOM      8  C   UNL     1       3.149   2.553  18.823  0.00  0.00    +0.000 C 
ATOM      9  H   UNL     1       5.515   2.075  21.093  0.00  0.00    +0.000 HD
ATOM     10  H   UNL     1       5.643   2.097  19.396  0.00  0.00    +0.000 HD
ENDROOT
TORSDOF 0
ENDMDL
MODEL 2
REMARK VINA RESULT:      -4.6      1.265      2.269
REMARK  Name = 
REMARK  1 active torsions:
REMARK  status: ('A' for Active; 'I' for Inactive)
REMARK    1  A    between atoms: C_1  and  C_2
REMARK                            x       y       z     vdW  Elec       q    Type
REMARK                         _______ _______ _______ _____ _____    ______ ____
ROOT
ATOM      1  C   UNL     1       0.909   4.099  20.442  0.00  0.00    +0.000 C 
ATOM      2  C   UNL     1       2.124   4.061  19.509  0.00  0.00    +0.000 C 
ATOM      3  C   UNL     1       1.746   3.497  18.143  0.00  0.00    +0.000 C 
ATOM      4  C   UNL     1       2.432   2.237  17.646  0.00  0.00    +0.000 C 
ATOM      5  N   UNL     1       3.596   1.767  18.372  0.00  0.00    +0.000 NA
ATOM      6  C   UNL     1       3.978   2.271  19.480  0.00  0.00    +0.000 C 
ATOM      7  N   UNL     1       5.078   1.723  20.083  0.00  0.00    +0.000 N 
ATOM      8  C   UNL     1       3.306   3.403  20.204  0.00  0.00    +0.000 C 
ATOM      9  H   UNL     1       5.304   0.805  19.715  0.00  0.00    +0.000 HD
ATOM     10  H   UNL     1       5.149   1.798  21.089  0.00  0.00    +0.000 HD
ENDROOT
TORSDOF 0
ENDMDL
MODEL 3
REMARK VINA RESULT:      -4.6      1.878      2.764
REMARK  Name = 
REMARK  1 active torsions:
REMARK  status: ('A' for Active; 'I' for Inactive)
REMARK    1  A    between atoms: C_1  and  C_2
REMARK                            x       y       z     vdW  Elec       q    Type
REMARK                         _______ _______ _______ _____ _____    ______ ____
ROOT
ATOM      1  C   UNL     1       0.994   3.921  20.447  0.00  0.00    +0.000 C 
ATOM      2  C   UNL     1       1.902   4.533  19.375  0.00  0.00    +0.000 C 
ATOM      3  C   UNL     1       1.541   4.008  17.989  0.00  0.00    +0.000 C 
ATOM      4  C   UNL     1       2.586   3.252  17.189  0.00  0.00    +0.000 C 
ATOM      5  N   UNL     1       3.956   3.282  17.663  0.00  0.00    +0.000 NA
ATOM      6  C   UNL     1       4.295   3.783  18.785  0.00  0.00    +0.000 C 
ATOM      7  N   UNL     1       5.618   3.728  19.134  0.00  0.00    +0.000 N 
ATOM      8  C   UNL     1       3.361   4.408  19.782  0.00  0.00    +0.000 C 
ATOM      9  H   UNL     1       6.136   3.055  18.579  0.00  0.00    +0.000 HD
ATOM     10  H   UNL     1       5.845   3.721  20.119  0.00  0.00    +0.000 HD
ENDROOT
TORSDOF 0
ENDMDL
MODEL 4
REMARK VINA RESULT:      -4.6      2.445      3.551
REMARK  Name = 
REMARK  1 active torsions:
REMARK  status: ('A' for Active; 'I' for Inactive)
REMARK    1  A    between atoms: C_1  and  C_2
REMARK                            x       y       z     vdW  Elec       q    Type
REMARK                         _______ _______ _______ _____ _____    ______ ____
ROOT
ATOM      1  C   UNL     1       1.641   2.553  21.571  0.00  0.00    +0.000 C 
ATOM      2  C   UNL     1       1.064   3.585  20.596  0.00  0.00    +0.000 C 
ATOM      3  C   UNL     1       1.018   3.030  19.176  0.00  0.00    +0.000 C 
ATOM      4  C   UNL     1       1.798   3.734  18.080  0.00  0.00    +0.000 C 
ATOM      5  N   UNL     1       2.345   5.045  18.372  0.00  0.00    +0.000 NA
ATOM      6  C   UNL     1       2.328   5.565  19.536  0.00  0.00    +0.000 C 
ATOM      7  N   UNL     1       2.898   6.800  19.692  0.00  0.00    +0.000 N 
ATOM      8  C   UNL     1       1.759   4.926  20.772  0.00  0.00    +0.000 C 
ATOM      9  H   UNL     1       3.508   7.043  18.919  0.00  0.00    +0.000 HD
ATOM     10  H   UNL     1       3.265   7.037  20.603  0.00  0.00    +0.000 HD
ENDROOT
TORSDOF 0
ENDMDL
MODEL 5
REMARK VINA RESULT:      -4.6      1.714      2.571
REMARK  Name = 
REMARK  1 active torsions:
REMARK  status: ('A' for Active; 'I' for Inactive)
REMARK    1  A    between atoms: C_1  and  C_2
REMARK                            x       y       z     vdW  Elec       q    Type
REMARK                         _______ _______ _______ _____ _____    ______ ____
ROOT
ATOM      1  C   UNL     1       1.371   2.740  21.409  0.00  0.00    +0.000 C 
ATOM      2  C   UNL     1       1.818   3.463  20.134  0.00  0.00    +0.000 C 
ATOM      3  C   UNL     1       1.284   2.758  18.891  0.00  0.00    +0.000 C 
ATOM      4  C   UNL     1       2.266   2.212  17.871  0.00  0.00    +0.000 C 
ATOM      5  N   UNL     1       3.657   2.605  17.989  0.00  0.00    +0.000 NA
ATOM      6  C   UNL     1       4.114   3.260  18.983  0.00  0.00    +0.000 C 
ATOM      7  N   UNL     1       5.452   3.550  18.994  0.00  0.00    +0.000 N 
ATOM      8  C   UNL     1       3.315   3.722  20.169  0.00  0.00    +0.000 C 
ATOM      9  H   UNL     1       5.977   2.978  18.341  0.00  0.00    +0.000 HD
ATOM     10  H   UNL     1       5.899   3.675  19.892  0.00  0.00    +0.000 HD
ENDROOT
TORSDOF 0
ENDMDL
MODEL 6
REMARK VINA RESULT:      -4.5      1.797      2.469
REMARK  Name = 
REMARK  1 active torsions:
REMARK  status: ('A' for Active; 'I' for Inactive)
REMARK    1  A    between atoms: C_1  and  C_2
REMARK                            x       y       z     vdW  Elec       q    Type
REMARK                         _______ _______ _______ _____ _____    ______ ____
ROOT
ATOM      1  C   UNL     1       1.598   4.293  17.724  0.00  0.00    +0.000 C 
ATOM      2  C   UNL     1       2.477   4.419  18.973  0.00  0.00    +0.000 C 
ATOM      3  C   UNL     1       3.488   5.550  18.818  0.00  0.00    +0.000 C 
ATOM      4  C   UNL     1       4.971   5.232  18.882  0.00  0.00    +0.000 C 
ATOM      5  N   UNL     1       5.363   3.914  19.343  0.00  0.00    +0.000 NA
ATOM      6  C   UNL     1       4.530   2.972  19.553  0.00  0.00    +0.000 C 
ATOM      7  N   UNL     1       5.024   1.763  19.962  0.00  0.00    +0.000 N 
ATOM      8  C   UNL     1       3.042   3.062  19.362  0.00  0.00    +0.000 C 
ATOM      9  H   UNL     1       6.020   1.675  19.792  0.00  0.00    +0.000 HD
ATOM     10  H   UNL     1       4.489   0.935  19.738  0.00  0.00    +0.000 HD
ENDROOT
TORSDOF 0
ENDMDL
MODEL 7
REMARK VINA RESULT:      -4.5      1.524      2.151
REMARK  Name = 
REMARK  1 active torsions:
REMARK  status: ('A' for Active; 'I' for Inactive)
REMARK    1  A    between atoms: C_1  and  C_2
REMARK                            x       y       z     vdW  Elec       q    Type
REMARK                         _______ _______ _______ _____ _____    ______ ____
ROOT
ATOM      1  C   UNL     1       3.236   6.063  18.020  0.00  0.00    +0.000 C 
ATOM      2  C   UNL     1       3.281   4.579  17.640  0.00  0.00    +0.000 C 
ATOM      3  C   UNL     1       1.886   3.962  17.679  0.00  0.00    +0.000 C 
ATOM      4  C   UNL     1       1.613   2.806  18.623  0.00  0.00    +0.000 C 
ATOM      5  N   UNL     1       2.749   2.168  19.260  0.00  0.00    +0.000 NA
ATOM      6  C   UNL     1       3.939   2.621  19.181  0.00  0.00    +0.000 C 
ATOM      7  N   UNL     1       4.924   1.945  19.849  0.00  0.00    +0.000 N 
ATOM      8  C   UNL     1       4.356   3.859  18.438  0.00  0.00    +0.000 C 
ATOM      9  H   UNL     1       4.552   1.313  20.550  0.00  0.00    +0.000 HD
ATOM     10  H   UNL     1       5.736   2.469  20.147  0.00  0.00    +0.000 HD
ENDROOT
TORSDOF 0
ENDMDL
MODEL 8
REMARK VINA RESULT:      -4.5      1.923      2.444
REMARK  Name = 
REMARK  1 active torsions:
REMARK  status: ('A' for Active; 'I' for Inactive)
REMARK    1  A    between atoms: C_1  and  C_2
REMARK                            x       y       z     vdW  Elec       q    Type
REMARK                         _______ _______ _______ _____ _____    ______ ____
ROOT
ATOM      1  C   UNL     1       2.487   2.762  17.430  0.00  0.00    +0.000 C 
ATOM      2  C   UNL     1       1.587   3.473  18.445  0.00  0.00    +0.000 C 
ATOM      3  C   UNL     1       2.025   4.921  18.645  0.00  0.00    +0.000 C 
ATOM      4  C   UNL     1       2.453   5.381  20.026  0.00  0.00    +0.000 C 
ATOM      5  N   UNL     1       2.186   4.501  21.148  0.00  0.00    +0.000 NA
ATOM      6  C   UNL     1       1.748   3.312  21.012  0.00  0.00    +0.000 C 
ATOM      7  N   UNL     1       1.559   2.569  22.147  0.00  0.00    +0.000 N 
ATOM      8  C   UNL     1       1.444   2.635  19.705  0.00  0.00    +0.000 C 
ATOM      9  H   UNL     1       2.045   2.958  22.948  0.00  0.00    +0.000 HD
ATOM     10  H   UNL     1       1.624   1.563  22.067  0.00  0.00    +0.000 HD
ENDROOT
TORSDOF 0
ENDMDL
MODEL 9
REMARK VINA RESULT:      -4.5      4.936      5.778
REMARK  Name = 
REMARK  1 active torsions:
REMARK  status: ('A' for Active; 'I' for Inactive)
REMARK    1  A    between atoms: C_1  and  C_2
REMARK                            x       y       z     vdW  Elec       q    Type
REMARK                         _______ _______ _______ _____ _____    ______ ____
ROOT
ATOM      1  C   UNL     1       4.171   6.853  17.395  0.00  0.00    +0.000 C 
ATOM      2  C   UNL     1       4.784   5.515  16.968  0.00  0.00    +0.000 C 
ATOM      3  C   UNL     1       5.615   4.910  18.095  0.00  0.00    +0.000 C 
ATOM      4  C   UNL     1       7.094   4.655  17.869  0.00  0.00    +0.000 C 
ATOM      5  N   UNL     1       7.601   4.756  16.514  0.00  0.00    +0.000 NA
ATOM      6  C   UNL     1       6.903   5.188  15.538  0.00  0.00    +0.000 C 
ATOM      7  N   UNL     1       7.501   5.261  14.309  0.00  0.00    +0.000 N 
ATOM      8  C   UNL     1       5.477   5.655  15.622  0.00  0.00    +0.000 C 
ATOM      9  H   UNL     1       8.513   5.217  14.369  0.00  0.00    +0.000 HD
ATOM     10  H   UNL     1       7.151   5.948  13.656  0.00  0.00    +0.000 HD
ENDROOT
TORSDOF 0
ENDMDL
