MODEL 1
REMARK VINA RESULT:      -7.9      0.000      0.000
REMARK  Name = 
REMARK  5 active torsions:
REMARK  status: ('A' for Active; 'I' for Inactive)
REMARK    1  A    between atoms: C_1  and  C_2
REMARK    2  A    between atoms: C_6  and  O_7
REMARK    3  A    between atoms: O_7  and  C_8
REMARK    4  A    between atoms: C_8  and  C_9
REMARK    5  A    between atoms: C_9  and  N_10
REMARK                            x       y       z     vdW  Elec       q    Type
REMARK                         _______ _______ _______ _____ _____    ______ ____
ROOT
ATOM      1  N   UNL     1       1.718   8.569  19.279  0.00  0.00    +0.000 N 
ATOM      2  N   UNL     1       2.375   8.721  18.065  0.00  0.00    +0.000 NA
ATOM      3  N   UNL     1       3.064   7.793  17.581  0.00  0.00    +0.000 NA
ATOM      4  C   UNL     1       3.152   6.625  18.252  0.00  0.00    +0.000 A 
ATOM      5  S   UNL     1       4.067   5.306  17.674  0.00  0.00    +0.000 S 
ATOM      6  C   UNL     1       3.648   4.359  19.023  0.00  0.00    +0.000 A 
ATOM      7  C   UNL     1       2.802   5.019  19.899  0.00  0.00    +0.000 A 
ATOM      8  C   UNL     1       2.544   6.348  19.449  0.00  0.00    +0.000 A 
ATOM      9  C   UNL     1       1.763   7.405  20.045  0.00  0.00    +0.000 A 
ATOM     10  O   UNL     1       1.196   7.280  21.127  0.00  0.00    +0.000 OA
ATOM     11  C   UNL     1       2.288   4.381  21.151  0.00  0.00    +0.000 C 
ATOM     12  C   UNL     1       2.493   2.860  21.135  0.00  0.00    +0.000 C 
ATOM     13  C   UNL     1       3.899   2.486  20.643  0.00  0.00    +0.000 C 
ATOM     14  C   UNL     1       4.131   2.952  19.196  0.00  0.00    +0.000 C 
ENDROOT
BRANCH   1  15
ATOM     15  C   UNL     1       0.942   9.710  19.765  0.00  0.00    +0.000 C 
BRANCH  15  16
ATOM     16  C   UNL     1       0.115  10.372  18.670  0.00  0.00    +0.000 C 
BRANCH  16  17
ATOM     17  O   UNL     1      -1.193  10.737  19.110  0.00  0.00    +0.000 OA
BRANCH  17  23
ATOM     18  C   UNL     1      -5.500  12.228  17.135  0.00  0.00    +0.000 C 
ATOM     19  C   UNL     1      -4.232  11.430  17.059  0.00  0.00    +0.000 A 
ATOM     20  C   UNL     1      -3.929  10.634  15.954  0.00  0.00    +0.000 A 
ATOM     21  C   UNL     1      -2.740   9.901  15.922  0.00  0.00    +0.000 A 
ATOM     22  C   UNL     1      -1.847   9.959  16.994  0.00  0.00    +0.000 A 
ATOM     23  C   UNL     1      -2.134  10.749  18.106  0.00  0.00    +0.000 A 
ATOM     24  C   UNL     1      -3.327  11.482  18.127  0.00  0.00    +0.000 A 
ENDBRANCH  17  23
ENDBRANCH  16  17
ENDBRANCH  15  16
ENDBRANCH   1  15
TORSDOF 4
ENDMDL
MODEL 2
REMARK VINA RESULT:      -7.8      0.447      1.324
REMARK  Name = 
REMARK  5 active torsions:
REMARK  status: ('A' for Active; 'I' for Inactive)
REMARK    1  A    between atoms: C_1  and  C_2
REMARK    2  A    between atoms: C_6  and  O_7
REMARK    3  A    between atoms: O_7  and  C_8
REMARK    4  A    between atoms: C_8  and  C_9
REMARK    5  A    between atoms: C_9  and  N_10
REMARK                            x       y       z     vdW  Elec       q    Type
REMARK                         _______ _______ _______ _____ _____    ______ ____
ROOT
ATOM      1  N   UNL     1       1.661   8.597  19.288  0.00  0.00    +0.000 N 
ATOM      2  N   UNL     1       2.333   8.731  18.079  0.00  0.00    +0.000 NA
ATOM      3  N   UNL     1       3.027   7.796  17.618  0.00  0.00    +0.000 NA
ATOM      4  C   UNL     1       3.107   6.638  18.308  0.00  0.00    +0.000 A 
ATOM      5  S   UNL     1       4.028   5.311  17.760  0.00  0.00    +0.000 S 
ATOM      6  C   UNL     1       3.593   4.384  19.118  0.00  0.00    +0.000 A 
ATOM      7  C   UNL     1       2.737   5.057  19.973  0.00  0.00    +0.000 A 
ATOM      8  C   UNL     1       2.485   6.379  19.501  0.00  0.00    +0.000 A 
ATOM      9  C   UNL     1       1.697   7.445  20.072  0.00  0.00    +0.000 A 
ATOM     10  O   UNL     1       1.117   7.336  21.149  0.00  0.00    +0.000 OA
ATOM     11  C   UNL     1       2.209   4.438  21.229  0.00  0.00    +0.000 C 
ATOM     12  C   UNL     1       2.413   2.917  21.239  0.00  0.00    +0.000 C 
ATOM     13  C   UNL     1       3.824   2.535  20.768  0.00  0.00    +0.000 C 
ATOM     14  C   UNL     1       4.074   2.980  19.317  0.00  0.00    +0.000 C 
ENDROOT
BRANCH   1  15
ATOM     15  C   UNL     1       0.880   9.746  19.748  0.00  0.00    +0.000 C 
BRANCH  15  16
ATOM     16  C   UNL     1       0.093  10.412  18.626  0.00  0.00    +0.000 C 
BRANCH  16  17
ATOM     17  O   UNL     1      -1.069  11.094  19.096  0.00  0.00    +0.000 OA
BRANCH  17  23
ATOM     18  C   UNL     1      -3.055  10.089  14.655  0.00  0.00    +0.000 C 
ATOM     19  C   UNL     1      -3.171  10.634  16.048  0.00  0.00    +0.000 A 
ATOM     20  C   UNL     1      -4.360  11.189  16.523  0.00  0.00    +0.000 A 
ATOM     21  C   UNL     1      -4.428  11.691  17.826  0.00  0.00    +0.000 A 
ATOM     22  C   UNL     1      -3.309  11.643  18.659  0.00  0.00    +0.000 A 
ATOM     23  C   UNL     1      -2.114  11.093  18.200  0.00  0.00    +0.000 A 
ATOM     24  C   UNL     1      -2.057  10.590  16.895  0.00  0.00    +0.000 A 
ENDBRANCH  17  23
ENDBRANCH  16  17
ENDBRANCH  15  16
ENDBRANCH   1  15
TORSDOF 4
ENDMDL
MODEL 3
REMARK VINA RESULT:      -7.8      5.937      8.865
REMARK  Name = 
REMARK  5 active torsions:
REMARK  status: ('A' for Active; 'I' for Inactive)
REMARK    1  A    between atoms: C_1  and  C_2
REMARK    2  A    between atoms: C_6  and  O_7
REMARK    3  A    between atoms: O_7  and  C_8
REMARK    4  A    between atoms: C_8  and  C_9
REMARK    5  A    between atoms: C_9  and  N_10
REMARK                            x       y       z     vdW  Elec       q    Type
REMARK                         _______ _______ _______ _____ _____    ______ ____
ROOT
ATOM      1  N   UNL     1       6.823   6.645  17.815  0.00  0.00    +0.000 N 
ATOM      2  N   UNL     1       7.641   5.779  18.530  0.00  0.00    +0.000 NA
ATOM      3  N   UNL     1       7.171   4.767  19.099  0.00  0.00    +0.000 NA
ATOM      4  C   UNL     1       5.849   4.514  18.999  0.00  0.00    +0.000 A 
ATOM      5  S   UNL     1       5.118   3.162  19.740  0.00  0.00    +0.000 S 
ATOM      6  C   UNL     1       3.586   3.600  19.145  0.00  0.00    +0.000 A 
ATOM      7  C   UNL     1       3.621   4.747  18.369  0.00  0.00    +0.000 A 
ATOM      8  C   UNL     1       4.942   5.283  18.316  0.00  0.00    +0.000 A 
ATOM      9  C   UNL     1       5.448   6.470  17.670  0.00  0.00    +0.000 A 
ATOM     10  O   UNL     1       4.724   7.248  17.053  0.00  0.00    +0.000 OA
ATOM     11  C   UNL     1       2.396   5.318  17.728  0.00  0.00    +0.000 C 
ATOM     12  C   UNL     1       1.240   4.308  17.718  0.00  0.00    +0.000 C 
ATOM     13  C   UNL     1       1.098   3.601  19.074  0.00  0.00    +0.000 C 
ATOM     14  C   UNL     1       2.358   2.789  19.420  0.00  0.00    +0.000 C 
ENDROOT
BRANCH   1  15
ATOM     15  C   UNL     1       7.462   7.803  17.190  0.00  0.00    +0.000 C 
BRANCH  15  16
ATOM     16  C   UNL     1       8.250   8.650  18.183  0.00  0.00    +0.000 C 
BRANCH  16  17
ATOM     17  O   UNL     1       8.289  10.030  17.823  0.00  0.00    +0.000 OA
BRANCH  17  23
ATOM     18  C   UNL     1      12.250  13.028  17.757  0.00  0.00    +0.000 C 
ATOM     19  C   UNL     1      11.241  12.207  18.506  0.00  0.00    +0.000 A 
ATOM     20  C   UNL     1      11.264  12.104  19.896  0.00  0.00    +0.000 A 
ATOM     21  C   UNL     1      10.311  11.327  20.559  0.00  0.00    +0.000 A 
ATOM     22  C   UNL     1       9.330  10.647  19.834  0.00  0.00    +0.000 A 
ATOM     23  C   UNL     1       9.292  10.738  18.445  0.00  0.00    +0.000 A 
ATOM     24  C   UNL     1      10.250  11.523  17.791  0.00  0.00    +0.000 A 
ENDBRANCH  17  23
ENDBRANCH  16  17
ENDBRANCH  15  16
ENDBRANCH   1  15
TORSDOF 4
ENDMDL
MODEL 4
REMARK VINA RESULT:      -7.8      1.800      2.994
REMARK  Name = 
REMARK  5 active torsions:
REMARK  status: ('A' for Active; 'I' for Inactive)
REMARK    1  A    between atoms: C_1  and  C_2
REMARK    2  A    between atoms: C_6  and  O_7
REMARK    3  A    between atoms: O_7  and  C_8
REMARK    4  A    between atoms: C_8  and  C_9
REMARK    5  A    between atoms: C_9  and  N_10
REMARK                            x       y       z     vdW  Elec       q    Type
REMARK                         _______ _______ _______ _____ _____    ______ ____
ROOT
ATOM      1  N   UNL     1       1.641   8.537  19.451  0.00  0.00    +0.000 N 
ATOM      2  N   UNL     1       1.360   7.684  20.510  0.00  0.00    +0.000 NA
ATOM      3  N   UNL     1       1.840   6.527  20.554  0.00  0.00    +0.000 NA
ATOM      4  C   UNL     1       2.653   6.118  19.557  0.00  0.00    +0.000 A 
ATOM      5  S   UNL     1       3.352   4.562  19.528  0.00  0.00    +0.000 S 
ATOM      6  C   UNL     1       4.143   4.887  18.059  0.00  0.00    +0.000 A 
ATOM      7  C   UNL     1       3.905   6.171  17.597  0.00  0.00    +0.000 A 
ATOM      8  C   UNL     1       3.014   6.866  18.466  0.00  0.00    +0.000 A 
ATOM      9  C   UNL     1       2.458   8.195  18.375  0.00  0.00    +0.000 A 
ATOM     10  O   UNL     1       2.690   8.946  17.430  0.00  0.00    +0.000 OA
ATOM     11  C   UNL     1       4.506   6.690  16.328  0.00  0.00    +0.000 C 
ATOM     12  C   UNL     1       5.660   5.802  15.845  0.00  0.00    +0.000 C 
ATOM     13  C   UNL     1       5.299   4.312  15.931  0.00  0.00    +0.000 C 
ATOM     14  C   UNL     1       5.023   3.883  17.382  0.00  0.00    +0.000 C 
ENDROOT
BRANCH   1  15
ATOM     15  C   UNL     1       1.031   9.866  19.485  0.00  0.00    +0.000 C 
BRANCH  15  16
ATOM     16  C   UNL     1      -0.048  10.048  18.424  0.00  0.00    +0.000 C 
BRANCH  16  17
ATOM     17  O   UNL     1      -1.300  10.455  18.973  0.00  0.00    +0.000 OA
BRANCH  17  23
ATOM     18  C   UNL     1      -3.142  10.048  14.378  0.00  0.00    +0.000 C 
ATOM     19  C   UNL     1      -3.259  10.516  15.798  0.00  0.00    +0.000 A 
ATOM     20  C   UNL     1      -4.377  11.216  16.251  0.00  0.00    +0.000 A 
ATOM     21  C   UNL     1      -4.448  11.641  17.581  0.00  0.00    +0.000 A 
ATOM     22  C   UNL     1      -3.402  11.369  18.464  0.00  0.00    +0.000 A 
ATOM     23  C   UNL     1      -2.277  10.671  18.028  0.00  0.00    +0.000 A 
ATOM     24  C   UNL     1      -2.218  10.248  16.695  0.00  0.00    +0.000 A 
ENDBRANCH  17  23
ENDBRANCH  16  17
ENDBRANCH  15  16
ENDBRANCH   1  15
TORSDOF 4
ENDMDL
MODEL 5
REMARK VINA RESULT:      -7.7      1.790      2.680
REMARK  Name = 
REMARK  5 active torsions:
REMARK  status: ('A' for Active; 'I' for Inactive)
REMARK    1  A    between atoms: C_1  and  C_2
REMARK    2  A    between atoms: C_6  and  O_7
REMARK    3  A    between atoms: O_7  and  C_8
REMARK    4  A    between atoms: C_8  and  C_9
REMARK    5  A    between atoms: C_9  and  N_10
REMARK                            x       y       z     vdW  Elec       q    Type
REMARK                         _______ _______ _______ _____ _____    ______ ____
ROOT
ATOM      1  N   UNL     1       1.566   8.632  19.600  0.00  0.00    +0.000 N 
ATOM      2  N   UNL     1       1.296   7.774  20.659  0.00  0.00    +0.000 NA
ATOM      3  N   UNL     1       1.767   6.613  20.687  0.00  0.00    +0.000 NA
ATOM      4  C   UNL     1       2.558   6.203  19.673  0.00  0.00    +0.000 A 
ATOM      5  S   UNL     1       3.242   4.641  19.623  0.00  0.00    +0.000 S 
ATOM      6  C   UNL     1       4.009   4.968  18.142  0.00  0.00    +0.000 A 
ATOM      7  C   UNL     1       3.775   6.257  17.692  0.00  0.00    +0.000 A 
ATOM      8  C   UNL     1       2.906   6.954  18.581  0.00  0.00    +0.000 A 
ATOM      9  C   UNL     1       2.360   8.289  18.507  0.00  0.00    +0.000 A 
ATOM     10  O   UNL     1       2.582   9.043  17.563  0.00  0.00    +0.000 OA
ATOM     11  C   UNL     1       4.357   6.778  16.416  0.00  0.00    +0.000 C 
ATOM     12  C   UNL     1       5.495   5.883  15.906  0.00  0.00    +0.000 C 
ATOM     13  C   UNL     1       5.122   4.395  15.991  0.00  0.00    +0.000 C 
ATOM     14  C   UNL     1       4.868   3.960  17.444  0.00  0.00    +0.000 C 
ENDROOT
BRANCH   1  15
ATOM     15  C   UNL     1       0.968   9.966  19.653  0.00  0.00    +0.000 C 
BRANCH  15  16
ATOM     16  C   UNL     1      -0.549   9.928  19.791  0.00  0.00    +0.000 C 
BRANCH  16  17
ATOM     17  O   UNL     1      -1.172  11.145  19.383  0.00  0.00    +0.000 OA
BRANCH  17  23
ATOM     18  C   UNL     1      -5.494  12.130  17.139  0.00  0.00    +0.000 C 
ATOM     19  C   UNL     1      -4.174  11.417  17.184  0.00  0.00    +0.000 A 
ATOM     20  C   UNL     1      -3.781  10.536  16.177  0.00  0.00    +0.000 A 
ATOM     21  C   UNL     1      -2.546   9.887  16.255  0.00  0.00    +0.000 A 
ATOM     22  C   UNL     1      -1.698  10.114  17.341  0.00  0.00    +0.000 A 
ATOM     23  C   UNL     1      -2.075  10.991  18.356  0.00  0.00    +0.000 A 
ATOM     24  C   UNL     1      -3.314  11.639  18.266  0.00  0.00    +0.000 A 
ENDBRANCH  17  23
ENDBRANCH  16  17
ENDBRANCH  15  16
ENDBRANCH   1  15
TORSDOF 4
ENDMDL
MODEL 6
REMARK VINA RESULT:      -7.7      5.653      8.050
REMARK  Name = 
REMARK  5 active torsions:
REMARK  status: ('A' for Active; 'I' for Inactive)
REMARK    1  A    between atoms: C_1  and  C_2
REMARK    2  A    between atoms: C_6  and  O_7
REMARK    3  A    between atoms: O_7  and  C_8
REMARK    4  A    between atoms: C_8  and  C_9
REMARK    5  A    between atoms: C_9  and  N_10
REMARK                            x       y       z     vdW  Elec       q    Type
REMARK                         _______ _______ _______ _____ _____    ______ ____
ROOT
ATOM      1  N   UNL     1       6.165   6.354  17.965  0.00  0.00    +0.000 N 
ATOM      2  N   UNL     1       5.317   7.166  17.223  0.00  0.00    +0.000 NA
ATOM      3  N   UNL     1       4.076   6.998  17.248  0.00  0.00    +0.000 NA
ATOM      4  C   UNL     1       3.563   6.018  18.022  0.00  0.00    +0.000 A 
ATOM      5  S   UNL     1       1.887   5.713  18.119  0.00  0.00    +0.000 S 
ATOM      6  C   UNL     1       2.131   4.435  19.214  0.00  0.00    +0.000 A 
ATOM      7  C   UNL     1       3.467   4.248  19.529  0.00  0.00    +0.000 A 
ATOM      8  C   UNL     1       4.291   5.160  18.806  0.00  0.00    +0.000 A 
ATOM      9  C   UNL     1       5.726   5.312  18.780  0.00  0.00    +0.000 A 
ATOM     10  O   UNL     1       6.480   4.584  19.421  0.00  0.00    +0.000 OA
ATOM     11  C   UNL     1       3.925   3.190  20.482  0.00  0.00    +0.000 C 
ATOM     12  C   UNL     1       2.760   2.635  21.313  0.00  0.00    +0.000 C 
ATOM     13  C   UNL     1       1.529   2.354  20.439  0.00  0.00    +0.000 C 
ATOM     14  C   UNL     1       0.997   3.640  19.784  0.00  0.00    +0.000 C 
ENDROOT
BRANCH   1  15
ATOM     15  C   UNL     1       7.600   6.623  17.868  0.00  0.00    +0.000 C 
BRANCH  15  16
ATOM     16  C   UNL     1       7.922   8.112  17.853  0.00  0.00    +0.000 C 
BRANCH  16  17
ATOM     17  O   UNL     1       8.857   8.486  18.864  0.00  0.00    +0.000 OA
BRANCH  17  23
ATOM     18  C   UNL     1       9.743  12.561  21.564  0.00  0.00    +0.000 C 
ATOM     19  C   UNL     1       9.438  11.900  20.252  0.00  0.00    +0.000 A 
ATOM     20  C   UNL     1       9.283  12.637  19.078  0.00  0.00    +0.000 A 
ATOM     21  C   UNL     1       8.995  11.987  17.874  0.00  0.00    +0.000 A 
ATOM     22  C   UNL     1       8.860  10.598  17.839  0.00  0.00    +0.000 A 
ATOM     23  C   UNL     1       9.012   9.847  19.002  0.00  0.00    +0.000 A 
ATOM     24  C   UNL     1       9.303  10.508  20.202  0.00  0.00    +0.000 A 
ENDBRANCH  17  23
ENDBRANCH  16  17
ENDBRANCH  15  16
ENDBRANCH   1  15
TORSDOF 4
ENDMDL
MODEL 7
REMARK VINA RESULT:      -7.7      3.385      8.250
REMARK  Name = 
REMARK  5 active torsions:
REMARK  status: ('A' for Active; 'I' for Inactive)
REMARK    1  A    between atoms: C_1  and  C_2
REMARK    2  A    between atoms: C_6  and  O_7
REMARK    3  A    between atoms: O_7  and  C_8
REMARK    4  A    between atoms: C_8  and  C_9
REMARK    5  A    between atoms: C_9  and  N_10
REMARK                            x       y       z     vdW  Elec       q    Type
REMARK                         _______ _______ _______ _____ _____    ______ ____
ROOT
ATOM      1  N   UNL     1       2.219   7.751  19.236  0.00  0.00    +0.000 N 
ATOM      2  N   UNL     1       2.369   8.463  18.053  0.00  0.00    +0.000 NA
ATOM      3  N   UNL     1       1.799   9.567  17.886  0.00  0.00    +0.000 NA
ATOM      4  C   UNL     1       1.041  10.069  18.883  0.00  0.00    +0.000 A 
ATOM      5  S   UNL     1       0.226  11.562  18.748  0.00  0.00    +0.000 S 
ATOM      6  C   UNL     1      -0.415  11.413  20.316  0.00  0.00    +0.000 A 
ATOM      7  C   UNL     1      -0.002  10.256  20.955  0.00  0.00    +0.000 A 
ATOM      8  C   UNL     1       0.824   9.471  20.097  0.00  0.00    +0.000 A 
ATOM      9  C   UNL     1       1.446   8.186  20.311  0.00  0.00    +0.000 A 
ATOM     10  O   UNL     1       1.301   7.544  21.349  0.00  0.00    +0.000 OA
ATOM     11  C   UNL     1      -0.428   9.914  22.348  0.00  0.00    +0.000 C 
ATOM     12  C   UNL     1      -1.024  11.129  23.071  0.00  0.00    +0.000 C 
ATOM     13  C   UNL     1      -2.003  11.896  22.170  0.00  0.00    +0.000 C 
ATOM     14  C   UNL     1      -1.300  12.457  20.923  0.00  0.00    +0.000 C 
ENDROOT
BRANCH   1  15
ATOM     15  C   UNL     1       2.918   6.469  19.336  0.00  0.00    +0.000 C 
BRANCH  15  16
ATOM     16  C   UNL     1       2.681   5.571  18.128  0.00  0.00    +0.000 C 
BRANCH  16  17
ATOM     17  O   UNL     1       3.413   4.349  18.195  0.00  0.00    +0.000 OA
BRANCH  17  23
ATOM     18  C   UNL     1       6.253   4.115  14.126  0.00  0.00    +0.000 C 
ATOM     19  C   UNL     1       6.101   4.296  15.608  0.00  0.00    +0.000 A 
ATOM     20  C   UNL     1       7.200   4.515  16.438  0.00  0.00    +0.000 A 
ATOM     21  C   UNL     1       7.019   4.674  17.814  0.00  0.00    +0.000 A 
ATOM     22  C   UNL     1       5.739   4.613  18.368  0.00  0.00    +0.000 A 
ATOM     23  C   UNL     1       4.630   4.394  17.554  0.00  0.00    +0.000 A 
ATOM     24  C   UNL     1       4.822   4.239  16.175  0.00  0.00    +0.000 A 
ENDBRANCH  17  23
ENDBRANCH  16  17
ENDBRANCH  15  16
ENDBRANCH   1  15
TORSDOF 4
ENDMDL
MODEL 8
REMARK VINA RESULT:      -7.6      1.596      2.580
REMARK  Name = 
REMARK  5 active torsions:
REMARK  status: ('A' for Active; 'I' for Inactive)
REMARK    1  A    between atoms: C_1  and  C_2
REMARK    2  A    between atoms: C_6  and  O_7
REMARK    3  A    between atoms: O_7  and  C_8
REMARK    4  A    between atoms: C_8  and  C_9
REMARK    5  A    between atoms: C_9  and  N_10
REMARK                            x       y       z     vdW  Elec       q    Type
REMARK                         _______ _______ _______ _____ _____    ______ ____
ROOT
ATOM      1  N   UNL     1       1.578   8.651  19.598  0.00  0.00    +0.000 N 
ATOM      2  N   UNL     1       1.075   8.219  20.818  0.00  0.00    +0.000 NA
ATOM      3  N   UNL     1       1.240   7.038  21.203  0.00  0.00    +0.000 NA
ATOM      4  C   UNL     1       1.930   6.183  20.418  0.00  0.00    +0.000 A 
ATOM      5  S   UNL     1       2.203   4.557  20.857  0.00  0.00    +0.000 S 
ATOM      6  C   UNL     1       3.066   4.261  19.422  0.00  0.00    +0.000 A 
ATOM      7  C   UNL     1       3.173   5.386  18.621  0.00  0.00    +0.000 A 
ATOM      8  C   UNL     1       2.483   6.490  19.202  0.00  0.00    +0.000 A 
ATOM      9  C   UNL     1       2.290   7.837  18.719  0.00  0.00    +0.000 A 
ATOM     10  O   UNL     1       2.717   8.217  17.632  0.00  0.00    +0.000 OA
ATOM     11  C   UNL     1       3.900   5.372  17.313  0.00  0.00    +0.000 C 
ATOM     12  C   UNL     1       4.792   4.130  17.176  0.00  0.00    +0.000 C 
ATOM     13  C   UNL     1       4.057   2.857  17.622  0.00  0.00    +0.000 C 
ATOM     14  C   UNL     1       3.664   2.925  19.108  0.00  0.00    +0.000 C 
ENDROOT
BRANCH   1  15
ATOM     15  C   UNL     1       1.331  10.046  19.231  0.00  0.00    +0.000 C 
BRANCH  15  16
ATOM     16  C   UNL     1       0.184  10.202  18.240  0.00  0.00    +0.000 C 
BRANCH  16  17
ATOM     17  O   UNL     1      -1.082  10.354  18.879  0.00  0.00    +0.000 OA
BRANCH  17  23
ATOM     18  C   UNL     1      -3.252  10.037  14.421  0.00  0.00    +0.000 C 
ATOM     19  C   UNL     1      -3.258  10.493  15.851  0.00  0.00    +0.000 A 
ATOM     20  C   UNL     1      -4.325  11.213  16.388  0.00  0.00    +0.000 A 
ATOM     21  C   UNL     1      -4.292  11.625  17.723  0.00  0.00    +0.000 A 
ATOM     22  C   UNL     1      -3.193  11.320  18.528  0.00  0.00    +0.000 A 
ATOM     23  C   UNL     1      -2.118  10.602  18.007  0.00  0.00    +0.000 A 
ATOM     24  C   UNL     1      -2.162  10.192  16.669  0.00  0.00    +0.000 A 
ENDBRANCH  17  23
ENDBRANCH  16  17
ENDBRANCH  15  16
ENDBRANCH   1  15
TORSDOF 4
ENDMDL
MODEL 9
REMARK VINA RESULT:      -7.6      1.640      2.370
REMARK  Name = 
REMARK  5 active torsions:
REMARK  status: ('A' for Active; 'I' for Inactive)
REMARK    1  A    between atoms: C_1  and  C_2
REMARK    2  A    between atoms: C_6  and  O_7
REMARK    3  A    between atoms: O_7  and  C_8
REMARK    4  A    between atoms: C_8  and  C_9
REMARK    5  A    between atoms: C_9  and  N_10
REMARK                            x       y       z     vdW  Elec       q    Type
REMARK                         _______ _______ _______ _____ _____    ______ ____
ROOT
ATOM      1  N   UNL     1       1.558   8.942  19.322  0.00  0.00    +0.000 N 
ATOM      2  N   UNL     1       1.081   8.553  20.567  0.00  0.00    +0.000 NA
ATOM      3  N   UNL     1       1.282   7.396  21.004  0.00  0.00    +0.000 NA
ATOM      4  C   UNL     1       1.987   6.525  20.251  0.00  0.00    +0.000 A 
ATOM      5  S   UNL     1       2.310   4.929  20.761  0.00  0.00    +0.000 S 
ATOM      6  C   UNL     1       3.166   4.591  19.331  0.00  0.00    +0.000 A 
ATOM      7  C   UNL     1       3.233   5.679  18.478  0.00  0.00    +0.000 A 
ATOM      8  C   UNL     1       2.518   6.790  19.015  0.00  0.00    +0.000 A 
ATOM      9  C   UNL     1       2.282   8.107  18.473  0.00  0.00    +0.000 A 
ATOM     10  O   UNL     1       2.687   8.448  17.364  0.00  0.00    +0.000 OA
ATOM     11  C   UNL     1       3.945   5.624  17.163  0.00  0.00    +0.000 C 
ATOM     12  C   UNL     1       4.869   4.402  17.072  0.00  0.00    +0.000 C 
ATOM     13  C   UNL     1       4.175   3.132  17.586  0.00  0.00    +0.000 C 
ATOM     14  C   UNL     1       3.797   3.258  19.071  0.00  0.00    +0.000 C 
ENDROOT
BRANCH   1  15
ATOM     15  C   UNL     1       1.268  10.310  18.895  0.00  0.00    +0.000 C 
BRANCH  15  16
ATOM     16  C   UNL     1      -0.226  10.592  18.788  0.00  0.00    +0.000 C 
BRANCH  16  17
ATOM     17  O   UNL     1      -0.815  10.018  17.622  0.00  0.00    +0.000 OA
BRANCH  17  23
ATOM     18  C   UNL     1      -5.080  12.188  18.956  0.00  0.00    +0.000 C 
ATOM     19  C   UNL     1      -4.208  11.541  17.921  0.00  0.00    +0.000 A 
ATOM     20  C   UNL     1      -4.639  11.361  16.606  0.00  0.00    +0.000 A 
ATOM     21  C   UNL     1      -3.800  10.750  15.670  0.00  0.00    +0.000 A 
ATOM     22  C   UNL     1      -2.528  10.313  16.044  0.00  0.00    +0.000 A 
ATOM     23  C   UNL     1      -2.082  10.484  17.353  0.00  0.00    +0.000 A 
ATOM     24  C   UNL     1      -2.929  11.101  18.282  0.00  0.00    +0.000 A 
ENDBRANCH  17  23
ENDBRANCH  16  17
ENDBRANCH  15  16
ENDBRANCH   1  15
TORSDOF 4
ENDMDL
