MODEL 1
REMARK VINA RESULT:      -5.2      0.000      0.000
REMARK  Name = 
REMARK  7 active torsions:
REMARK  status: ('A' for Active; 'I' for Inactive)
REMARK    1  A    between atoms: C_2  and  C_5
REMARK    2  A    between atoms: N_3  and  O_4
REMARK    3  A    between atoms: C_5  and  O_6
REMARK    4  A    between atoms: C_5  and  C_7
REMARK    5  A    between atoms: C_7  and  O_8
REMARK    6  A    between atoms: C_7  and  C_9
REMARK    7  A    between atoms: C_9  and  O_10
REMARK                            x       y       z     vdW  Elec       q    Type
REMARK                         _______ _______ _______ _____ _____    ______ ____
ROOT
ATOM      1  C   UNL     1       6.439   5.881  17.491  0.00  0.00    +0.000 C 
ENDROOT
BRANCH   1   3
ATOM      2  O   UNL     1       8.267   7.033  18.631  0.00  0.00    +0.000 OA
ATOM      3  C   UNL     1       7.430   6.128  18.636  0.00  0.00    +0.000 C 
ATOM      4  N   UNL     1       7.341   5.209  19.653  0.00  0.00    +0.000 N 
ATOM      5  H   UNL     1       6.471   4.702  19.801  0.00  0.00    +0.000 HD
BRANCH   4   6
ATOM      6  O   UNL     1       8.148   5.465  20.786  0.00  0.00    +0.000 OA
ATOM      7  H   UNL     1       7.950   4.700  21.368  0.00  0.00    +0.000 HD
ENDBRANCH   4   6
ENDBRANCH   1   3
BRANCH   1   8
ATOM      8  O   UNL     1       6.352   7.020  16.630  0.00  0.00    +0.000 OA
ATOM      9  H   UNL     1       5.401   7.128  16.402  0.00  0.00    +0.000 HD
ENDBRANCH   1   8
BRANCH   1  10
ATOM     10  C   UNL     1       6.808   4.595  16.716  0.00  0.00    +0.000 C 
BRANCH  10  11
ATOM     11  O   UNL     1       8.103   4.105  17.063  0.00  0.00    +0.000 OA
ATOM     12  H   UNL     1       7.978   3.357  17.687  0.00  0.00    +0.000 HD
ENDBRANCH  10  11
BRANCH  10  13
ATOM     13  C   UNL     1       6.694   4.761  15.193  0.00  0.00    +0.000 C 
BRANCH  13  14
ATOM     14  O   UNL     1       7.820   5.474  14.682  0.00  0.00    +0.000 OA
ATOM     15  H   UNL     1       7.570   6.419  14.667  0.00  0.00    +0.000 HD
ENDBRANCH  13  14
ENDBRANCH  10  13
ENDBRANCH   1  10
TORSDOF 7
ENDMDL
MODEL 2
REMARK VINA RESULT:      -5.0      2.561      4.408
REMARK  Name = 
REMARK  7 active torsions:
REMARK  status: ('A' for Active; 'I' for Inactive)
REMARK    1  A    between atoms: C_2  and  C_5
REMARK    2  A    between atoms: N_3  and  O_4
REMARK    3  A    between atoms: C_5  and  O_6
REMARK    4  A    between atoms: C_5  and  C_7
REMARK    5  A    between atoms: C_7  and  O_8
REMARK    6  A    between atoms: C_7  and  C_9
REMARK    7  A    between atoms: C_9  and  O_10
REMARK                            x       y       z     vdW  Elec       q    Type
REMARK                         _______ _______ _______ _____ _____    ______ ____
ROOT
ATOM      1  C   UNL     1       6.054   4.382  16.033  0.00  0.00    +0.000 C 
ENDROOT
BRANCH   1   3
ATOM      2  O   UNL     1       6.439   3.899  13.670  0.00  0.00    +0.000 OA
ATOM      3  C   UNL     1       6.736   4.554  14.671  0.00  0.00    +0.000 C 
ATOM      4  N   UNL     1       7.758   5.472  14.675  0.00  0.00    +0.000 N 
ATOM      5  H   UNL     1       7.770   6.212  15.375  0.00  0.00    +0.000 HD
BRANCH   4   6
ATOM      6  O   UNL     1       8.337   5.756  13.417  0.00  0.00    +0.000 OA
ATOM      7  H   UNL     1       7.663   6.330  12.994  0.00  0.00    +0.000 HD
ENDBRANCH   4   6
ENDBRANCH   1   3
BRANCH   1   8
ATOM      8  O   UNL     1       5.644   3.026  16.237  0.00  0.00    +0.000 OA
ATOM      9  H   UNL     1       6.442   2.533  16.534  0.00  0.00    +0.000 HD
ENDBRANCH   1   8
BRANCH   1  10
ATOM     10  C   UNL     1       6.969   4.888  17.172  0.00  0.00    +0.000 C 
BRANCH  10  11
ATOM     11  O   UNL     1       8.147   4.095  17.315  0.00  0.00    +0.000 OA
ATOM     12  H   UNL     1       7.942   3.371  17.946  0.00  0.00    +0.000 HD
ENDBRANCH  10  11
BRANCH  10  13
ATOM     13  C   UNL     1       6.239   5.004  18.520  0.00  0.00    +0.000 C 
BRANCH  13  14
ATOM     14  O   UNL     1       5.904   3.709  19.018  0.00  0.00    +0.000 OA
ATOM     15  H   UNL     1       4.971   3.753  19.305  0.00  0.00    +0.000 HD
ENDBRANCH  13  14
ENDBRANCH  10  13
ENDBRANCH   1  10
TORSDOF 7
ENDMDL
MODEL 3
REMARK VINA RESULT:      -4.9      1.432      1.882
REMARK  Name = 
REMARK  7 active torsions:
REMARK  status: ('A' for Active; 'I' for Inactive)
REMARK    1  A    between atoms: C_2  and  C_5
REMARK    2  A    between atoms: N_3  and  O_4
REMARK    3  A    between atoms: C_5  and  O_6
REMARK    4  A    between atoms: C_5  and  C_7
REMARK    5  A    between atoms: C_7  and  O_8
REMARK    6  A    between atoms: C_7  and  C_9
REMARK    7  A    between atoms: C_9  and  O_10
REMARK                            x       y       z     vdW  Elec       q    Type
REMARK                         _______ _______ _______ _____ _____    ______ ____
ROOT
ATOM      1  C   UNL     1       7.171   5.113  17.543  0.00  0.00    +0.000 C 
ENDROOT
BRANCH   1   3
ATOM      2  O   UNL     1       5.975   5.400  19.653  0.00  0.00    +0.000 OA
ATOM      3  C   UNL     1       7.050   5.270  19.063  0.00  0.00    +0.000 C 
ATOM      4  N   UNL     1       8.258   5.312  19.714  0.00  0.00    +0.000 N 
ATOM      5  H   UNL     1       9.078   4.885  19.286  0.00  0.00    +0.000 HD
BRANCH   4   6
ATOM      6  O   UNL     1       8.197   5.333  21.127  0.00  0.00    +0.000 OA
ATOM      7  H   UNL     1       8.239   4.380  21.358  0.00  0.00    +0.000 HD
ENDBRANCH   4   6
ENDBRANCH   1   3
BRANCH   1   8
ATOM      8  O   UNL     1       8.148   4.126  17.202  0.00  0.00    +0.000 OA
ATOM      9  H   UNL     1       8.212   3.517  17.971  0.00  0.00    +0.000 HD
ENDBRANCH   1   8
BRANCH   1  10
ATOM     10  C   UNL     1       5.792   4.806  16.913  0.00  0.00    +0.000 C 
BRANCH  10  11
ATOM     11  O   UNL     1       5.228   3.591  17.407  0.00  0.00    +0.000 OA
ATOM     12  H   UNL     1       4.701   3.193  16.680  0.00  0.00    +0.000 HD
ENDBRANCH  10  11
BRANCH  10  13
ATOM     13  C   UNL     1       5.826   4.789  15.377  0.00  0.00    +0.000 C 
BRANCH  13  14
ATOM     14  O   UNL     1       6.958   5.513  14.895  0.00  0.00    +0.000 OA
ATOM     15  H   UNL     1       7.725   5.217  15.424  0.00  0.00    +0.000 HD
ENDBRANCH  13  14
ENDBRANCH  10  13
ENDBRANCH   1  10
TORSDOF 7
ENDMDL
MODEL 4
REMARK VINA RESULT:      -4.9      2.424      4.377
REMARK  Name = 
REMARK  7 active torsions:
REMARK  status: ('A' for Active; 'I' for Inactive)
REMARK    1  A    between atoms: C_2  and  C_5
REMARK    2  A    between atoms: N_3  and  O_4
REMARK    3  A    between atoms: C_5  and  O_6
REMARK    4  A    between atoms: C_5  and  C_7
REMARK    5  A    between atoms: C_7  and  O_8
REMARK    6  A    between atoms: C_7  and  C_9
REMARK    7  A    between atoms: C_9  and  O_10
REMARK                            x       y       z     vdW  Elec       q    Type
REMARK                         _______ _______ _______ _____ _____    ______ ____
ROOT
ATOM      1  C   UNL     1       6.733   4.573  16.352  0.00  0.00    +0.000 C 
ENDROOT
BRANCH   1   3
ATOM      2  O   UNL     1       7.689   5.330  14.235  0.00  0.00    +0.000 OA
ATOM      3  C   UNL     1       6.962   4.535  14.836  0.00  0.00    +0.000 C 
ATOM      4  N   UNL     1       6.236   3.566  14.189  0.00  0.00    +0.000 N 
ATOM      5  H   UNL     1       5.923   2.743  14.701  0.00  0.00    +0.000 HD
BRANCH   4   6
ATOM      6  O   UNL     1       6.505   3.412  12.810  0.00  0.00    +0.000 OA
ATOM      7  H   UNL     1       6.781   2.472  12.748  0.00  0.00    +0.000 HD
ENDBRANCH   4   6
ENDBRANCH   1   3
BRANCH   1   8
ATOM      8  O   UNL     1       7.965   4.423  17.064  0.00  0.00    +0.000 OA
ATOM      9  H   UNL     1       8.546   3.860  16.504  0.00  0.00    +0.000 HD
ENDBRANCH   1   8
BRANCH   1  10
ATOM     10  C   UNL     1       5.981   5.861  16.760  0.00  0.00    +0.000 C 
BRANCH  10  11
ATOM     11  O   UNL     1       5.353   6.498  15.648  0.00  0.00    +0.000 OA
ATOM     12  H   UNL     1       5.214   5.816  14.956  0.00  0.00    +0.000 HD
ENDBRANCH  10  11
BRANCH  10  13
ATOM     13  C   UNL     1       6.872   6.861  17.512  0.00  0.00    +0.000 C 
BRANCH  13  14
ATOM     14  O   UNL     1       7.892   7.367  16.651  0.00  0.00    +0.000 OA
ATOM     15  H   UNL     1       8.324   8.101  17.130  0.00  0.00    +0.000 HD
ENDBRANCH  13  14
ENDBRANCH  10  13
ENDBRANCH   1  10
TORSDOF 7
ENDMDL
MODEL 5
REMARK VINA RESULT:      -4.7      1.857      4.297
REMARK  Name = 
REMARK  7 active torsions:
REMARK  status: ('A' for Active; 'I' for Inactive)
REMARK    1  A    between atoms: C_2  and  C_5
REMARK    2  A    between atoms: N_3  and  O_4
REMARK    3  A    between atoms: C_5  and  O_6
REMARK    4  A    between atoms: C_5  and  C_7
REMARK    5  A    between atoms: C_7  and  O_8
REMARK    6  A    between atoms: C_7  and  C_9
REMARK    7  A    between atoms: C_9  and  O_10
REMARK                            x       y       z     vdW  Elec       q    Type
REMARK                         _______ _______ _______ _____ _____    ______ ____
ROOT
ATOM      1  C   UNL     1       7.115   4.484  17.226  0.00  0.00    +0.000 C 
ENDROOT
BRANCH   1   3
ATOM      2  O   UNL     1       7.739   5.274  15.001  0.00  0.00    +0.000 OA
ATOM      3  C   UNL     1       7.079   4.496  15.693  0.00  0.00    +0.000 C 
ATOM      4  N   UNL     1       6.195   3.594  15.152  0.00  0.00    +0.000 N 
ATOM      5  H   UNL     1       5.925   2.769  15.685  0.00  0.00    +0.000 HD
BRANCH   4   6
ATOM      6  O   UNL     1       6.215   3.481  13.743  0.00  0.00    +0.000 OA
ATOM      7  H   UNL     1       5.263   3.393  13.521  0.00  0.00    +0.000 HD
ENDBRANCH   4   6
ENDBRANCH   1   3
BRANCH   1   8
ATOM      8  O   UNL     1       8.363   3.977  17.709  0.00  0.00    +0.000 OA
ATOM      9  H   UNL     1       8.347   3.005  17.564  0.00  0.00    +0.000 HD
ENDBRANCH   1   8
BRANCH   1  10
ATOM     10  C   UNL     1       6.802   5.889  17.792  0.00  0.00    +0.000 C 
BRANCH  10  11
ATOM     11  O   UNL     1       6.618   6.860  16.762  0.00  0.00    +0.000 OA
ATOM     12  H   UNL     1       5.782   6.642  16.295  0.00  0.00    +0.000 HD
ENDBRANCH  10  11
BRANCH  10  13
ATOM     13  C   UNL     1       7.854   6.376  18.801  0.00  0.00    +0.000 C 
BRANCH  13  14
ATOM     14  O   UNL     1       7.751   5.643  20.021  0.00  0.00    +0.000 OA
ATOM     15  H   UNL     1       7.124   4.911  19.856  0.00  0.00    +0.000 HD
ENDBRANCH  13  14
ENDBRANCH  10  13
ENDBRANCH   1  10
TORSDOF 7
ENDMDL
MODEL 6
REMARK VINA RESULT:      -4.7      3.710      4.255
REMARK  Name = 
REMARK  7 active torsions:
REMARK  status: ('A' for Active; 'I' for Inactive)
REMARK    1  A    between atoms: C_2  and  C_5
REMARK    2  A    between atoms: N_3  and  O_4
REMARK    3  A    between atoms: C_5  and  O_6
REMARK    4  A    between atoms: C_5  and  C_7
REMARK    5  A    between atoms: C_7  and  O_8
REMARK    6  A    between atoms: C_7  and  C_9
REMARK    7  A    between atoms: C_9  and  O_10
REMARK                            x       y       z     vdW  Elec       q    Type
REMARK                         _______ _______ _______ _____ _____    ______ ____
ROOT
ATOM      1  C   UNL     1       4.369   4.238  18.796  0.00  0.00    +0.000 C 
ENDROOT
BRANCH   1   3
ATOM      2  O   UNL     1       6.426   5.145  19.751  0.00  0.00    +0.000 OA
ATOM      3  C   UNL     1       5.879   4.498  18.855  0.00  0.00    +0.000 C 
ATOM      4  N   UNL     1       6.571   3.991  17.782  0.00  0.00    +0.000 N 
ATOM      5  H   UNL     1       6.185   3.210  17.255  0.00  0.00    +0.000 HD
BRANCH   4   6
ATOM      6  O   UNL     1       7.979   4.099  17.851  0.00  0.00    +0.000 OA
ATOM      7  H   UNL     1       8.126   4.428  18.764  0.00  0.00    +0.000 HD
ENDBRANCH   4   6
ENDBRANCH   1   3
BRANCH   1   8
ATOM      8  O   UNL     1       3.926   4.073  17.446  0.00  0.00    +0.000 OA
ATOM      9  H   UNL     1       2.943   4.048  17.474  0.00  0.00    +0.000 HD
ENDBRANCH   1   8
BRANCH   1  10
ATOM     10  C   UNL     1       3.987   3.029  19.682  0.00  0.00    +0.000 C 
BRANCH  10  11
ATOM     11  O   UNL     1       5.105   2.188  19.965  0.00  0.00    +0.000 OA
ATOM     12  H   UNL     1       4.809   1.511  20.611  0.00  0.00    +0.000 HD
ENDBRANCH  10  11
BRANCH  10  13
ATOM     13  C   UNL     1       2.833   2.200  19.098  0.00  0.00    +0.000 C 
BRANCH  13  14
ATOM     14  O   UNL     1       3.334   1.208  18.203  0.00  0.00    +0.000 OA
ATOM     15  H   UNL     1       4.133   1.586  17.785  0.00  0.00    +0.000 HD
ENDBRANCH  13  14
ENDBRANCH  10  13
ENDBRANCH   1  10
TORSDOF 7
ENDMDL
MODEL 7
REMARK VINA RESULT:      -4.7      2.720      4.577
REMARK  Name = 
REMARK  7 active torsions:
REMARK  status: ('A' for Active; 'I' for Inactive)
REMARK    1  A    between atoms: C_2  and  C_5
REMARK    2  A    between atoms: N_3  and  O_4
REMARK    3  A    between atoms: C_5  and  O_6
REMARK    4  A    between atoms: C_5  and  C_7
REMARK    5  A    between atoms: C_7  and  O_8
REMARK    6  A    between atoms: C_7  and  C_9
REMARK    7  A    between atoms: C_9  and  O_10
REMARK                            x       y       z     vdW  Elec       q    Type
REMARK                         _______ _______ _______ _____ _____    ______ ____
ROOT
ATOM      1  C   UNL     1       6.044   4.397  16.086  0.00  0.00    +0.000 C 
ENDROOT
BRANCH   1   3
ATOM      2  O   UNL     1       7.613   5.337  14.468  0.00  0.00    +0.000 OA
ATOM      3  C   UNL     1       6.711   4.534  14.711  0.00  0.00    +0.000 C 
ATOM      4  N   UNL     1       6.170   3.716  13.750  0.00  0.00    +0.000 N 
ATOM      5  H   UNL     1       5.687   2.863  14.025  0.00  0.00    +0.000 HD
BRANCH   4   6
ATOM      6  O   UNL     1       6.830   3.717  12.499  0.00  0.00    +0.000 OA
ATOM      7  H   UNL     1       6.084   3.760  11.862  0.00  0.00    +0.000 HD
ENDBRANCH   4   6
ENDBRANCH   1   3
BRANCH   1   8
ATOM      8  O   UNL     1       5.606   3.054  16.316  0.00  0.00    +0.000 OA
ATOM      9  H   UNL     1       5.696   2.579  15.460  0.00  0.00    +0.000 HD
ENDBRANCH   1   8
BRANCH   1  10
ATOM     10  C   UNL     1       6.988   4.898  17.204  0.00  0.00    +0.000 C 
BRANCH  10  11
ATOM     11  O   UNL     1       8.168   4.103  17.315  0.00  0.00    +0.000 OA
ATOM     12  H   UNL     1       8.777   4.375  16.594  0.00  0.00    +0.000 HD
ENDBRANCH  10  11
BRANCH  10  13
ATOM     13  C   UNL     1       6.292   5.010  18.569  0.00  0.00    +0.000 C 
BRANCH  13  14
ATOM     14  O   UNL     1       5.863   3.724  19.018  0.00  0.00    +0.000 OA
ATOM     15  H   UNL     1       6.388   3.517  19.817  0.00  0.00    +0.000 HD
ENDBRANCH  13  14
ENDBRANCH  10  13
ENDBRANCH   1  10
TORSDOF 7
ENDMDL
MODEL 8
REMARK VINA RESULT:      -4.7      2.770      3.352
REMARK  Name = 
REMARK  7 active torsions:
REMARK  status: ('A' for Active; 'I' for Inactive)
REMARK    1  A    between atoms: C_2  and  C_5
REMARK    2  A    between atoms: N_3  and  O_4
REMARK    3  A    between atoms: C_5  and  O_6
REMARK    4  A    between atoms: C_5  and  C_7
REMARK    5  A    between atoms: C_7  and  O_8
REMARK    6  A    between atoms: C_7  and  C_9
REMARK    7  A    between atoms: C_9  and  O_10
REMARK                            x       y       z     vdW  Elec       q    Type
REMARK                         _______ _______ _______ _____ _____    ______ ____
ROOT
ATOM      1  C   UNL     1       5.625   4.362  17.643  0.00  0.00    +0.000 C 
ENDROOT
BRANCH   1   3
ATOM      2  O   UNL     1       8.058   4.374  17.858  0.00  0.00    +0.000 OA
ATOM      3  C   UNL     1       6.959   4.661  18.337  0.00  0.00    +0.000 C 
ATOM      4  N   UNL     1       6.821   5.231  19.579  0.00  0.00    +0.000 N 
ATOM      5  H   UNL     1       5.974   5.748  19.807  0.00  0.00    +0.000 HD
BRANCH   4   6
ATOM      6  O   UNL     1       8.021   5.638  20.207  0.00  0.00    +0.000 OA
ATOM      7  H   UNL     1       8.502   6.090  19.480  0.00  0.00    +0.000 HD
ENDBRANCH   4   6
ENDBRANCH   1   3
BRANCH   1   8
ATOM      8  O   UNL     1       5.821   3.570  16.467  0.00  0.00    +0.000 OA
ATOM      9  H   UNL     1       6.525   2.917  16.682  0.00  0.00    +0.000 HD
ENDBRANCH   1   8
BRANCH   1  10
ATOM     10  C   UNL     1       4.632   3.701  18.627  0.00  0.00    +0.000 C 
BRANCH  10  11
ATOM     11  O   UNL     1       5.290   2.891  19.600  0.00  0.00    +0.000 OA
ATOM     12  H   UNL     1       5.785   2.193  19.118  0.00  0.00    +0.000 HD
ENDBRANCH  10  11
BRANCH  10  13
ATOM     13  C   UNL     1       3.534   2.893  17.917  0.00  0.00    +0.000 C 
BRANCH  13  14
ATOM     14  O   UNL     1       3.923   1.526  17.791  0.00  0.00    +0.000 OA
ATOM     15  H   UNL     1       3.585   1.064  18.583  0.00  0.00    +0.000 HD
ENDBRANCH  13  14
ENDBRANCH  10  13
ENDBRANCH   1  10
TORSDOF 7
ENDMDL
MODEL 9
REMARK VINA RESULT:      -4.7      1.375      2.316
REMARK  Name = 
REMARK  7 active torsions:
REMARK  status: ('A' for Active; 'I' for Inactive)
REMARK    1  A    between atoms: C_2  and  C_5
REMARK    2  A    between atoms: N_3  and  O_4
REMARK    3  A    between atoms: C_5  and  O_6
REMARK    4  A    between atoms: C_5  and  C_7
REMARK    5  A    between atoms: C_7  and  O_8
REMARK    6  A    between atoms: C_7  and  C_9
REMARK    7  A    between atoms: C_9  and  O_10
REMARK                            x       y       z     vdW  Elec       q    Type
REMARK                         _______ _______ _______ _____ _____    ______ ____
ROOT
ATOM      1  C   UNL     1       7.206   5.688  16.921  0.00  0.00    +0.000 C 
ENDROOT
BRANCH   1   3
ATOM      2  O   UNL     1       8.122   7.248  18.562  0.00  0.00    +0.000 OA
ATOM      3  C   UNL     1       7.695   6.120  18.309  0.00  0.00    +0.000 C 
ATOM      4  N   UNL     1       7.669   5.114  19.243  0.00  0.00    +0.000 N 
ATOM      5  H   UNL     1       7.032   4.328  19.123  0.00  0.00    +0.000 HD
BRANCH   4   6
ATOM      6  O   UNL     1       7.993   5.493  20.566  0.00  0.00    +0.000 OA
ATOM      7  H   UNL     1       7.154   5.332  21.049  0.00  0.00    +0.000 HD
ENDBRANCH   4   6
ENDBRANCH   1   3
BRANCH   1   8
ATOM      8  O   UNL     1       7.797   4.445  16.529  0.00  0.00    +0.000 OA
ATOM      9  H   UNL     1       7.512   4.279  15.603  0.00  0.00    +0.000 HD
ENDBRANCH   1   8
BRANCH   1  10
ATOM     10  C   UNL     1       5.661   5.635  16.877  0.00  0.00    +0.000 C 
BRANCH  10  11
ATOM     11  O   UNL     1       5.063   6.297  17.991  0.00  0.00    +0.000 OA
ATOM     12  H   UNL     1       4.105   6.078  17.986  0.00  0.00    +0.000 HD
ENDBRANCH  10  11
BRANCH  10  13
ATOM     13  C   UNL     1       5.115   4.204  16.754  0.00  0.00    +0.000 C 
BRANCH  13  14
ATOM     14  O   UNL     1       5.355   3.473  17.956  0.00  0.00    +0.000 OA
ATOM     15  H   UNL     1       6.168   3.845  18.352  0.00  0.00    +0.000 HD
ENDBRANCH  13  14
ENDBRANCH  10  13
ENDBRANCH   1  10
TORSDOF 7
ENDMDL
