MODEL 1
REMARK VINA RESULT:      -7.9      0.000      0.000
REMARK  Name = 
REMARK  6 active torsions:
REMARK  status: ('A' for Active; 'I' for Inactive)
REMARK    1  A    between atoms: C_1  and  C_2
REMARK    2  A    between atoms: C_5  and  C_6
REMARK    3  A    between atoms: C_6  and  O_8
REMARK    4  A    between atoms: O_8  and  N_9
REMARK    5  A    between atoms: C_10  and  C_12
REMARK    6  A    between atoms: C_19  and  N_20
REMARK                            x       y       z     vdW  Elec       q    Type
REMARK                         _______ _______ _______ _____ _____    ______ ____
ROOT
ATOM      1  C   UNL     1       4.193   6.746  17.741  0.00  0.00    +0.000 C 
ATOM      2  O   UNL     1       3.488   7.628  17.273  0.00  0.00    +0.000 OA
ENDROOT
BRANCH   1   7
ATOM      3  C   UNL     1       1.898   2.870  21.442  0.00  0.00    +0.000 C 
ATOM      4  C   UNL     1       2.535   3.842  20.488  0.00  0.00    +0.000 A 
ATOM      5  C   UNL     1       2.063   5.160  20.433  0.00  0.00    +0.000 A 
ATOM      6  C   UNL     1       2.635   6.093  19.558  0.00  0.00    +0.000 A 
ATOM      7  C   UNL     1       3.694   5.731  18.713  0.00  0.00    +0.000 A 
ATOM      8  C   UNL     1       4.184   4.422  18.757  0.00  0.00    +0.000 A 
ATOM      9  C   UNL     1       3.601   3.496  19.636  0.00  0.00    +0.000 A 
BRANCH   9  10
ATOM     10  N   UNL     1       4.148   2.148  19.634  0.00  0.00    +0.000 N 
ATOM     11  O   UNL     1       3.724   1.359  18.781  0.00  0.00    +0.000 OA
ATOM     12  O   UNL     1       5.025   1.900  20.475  0.00  0.00    +0.000 OA
ENDBRANCH   9  10
ENDBRANCH   1   7
BRANCH   1  13
ATOM     13  O   UNL     1       5.503   6.505  17.448  0.00  0.00    +0.000 OA
BRANCH  13  14
ATOM     14  N   UNL     1       5.609   6.214  16.075  0.00  0.00    +0.000 NA
ATOM     15  C   UNL     1       6.549   5.349  15.843  0.00  0.00    +0.000 C 
ATOM     16  N   UNL     1       7.440   4.910  16.796  0.00  0.00    +0.000 N 
ATOM     17  H   UNL     1       7.489   5.544  17.589  0.00  0.00    +0.000 HD
ATOM     18  H   UNL     1       8.367   4.682  16.450  0.00  0.00    +0.000 HD
BRANCH  15  19
ATOM     19  C   UNL     1       6.653   4.802  14.461  0.00  0.00    +0.000 A 
ATOM     20  C   UNL     1       5.739   3.857  13.987  0.00  0.00    +0.000 A 
ATOM     21  C   UNL     1       5.844   3.406  12.672  0.00  0.00    +0.000 A 
ATOM     22  C   UNL     1       6.863   3.912  11.881  0.00  0.00    +0.000 A 
ATOM     23  N   UNL     1       7.760   4.828  12.307  0.00  0.00    +0.000 NA
ATOM     24  C   UNL     1       7.629   5.263  13.586  0.00  0.00    +0.000 A 
ENDBRANCH  15  19
ENDBRANCH  13  14
ENDBRANCH   1  13
TORSDOF 5
ENDMDL
MODEL 2
REMARK VINA RESULT:      -7.8      0.596      1.026
REMARK  Name = 
REMARK  6 active torsions:
REMARK  status: ('A' for Active; 'I' for Inactive)
REMARK    1  A    between atoms: C_1  and  C_2
REMARK    2  A    between atoms: C_5  and  C_6
REMARK    3  A    between atoms: C_6  and  O_8
REMARK    4  A    between atoms: O_8  and  N_9
REMARK    5  A    between atoms: C_10  and  C_12
REMARK    6  A    between atoms: C_19  and  N_20
REMARK                            x       y       z     vdW  Elec       q    Type
REMARK                         _______ _______ _______ _____ _____    ______ ____
ROOT
ATOM      1  C   UNL     1       4.198   6.724  17.800  0.00  0.00    +0.000 C 
ATOM      2  O   UNL     1       3.480   7.596  17.331  0.00  0.00    +0.000 OA
ENDROOT
BRANCH   1   7
ATOM      3  C   UNL     1       1.949   2.820  21.500  0.00  0.00    +0.000 C 
ATOM      4  C   UNL     1       2.574   3.799  20.545  0.00  0.00    +0.000 A 
ATOM      5  C   UNL     1       2.109   5.121  20.514  0.00  0.00    +0.000 A 
ATOM      6  C   UNL     1       2.669   6.060  19.639  0.00  0.00    +0.000 A 
ATOM      7  C   UNL     1       3.711   5.701  18.770  0.00  0.00    +0.000 A 
ATOM      8  C   UNL     1       4.193   4.389  18.790  0.00  0.00    +0.000 A 
ATOM      9  C   UNL     1       3.621   3.457  19.669  0.00  0.00    +0.000 A 
BRANCH   9  10
ATOM     10  N   UNL     1       4.160   2.105  19.643  0.00  0.00    +0.000 N 
ATOM     11  O   UNL     1       3.717   1.329  18.788  0.00  0.00    +0.000 OA
ATOM     12  O   UNL     1       5.051   1.843  20.465  0.00  0.00    +0.000 OA
ENDBRANCH   9  10
ENDBRANCH   1   7
BRANCH   1  13
ATOM     13  O   UNL     1       5.511   6.502  17.510  0.00  0.00    +0.000 OA
BRANCH  13  14
ATOM     14  N   UNL     1       5.631   6.264  16.128  0.00  0.00    +0.000 NA
ATOM     15  C   UNL     1       6.541   5.373  15.875  0.00  0.00    +0.000 C 
ATOM     16  N   UNL     1       7.396   4.859  16.824  0.00  0.00    +0.000 N 
ATOM     17  H   UNL     1       7.456   5.457  17.644  0.00  0.00    +0.000 HD
ATOM     18  H   UNL     1       8.319   4.609  16.485  0.00  0.00    +0.000 HD
BRANCH  15  19
ATOM     19  C   UNL     1       6.648   4.880  14.473  0.00  0.00    +0.000 A 
ATOM     20  C   UNL     1       7.645   5.351  13.615  0.00  0.00    +0.000 A 
ATOM     21  C   UNL     1       7.739   4.830  12.326  0.00  0.00    +0.000 A 
ATOM     22  C   UNL     1       6.827   3.860  11.940  0.00  0.00    +0.000 A 
ATOM     23  N   UNL     1       5.853   3.381  12.744  0.00  0.00    +0.000 NA
ATOM     24  C   UNL     1       5.792   3.893  14.000  0.00  0.00    +0.000 A 
ENDBRANCH  15  19
ENDBRANCH  13  14
ENDBRANCH   1  13
TORSDOF 5
ENDMDL
MODEL 3
REMARK VINA RESULT:      -7.6      3.426      4.894
REMARK  Name = 
REMARK  6 active torsions:
REMARK  status: ('A' for Active; 'I' for Inactive)
REMARK    1  A    between atoms: C_1  and  C_2
REMARK    2  A    between atoms: C_5  and  C_6
REMARK    3  A    between atoms: C_6  and  O_8
REMARK    4  A    between atoms: O_8  and  N_9
REMARK    5  A    between atoms: C_10  and  C_12
REMARK    6  A    between atoms: C_19  and  N_20
REMARK                            x       y       z     vdW  Elec       q    Type
REMARK                         _______ _______ _______ _____ _____    ______ ____
ROOT
ATOM      1  C   UNL     1       2.828   5.603  19.457  0.00  0.00    +0.000 C 
ATOM      2  O   UNL     1       2.112   4.616  19.379  0.00  0.00    +0.000 OA
ENDROOT
BRANCH   1   7
ATOM      3  C   UNL     1       0.602  10.961  18.878  0.00  0.00    +0.000 C 
ATOM      4  C   UNL     1       1.183   9.588  19.078  0.00  0.00    +0.000 A 
ATOM      5  C   UNL     1       1.783   8.931  17.996  0.00  0.00    +0.000 A 
ATOM      6  C   UNL     1       2.336   7.653  18.147  0.00  0.00    +0.000 A 
ATOM      7  C   UNL     1       2.305   6.998  19.388  0.00  0.00    +0.000 A 
ATOM      8  C   UNL     1       1.717   7.640  20.482  0.00  0.00    +0.000 A 
ATOM      9  C   UNL     1       1.164   8.919  20.316  0.00  0.00    +0.000 A 
BRANCH   9  10
ATOM     10  N   UNL     1       0.561   9.536  21.489  0.00  0.00    +0.000 N 
ATOM     11  O   UNL     1      -0.542   9.114  21.855  0.00  0.00    +0.000 OA
ATOM     12  O   UNL     1       1.219  10.423  22.053  0.00  0.00    +0.000 OA
ENDBRANCH   9  10
ENDBRANCH   1   7
BRANCH   1  13
ATOM     13  O   UNL     1       4.177   5.622  19.654  0.00  0.00    +0.000 OA
BRANCH  13  14
ATOM     14  N   UNL     1       4.809   5.793  18.408  0.00  0.00    +0.000 NA
ATOM     15  C   UNL     1       5.444   4.720  18.045  0.00  0.00    +0.000 C 
ATOM     16  N   UNL     1       5.620   3.622  18.856  0.00  0.00    +0.000 N 
ATOM     17  H   UNL     1       5.487   3.850  19.838  0.00  0.00    +0.000 HD
ATOM     18  H   UNL     1       6.487   3.113  18.712  0.00  0.00    +0.000 HD
BRANCH  15  19
ATOM     19  C   UNL     1       6.002   4.687  16.664  0.00  0.00    +0.000 A 
ATOM     20  C   UNL     1       5.422   3.897  15.669  0.00  0.00    +0.000 A 
ATOM     21  C   UNL     1       5.946   3.930  14.378  0.00  0.00    +0.000 A 
ATOM     22  C   UNL     1       7.037   4.750  14.131  0.00  0.00    +0.000 A 
ATOM     23  N   UNL     1       7.620   5.527  15.069  0.00  0.00    +0.000 NA
ATOM     24  C   UNL     1       7.082   5.489  16.315  0.00  0.00    +0.000 A 
ENDBRANCH  15  19
ENDBRANCH  13  14
ENDBRANCH   1  13
TORSDOF 5
ENDMDL
MODEL 4
REMARK VINA RESULT:      -7.5      1.104      1.200
REMARK  Name = 
REMARK  6 active torsions:
REMARK  status: ('A' for Active; 'I' for Inactive)
REMARK    1  A    between atoms: C_1  and  C_2
REMARK    2  A    between atoms: C_5  and  C_6
REMARK    3  A    between atoms: C_6  and  O_8
REMARK    4  A    between atoms: O_8  and  N_9
REMARK    5  A    between atoms: C_10  and  C_12
REMARK    6  A    between atoms: C_19  and  N_20
REMARK                            x       y       z     vdW  Elec       q    Type
REMARK                         _______ _______ _______ _____ _____    ______ ____
ROOT
ATOM      1  C   UNL     1       4.290   6.626  17.773  0.00  0.00    +0.000 C 
ATOM      2  O   UNL     1       3.789   7.726  17.591  0.00  0.00    +0.000 OA
ENDROOT
BRANCH   1   7
ATOM      3  C   UNL     1       1.193   1.931  19.310  0.00  0.00    +0.000 C 
ATOM      4  C   UNL     1       2.016   3.140  18.960  0.00  0.00    +0.000 A 
ATOM      5  C   UNL     1       1.525   4.057  18.020  0.00  0.00    +0.000 A 
ATOM      6  C   UNL     1       2.264   5.195  17.673  0.00  0.00    +0.000 A 
ATOM      7  C   UNL     1       3.515   5.447  18.256  0.00  0.00    +0.000 A 
ATOM      8  C   UNL     1       4.019   4.547  19.201  0.00  0.00    +0.000 A 
ATOM      9  C   UNL     1       3.271   3.409  19.538  0.00  0.00    +0.000 A 
BRANCH   9  10
ATOM     10  N   UNL     1       3.848   2.506  20.523  0.00  0.00    +0.000 N 
ATOM     11  O   UNL     1       4.883   1.906  20.212  0.00  0.00    +0.000 OA
ATOM     12  O   UNL     1       3.269   2.430  21.617  0.00  0.00    +0.000 OA
ENDBRANCH   9  10
ENDBRANCH   1   7
BRANCH   1  13
ATOM     13  O   UNL     1       5.586   6.269  17.543  0.00  0.00    +0.000 OA
BRANCH  13  14
ATOM     14  N   UNL     1       5.763   6.097  16.158  0.00  0.00    +0.000 NA
ATOM     15  C   UNL     1       6.577   5.117  15.900  0.00  0.00    +0.000 C 
ATOM     16  N   UNL     1       7.304   4.452  16.861  0.00  0.00    +0.000 N 
ATOM     17  H   UNL     1       7.382   4.991  17.719  0.00  0.00    +0.000 HD
ATOM     18  H   UNL     1       8.211   4.112  16.558  0.00  0.00    +0.000 HD
BRANCH  15  19
ATOM     19  C   UNL     1       6.713   4.695  14.478  0.00  0.00    +0.000 A 
ATOM     20  C   UNL     1       5.864   3.734  13.924  0.00  0.00    +0.000 A 
ATOM     21  C   UNL     1       5.996   3.401  12.577  0.00  0.00    +0.000 A 
ATOM     22  C   UNL     1       6.978   4.038  11.835  0.00  0.00    +0.000 A 
ATOM     23  N   UNL     1       7.814   4.972  12.338  0.00  0.00    +0.000 NA
ATOM     24  C   UNL     1       7.656   5.290  13.649  0.00  0.00    +0.000 A 
ENDBRANCH  15  19
ENDBRANCH  13  14
ENDBRANCH   1  13
TORSDOF 5
ENDMDL
MODEL 5
REMARK VINA RESULT:      -7.5      3.673      5.039
REMARK  Name = 
REMARK  6 active torsions:
REMARK  status: ('A' for Active; 'I' for Inactive)
REMARK    1  A    between atoms: C_1  and  C_2
REMARK    2  A    between atoms: C_5  and  C_6
REMARK    3  A    between atoms: C_6  and  O_8
REMARK    4  A    between atoms: O_8  and  N_9
REMARK    5  A    between atoms: C_10  and  C_12
REMARK    6  A    between atoms: C_19  and  N_20
REMARK                            x       y       z     vdW  Elec       q    Type
REMARK                         _______ _______ _______ _____ _____    ______ ____
ROOT
ATOM      1  C   UNL     1       5.988   6.257  16.291  0.00  0.00    +0.000 C 
ATOM      2  O   UNL     1       5.657   6.424  15.127  0.00  0.00    +0.000 OA
ENDROOT
BRANCH   1   7
ATOM      3  C   UNL     1       2.068   4.414  20.193  0.00  0.00    +0.000 C 
ATOM      4  C   UNL     1       3.112   4.853  19.204  0.00  0.00    +0.000 A 
ATOM      5  C   UNL     1       3.088   6.167  18.716  0.00  0.00    +0.000 A 
ATOM      6  C   UNL     1       4.047   6.610  17.797  0.00  0.00    +0.000 A 
ATOM      7  C   UNL     1       5.057   5.750  17.340  0.00  0.00    +0.000 A 
ATOM      8  C   UNL     1       5.103   4.437  17.820  0.00  0.00    +0.000 A 
ATOM      9  C   UNL     1       4.134   4.005  18.739  0.00  0.00    +0.000 A 
BRANCH   9  10
ATOM     10  N   UNL     1       4.229   2.627  19.200  0.00  0.00    +0.000 N 
ATOM     11  O   UNL     1       3.587   1.771  18.579  0.00  0.00    +0.000 OA
ATOM     12  O   UNL     1       4.974   2.412  20.167  0.00  0.00    +0.000 OA
ENDBRANCH   9  10
ENDBRANCH   1   7
BRANCH   1  13
ATOM     13  O   UNL     1       7.227   6.456  16.826  0.00  0.00    +0.000 OA
BRANCH  13  14
ATOM     14  N   UNL     1       7.409   7.837  17.031  0.00  0.00    +0.000 NA
ATOM     15  C   UNL     1       8.087   8.072  18.114  0.00  0.00    +0.000 C 
ATOM     16  N   UNL     1       8.428   7.103  19.030  0.00  0.00    +0.000 N 
ATOM     17  H   UNL     1       7.846   6.275  18.941  0.00  0.00    +0.000 HD
ATOM     18  H   UNL     1       8.475   7.417  19.994  0.00  0.00    +0.000 HD
BRANCH  15  19
ATOM     19  C   UNL     1       8.521   9.476  18.360  0.00  0.00    +0.000 A 
ATOM     20  C   UNL     1       9.402   9.789  19.398  0.00  0.00    +0.000 A 
ATOM     21  C   UNL     1       9.819  11.108  19.566  0.00  0.00    +0.000 A 
ATOM     22  C   UNL     1       9.333  12.068  18.691  0.00  0.00    +0.000 A 
ATOM     23  N   UNL     1       8.483  11.800  17.677  0.00  0.00    +0.000 NA
ATOM     24  C   UNL     1       8.103  10.505  17.525  0.00  0.00    +0.000 A 
ENDBRANCH  15  19
ENDBRANCH  13  14
ENDBRANCH   1  13
TORSDOF 5
ENDMDL
MODEL 6
REMARK VINA RESULT:      -7.4      3.733      5.132
REMARK  Name = 
REMARK  6 active torsions:
REMARK  status: ('A' for Active; 'I' for Inactive)
REMARK    1  A    between atoms: C_1  and  C_2
REMARK    2  A    between atoms: C_5  and  C_6
REMARK    3  A    between atoms: C_6  and  O_8
REMARK    4  A    between atoms: O_8  and  N_9
REMARK    5  A    between atoms: C_10  and  C_12
REMARK    6  A    between atoms: C_19  and  N_20
REMARK                            x       y       z     vdW  Elec       q    Type
REMARK                         _______ _______ _______ _____ _____    ______ ____
ROOT
ATOM      1  C   UNL     1       5.675   6.616  16.298  0.00  0.00    +0.000 C 
ATOM      2  O   UNL     1       5.332   6.886  15.156  0.00  0.00    +0.000 OA
ENDROOT
BRANCH   1   7
ATOM      3  C   UNL     1       1.739   4.603  20.099  0.00  0.00    +0.000 C 
ATOM      4  C   UNL     1       2.788   5.086  19.137  0.00  0.00    +0.000 A 
ATOM      5  C   UNL     1       2.728   6.402  18.658  0.00  0.00    +0.000 A 
ATOM      6  C   UNL     1       3.690   6.887  17.763  0.00  0.00    +0.000 A 
ATOM      7  C   UNL     1       4.739   6.067  17.322  0.00  0.00    +0.000 A 
ATOM      8  C   UNL     1       4.821   4.752  17.792  0.00  0.00    +0.000 A 
ATOM      9  C   UNL     1       3.849   4.278  18.686  0.00  0.00    +0.000 A 
BRANCH   9  10
ATOM     10  N   UNL     1       3.982   2.901  19.138  0.00  0.00    +0.000 N 
ATOM     11  O   UNL     1       4.861   2.654  19.972  0.00  0.00    +0.000 OA
ATOM     12  O   UNL     1       3.177   2.081  18.672  0.00  0.00    +0.000 OA
ENDBRANCH   9  10
ENDBRANCH   1   7
BRANCH   1  13
ATOM     13  O   UNL     1       6.929   6.720  16.822  0.00  0.00    +0.000 OA
BRANCH  13  14
ATOM     14  N   UNL     1       7.194   8.078  17.081  0.00  0.00    +0.000 NA
ATOM     15  C   UNL     1       8.018   8.222  18.074  0.00  0.00    +0.000 C 
ATOM     16  N   UNL     1       8.438   7.186  18.878  0.00  0.00    +0.000 N 
ATOM     17  H   UNL     1       7.815   6.385  18.820  0.00  0.00    +0.000 HD
ATOM     18  H   UNL     1       8.625   7.437  19.844  0.00  0.00    +0.000 HD
BRANCH  15  19
ATOM     19  C   UNL     1       8.539   9.592  18.341  0.00  0.00    +0.000 A 
ATOM     20  C   UNL     1       8.211  10.665  17.508  0.00  0.00    +0.000 A 
ATOM     21  C   UNL     1       8.682  11.940  17.820  0.00  0.00    +0.000 A 
ATOM     22  C   UNL     1       9.468  12.093  18.951  0.00  0.00    +0.000 A 
ATOM     23  N   UNL     1       9.801  11.078  19.778  0.00  0.00    +0.000 NA
ATOM     24  C   UNL     1       9.318   9.849  19.462  0.00  0.00    +0.000 A 
ENDBRANCH  15  19
ENDBRANCH  13  14
ENDBRANCH   1  13
TORSDOF 5
ENDMDL
MODEL 7
REMARK VINA RESULT:      -7.3      1.173      1.451
REMARK  Name = 
REMARK  6 active torsions:
REMARK  status: ('A' for Active; 'I' for Inactive)
REMARK    1  A    between atoms: C_1  and  C_2
REMARK    2  A    between atoms: C_5  and  C_6
REMARK    3  A    between atoms: C_6  and  O_8
REMARK    4  A    between atoms: O_8  and  N_9
REMARK    5  A    between atoms: C_10  and  C_12
REMARK    6  A    between atoms: C_19  and  N_20
REMARK                            x       y       z     vdW  Elec       q    Type
REMARK                         _______ _______ _______ _____ _____    ______ ____
ROOT
ATOM      1  C   UNL     1       4.451   6.674  17.711  0.00  0.00    +0.000 C 
ATOM      2  O   UNL     1       3.979   7.797  17.613  0.00  0.00    +0.000 OA
ENDROOT
BRANCH   1   7
ATOM      3  C   UNL     1       1.120   2.052  18.947  0.00  0.00    +0.000 C 
ATOM      4  C   UNL     1       2.015   3.225  18.661  0.00  0.00    +0.000 A 
ATOM      5  C   UNL     1       1.450   4.429  18.220  0.00  0.00    +0.000 A 
ATOM      6  C   UNL     1       2.254   5.544  17.947  0.00  0.00    +0.000 A 
ATOM      7  C   UNL     1       3.646   5.483  18.108  0.00  0.00    +0.000 A 
ATOM      8  C   UNL     1       4.229   4.292  18.554  0.00  0.00    +0.000 A 
ATOM      9  C   UNL     1       3.413   3.182  18.821  0.00  0.00    +0.000 A 
BRANCH   9  10
ATOM     10  N   UNL     1       4.075   1.969  19.277  0.00  0.00    +0.000 N 
ATOM     11  O   UNL     1       3.992   0.966  18.558  0.00  0.00    +0.000 OA
ATOM     12  O   UNL     1       4.702   2.043  20.344  0.00  0.00    +0.000 OA
ENDBRANCH   9  10
ENDBRANCH   1   7
BRANCH   1  13
ATOM     13  O   UNL     1       5.736   6.301  17.449  0.00  0.00    +0.000 OA
BRANCH  13  14
ATOM     14  N   UNL     1       5.883   6.145  16.058  0.00  0.00    +0.000 NA
ATOM     15  C   UNL     1       6.658   5.144  15.771  0.00  0.00    +0.000 C 
ATOM     16  N   UNL     1       7.380   4.440  16.707  0.00  0.00    +0.000 N 
ATOM     17  H   UNL     1       7.492   4.963  17.572  0.00  0.00    +0.000 HD
ATOM     18  H   UNL     1       8.270   4.075  16.383  0.00  0.00    +0.000 HD
BRANCH  15  19
ATOM     19  C   UNL     1       6.755   4.740  14.340  0.00  0.00    +0.000 A 
ATOM     20  C   UNL     1       7.669   5.350  13.476  0.00  0.00    +0.000 A 
ATOM     21  C   UNL     1       7.759   4.911  12.157  0.00  0.00    +0.000 A 
ATOM     22  C   UNL     1       6.928   3.880  11.748  0.00  0.00    +0.000 A 
ATOM     23  N   UNL     1       6.036   3.268  12.556  0.00  0.00    +0.000 NA
ATOM     24  C   UNL     1       5.977   3.703  13.841  0.00  0.00    +0.000 A 
ENDBRANCH  15  19
ENDBRANCH  13  14
ENDBRANCH   1  13
TORSDOF 5
ENDMDL
MODEL 8
REMARK VINA RESULT:      -7.3      1.048      1.559
REMARK  Name = 
REMARK  6 active torsions:
REMARK  status: ('A' for Active; 'I' for Inactive)
REMARK    1  A    between atoms: C_1  and  C_2
REMARK    2  A    between atoms: C_5  and  C_6
REMARK    3  A    between atoms: C_6  and  O_8
REMARK    4  A    between atoms: O_8  and  N_9
REMARK    5  A    between atoms: C_10  and  C_12
REMARK    6  A    between atoms: C_19  and  N_20
REMARK                            x       y       z     vdW  Elec       q    Type
REMARK                         _______ _______ _______ _____ _____    ______ ____
ROOT
ATOM      1  C   UNL     1       4.123   6.775  17.698  0.00  0.00    +0.000 C 
ATOM      2  O   UNL     1       3.536   7.708  17.168  0.00  0.00    +0.000 OA
ENDROOT
BRANCH   1   7
ATOM      3  C   UNL     1       1.171   3.033  21.056  0.00  0.00    +0.000 C 
ATOM      4  C   UNL     1       1.958   3.957  20.169  0.00  0.00    +0.000 A 
ATOM      5  C   UNL     1       2.152   5.288  20.563  0.00  0.00    +0.000 A 
ATOM      6  C   UNL     1       2.882   6.176  19.763  0.00  0.00    +0.000 A 
ATOM      7  C   UNL     1       3.438   5.756  18.545  0.00  0.00    +0.000 A 
ATOM      8  C   UNL     1       3.261   4.430  18.137  0.00  0.00    +0.000 A 
ATOM      9  C   UNL     1       2.525   3.552  18.946  0.00  0.00    +0.000 A 
BRANCH   9  10
ATOM     10  N   UNL     1       2.369   2.186  18.468  0.00  0.00    +0.000 N 
ATOM     11  O   UNL     1       3.334   1.422  18.592  0.00  0.00    +0.000 OA
ATOM     12  O   UNL     1       1.263   1.882  17.998  0.00  0.00    +0.000 OA
ENDBRANCH   9  10
ENDBRANCH   1   7
BRANCH   1  13
ATOM     13  O   UNL     1       5.449   6.476  17.591  0.00  0.00    +0.000 OA
BRANCH  13  14
ATOM     14  N   UNL     1       5.765   6.328  16.227  0.00  0.00    +0.000 NA
ATOM     15  C   UNL     1       6.333   5.184  15.992  0.00  0.00    +0.000 C 
ATOM     16  N   UNL     1       6.729   4.308  16.977  0.00  0.00    +0.000 N 
ATOM     17  H   UNL     1       6.822   4.767  17.879  0.00  0.00    +0.000 HD
ATOM     18  H   UNL     1       7.554   3.757  16.760  0.00  0.00    +0.000 HD
BRANCH  15  19
ATOM     19  C   UNL     1       6.552   4.807  14.568  0.00  0.00    +0.000 A 
ATOM     20  C   UNL     1       7.572   5.393  13.813  0.00  0.00    +0.000 A 
ATOM     21  C   UNL     1       7.772   4.979  12.498  0.00  0.00    +0.000 A 
ATOM     22  C   UNL     1       6.942   3.997  11.983  0.00  0.00    +0.000 A 
ATOM     23  N   UNL     1       5.949   3.408  12.684  0.00  0.00    +0.000 NA
ATOM     24  C   UNL     1       5.783   3.818  13.968  0.00  0.00    +0.000 A 
ENDBRANCH  15  19
ENDBRANCH  13  14
ENDBRANCH   1  13
TORSDOF 5
ENDMDL
MODEL 9
REMARK VINA RESULT:      -7.3      3.993      5.365
REMARK  Name = 
REMARK  6 active torsions:
REMARK  status: ('A' for Active; 'I' for Inactive)
REMARK    1  A    between atoms: C_1  and  C_2
REMARK    2  A    between atoms: C_5  and  C_6
REMARK    3  A    between atoms: C_6  and  O_8
REMARK    4  A    between atoms: O_8  and  N_9
REMARK    5  A    between atoms: C_10  and  C_12
REMARK    6  A    between atoms: C_19  and  N_20
REMARK                            x       y       z     vdW  Elec       q    Type
REMARK                         _______ _______ _______ _____ _____    ______ ____
ROOT
ATOM      1  C   UNL     1       5.921   6.491  16.472  0.00  0.00    +0.000 C 
ATOM      2  O   UNL     1       5.391   6.980  15.485  0.00  0.00    +0.000 OA
ENDROOT
BRANCH   1   7
ATOM      3  C   UNL     1       3.217   3.026  20.303  0.00  0.00    +0.000 C 
ATOM      4  C   UNL     1       3.893   3.892  19.276  0.00  0.00    +0.000 A 
ATOM      5  C   UNL     1       5.068   4.575  19.619  0.00  0.00    +0.000 A 
ATOM      6  C   UNL     1       5.725   5.388  18.686  0.00  0.00    +0.000 A 
ATOM      7  C   UNL     1       5.224   5.539  17.384  0.00  0.00    +0.000 A 
ATOM      8  C   UNL     1       4.057   4.860  17.020  0.00  0.00    +0.000 A 
ATOM      9  C   UNL     1       3.407   4.051  17.965  0.00  0.00    +0.000 A 
BRANCH   9  10
ATOM     10  N   UNL     1       2.194   3.374  17.531  0.00  0.00    +0.000 N 
ATOM     11  O   UNL     1       1.153   4.039  17.480  0.00  0.00    +0.000 OA
ATOM     12  O   UNL     1       2.304   2.180  17.215  0.00  0.00    +0.000 OA
ENDBRANCH   9  10
ENDBRANCH   1   7
BRANCH   1  13
ATOM     13  O   UNL     1       7.204   6.682  16.890  0.00  0.00    +0.000 OA
BRANCH  13  14
ATOM     14  N   UNL     1       7.404   8.058  17.108  0.00  0.00    +0.000 NA
ATOM     15  C   UNL     1       8.139   8.272  18.158  0.00  0.00    +0.000 C 
ATOM     16  N   UNL     1       8.522   7.286  19.038  0.00  0.00    +0.000 N 
ATOM     17  H   UNL     1       7.932   6.462  18.966  0.00  0.00    +0.000 HD
ATOM     18  H   UNL     1       8.620   7.584  20.004  0.00  0.00    +0.000 HD
BRANCH  15  19
ATOM     19  C   UNL     1       8.592   9.670  18.404  0.00  0.00    +0.000 A 
ATOM     20  C   UNL     1       9.452   9.975  19.463  0.00  0.00    +0.000 A 
ATOM     21  C   UNL     1       9.888  11.288  19.631  0.00  0.00    +0.000 A 
ATOM     22  C   UNL     1       9.444  12.249  18.737  0.00  0.00    +0.000 A 
ATOM     23  N   UNL     1       8.615  11.988  17.703  0.00  0.00    +0.000 NA
ATOM     24  C   UNL     1       8.215  10.699  17.551  0.00  0.00    +0.000 A 
ENDBRANCH  15  19
ENDBRANCH  13  14
ENDBRANCH   1  13
TORSDOF 5
ENDMDL
