MODEL 1
REMARK VINA RESULT:      -6.4      0.000      0.000
REMARK  Name = 
REMARK  2 active torsions:
REMARK  status: ('A' for Active; 'I' for Inactive)
REMARK    1  A    between atoms: C_1  and  O_2
REMARK    2  A    between atoms: O_2  and  P_3
REMARK                            x       y       z     vdW  Elec       q    Type
REMARK                         _______ _______ _______ _____ _____    ______ ____
ROOT
ATOM      1  P   UNL     1       5.578   4.881  17.719  0.00  0.00    +0.000 P 
ATOM      2  S   UNL     1       6.924   6.219  17.396  0.00  0.00    +0.000 S 
ATOM      3  N   UNL     1       5.758   3.780  18.934  0.00  0.00    +0.000 NA
ATOM      4  C   UNL     1       4.422   3.243  19.202  0.00  0.00    +0.000 C 
ATOM      5  C   UNL     1       3.403   4.397  18.915  0.00  0.00    +0.000 C 
ATOM      6  C   UNL     1       2.861   4.996  20.222  0.00  0.00    +0.000 C 
ATOM      7  C   UNL     1       1.900   4.033  20.932  0.00  0.00    +0.000 C 
ATOM      8  C   UNL     1       0.763   3.572  20.018  0.00  0.00    +0.000 C 
ATOM      9  C   UNL     1       1.273   3.008  18.698  0.00  0.00    +0.000 C 
ATOM     10  C   UNL     1       2.233   3.969  18.018  0.00  0.00    +0.000 C 
ATOM     11  O   UNL     1       4.110   5.411  18.164  0.00  0.00    +0.000 OA
ATOM     12  H   UNL     1       6.410   3.034  18.715  0.00  0.00    +0.000 HD
ENDROOT
BRANCH   1  14
ATOM     13  C   UNL     1       6.062   3.892  15.340  0.00  0.00    +0.000 C 
ATOM     14  O   UNL     1       5.210   3.929  16.466  0.00  0.00    +0.000 OA
ENDBRANCH   1  14
TORSDOF 1
ENDMDL
MODEL 2
REMARK VINA RESULT:      -6.1      1.817      2.314
REMARK  Name = 
REMARK  2 active torsions:
REMARK  status: ('A' for Active; 'I' for Inactive)
REMARK    1  A    between atoms: C_1  and  O_2
REMARK    2  A    between atoms: O_2  and  P_3
REMARK                            x       y       z     vdW  Elec       q    Type
REMARK                         _______ _______ _______ _____ _____    ______ ____
ROOT
ATOM      1  P   UNL     1       5.020   4.406  17.294  0.00  0.00    +0.000 P 
ATOM      2  S   UNL     1       5.593   4.398  15.456  0.00  0.00    +0.000 S 
ATOM      3  N   UNL     1       4.163   5.676  17.905  0.00  0.00    +0.000 NA
ATOM      4  C   UNL     1       3.511   5.183  19.120  0.00  0.00    +0.000 C 
ATOM      5  C   UNL     1       3.199   3.667  18.884  0.00  0.00    +0.000 C 
ATOM      6  C   UNL     1       1.703   3.443  18.610  0.00  0.00    +0.000 C 
ATOM      7  C   UNL     1       0.859   3.642  19.876  0.00  0.00    +0.000 C 
ATOM      8  C   UNL     1       1.346   2.775  21.039  0.00  0.00    +0.000 C 
ATOM      9  C   UNL     1       2.835   2.951  21.307  0.00  0.00    +0.000 C 
ATOM     10  C   UNL     1       3.653   2.764  20.040  0.00  0.00    +0.000 C 
ATOM     11  O   UNL     1       3.978   3.245  17.741  0.00  0.00    +0.000 OA
ATOM     12  H   UNL     1       4.731   6.492  18.106  0.00  0.00    +0.000 HD
ENDROOT
BRANCH   1  14
ATOM     13  C   UNL     1       7.488   4.712  18.126  0.00  0.00    +0.000 C 
ATOM     14  O   UNL     1       6.186   4.236  18.400  0.00  0.00    +0.000 OA
ENDBRANCH   1  14
TORSDOF 1
ENDMDL
MODEL 3
REMARK VINA RESULT:      -5.8      1.580      1.914
REMARK  Name = 
REMARK  2 active torsions:
REMARK  status: ('A' for Active; 'I' for Inactive)
REMARK    1  A    between atoms: C_1  and  O_2
REMARK    2  A    between atoms: O_2  and  P_3
REMARK                            x       y       z     vdW  Elec       q    Type
REMARK                         _______ _______ _______ _____ _____    ______ ____
ROOT
ATOM      1  P   UNL     1       5.593   4.673  17.861  0.00  0.00    +0.000 P 
ATOM      2  S   UNL     1       7.506   4.679  17.645  0.00  0.00    +0.000 S 
ATOM      3  N   UNL     1       4.668   3.499  17.162  0.00  0.00    +0.000 NA
ATOM      4  C   UNL     1       3.388   3.509  17.872  0.00  0.00    +0.000 C 
ATOM      5  C   UNL     1       3.692   3.924  19.350  0.00  0.00    +0.000 C 
ATOM      6  C   UNL     1       3.618   2.713  20.294  0.00  0.00    +0.000 C 
ATOM      7  C   UNL     1       2.173   2.240  20.497  0.00  0.00    +0.000 C 
ATOM      8  C   UNL     1       1.255   3.369  20.970  0.00  0.00    +0.000 C 
ATOM      9  C   UNL     1       1.338   4.597  20.072  0.00  0.00    +0.000 C 
ATOM     10  C   UNL     1       2.777   5.042  19.871  0.00  0.00    +0.000 C 
ATOM     11  O   UNL     1       5.026   4.483  19.369  0.00  0.00    +0.000 OA
ATOM     12  H   UNL     1       4.530   3.629  16.165  0.00  0.00    +0.000 HD
ENDROOT
BRANCH   1  14
ATOM     13  C   UNL     1       5.079   6.564  16.118  0.00  0.00    +0.000 C 
ATOM     14  O   UNL     1       4.824   6.016  17.395  0.00  0.00    +0.000 OA
ENDBRANCH   1  14
TORSDOF 1
ENDMDL
MODEL 4
REMARK VINA RESULT:      -5.7      1.669      1.896
REMARK  Name = 
REMARK  2 active torsions:
REMARK  status: ('A' for Active; 'I' for Inactive)
REMARK    1  A    between atoms: C_1  and  O_2
REMARK    2  A    between atoms: O_2  and  P_3
REMARK                            x       y       z     vdW  Elec       q    Type
REMARK                         _______ _______ _______ _____ _____    ______ ____
ROOT
ATOM      1  P   UNL     1       5.921   5.274  18.237  0.00  0.00    +0.000 P 
ATOM      2  S   UNL     1       7.612   5.785  19.004  0.00  0.00    +0.000 S 
ATOM      3  N   UNL     1       5.804   3.949  17.263  0.00  0.00    +0.000 NA
ATOM      4  C   UNL     1       4.386   3.584  17.236  0.00  0.00    +0.000 C 
ATOM      5  C   UNL     1       3.792   3.970  18.633  0.00  0.00    +0.000 C 
ATOM      6  C   UNL     1       3.566   2.723  19.503  0.00  0.00    +0.000 C 
ATOM      7  C   UNL     1       2.388   1.882  18.994  0.00  0.00    +0.000 C 
ATOM      8  C   UNL     1       1.105   2.705  18.858  0.00  0.00    +0.000 C 
ATOM      9  C   UNL     1       1.312   3.967  18.030  0.00  0.00    +0.000 C 
ATOM     10  C   UNL     1       2.491   4.779  18.541  0.00  0.00    +0.000 C 
ATOM     11  O   UNL     1       4.746   4.850  19.272  0.00  0.00    +0.000 OA
ATOM     12  H   UNL     1       6.155   4.102  16.322  0.00  0.00    +0.000 HD
ENDROOT
BRANCH   1  14
ATOM     13  C   UNL     1       5.435   6.485  15.962  0.00  0.00    +0.000 C 
ATOM     14  O   UNL     1       5.178   6.401  17.348  0.00  0.00    +0.000 OA
ENDBRANCH   1  14
TORSDOF 1
ENDMDL
MODEL 5
REMARK VINA RESULT:      -5.7      3.323      4.904
REMARK  Name = 
REMARK  2 active torsions:
REMARK  status: ('A' for Active; 'I' for Inactive)
REMARK    1  A    between atoms: C_1  and  O_2
REMARK    2  A    between atoms: O_2  and  P_3
REMARK                            x       y       z     vdW  Elec       q    Type
REMARK                         _______ _______ _______ _____ _____    ______ ____
ROOT
ATOM      1  P   UNL     1       3.524   3.978  18.010  0.00  0.00    +0.000 P 
ATOM      2  S   UNL     1       1.609   3.902  17.827  0.00  0.00    +0.000 S 
ATOM      3  N   UNL     1       4.504   3.803  16.695  0.00  0.00    +0.000 NA
ATOM      4  C   UNL     1       5.805   4.356  17.077  0.00  0.00    +0.000 C 
ATOM      5  C   UNL     1       5.523   5.524  18.082  0.00  0.00    +0.000 C 
ATOM      6  C   UNL     1       5.716   6.893  17.411  0.00  0.00    +0.000 C 
ATOM      7  C   UNL     1       7.198   7.191  17.145  0.00  0.00    +0.000 C 
ATOM      8  C   UNL     1       8.049   7.068  18.410  0.00  0.00    +0.000 C 
ATOM      9  C   UNL     1       7.847   5.733  19.116  0.00  0.00    +0.000 C 
ATOM     10  C   UNL     1       6.374   5.450  19.357  0.00  0.00    +0.000 C 
ATOM     11  O   UNL     1       4.154   5.381  18.526  0.00  0.00    +0.000 OA
ATOM     12  H   UNL     1       4.599   2.841  16.383  0.00  0.00    +0.000 HD
ENDROOT
BRANCH   1  14
ATOM     13  C   UNL     1       3.557   2.695  20.296  0.00  0.00    +0.000 C 
ATOM     14  O   UNL     1       4.178   2.928  19.049  0.00  0.00    +0.000 OA
ENDBRANCH   1  14
TORSDOF 1
ENDMDL
MODEL 6
REMARK VINA RESULT:      -5.7      3.131      4.641
REMARK  Name = 
REMARK  2 active torsions:
REMARK  status: ('A' for Active; 'I' for Inactive)
REMARK    1  A    between atoms: C_1  and  O_2
REMARK    2  A    between atoms: O_2  and  P_3
REMARK                            x       y       z     vdW  Elec       q    Type
REMARK                         _______ _______ _______ _____ _____    ______ ____
ROOT
ATOM      1  P   UNL     1       2.677   4.058  20.048  0.00  0.00    +0.000 P 
ATOM      2  S   UNL     1       2.196   3.096  21.645  0.00  0.00    +0.000 S 
ATOM      3  N   UNL     1       2.894   5.692  20.081  0.00  0.00    +0.000 NA
ATOM      4  C   UNL     1       3.672   6.027  18.886  0.00  0.00    +0.000 C 
ATOM      5  C   UNL     1       4.609   4.806  18.599  0.00  0.00    +0.000 C 
ATOM      6  C   UNL     1       6.060   5.113  19.000  0.00  0.00    +0.000 C 
ATOM      7  C   UNL     1       6.714   6.116  18.041  0.00  0.00    +0.000 C 
ATOM      8  C   UNL     1       6.626   5.663  16.582  0.00  0.00    +0.000 C 
ATOM      9  C   UNL     1       5.200   5.316  16.169  0.00  0.00    +0.000 C 
ATOM     10  C   UNL     1       4.566   4.334  17.139  0.00  0.00    +0.000 C 
ATOM     11  O   UNL     1       4.108   3.693  19.376  0.00  0.00    +0.000 OA
ATOM     12  H   UNL     1       2.026   6.219  20.105  0.00  0.00    +0.000 HD
ENDROOT
BRANCH   1  14
ATOM     13  C   UNL     1       0.973   2.674  18.613  0.00  0.00    +0.000 C 
ATOM     14  O   UNL     1       1.676   3.886  18.790  0.00  0.00    +0.000 OA
ENDBRANCH   1  14
TORSDOF 1
ENDMDL
MODEL 7
REMARK VINA RESULT:      -5.5      1.962      2.581
REMARK  Name = 
REMARK  2 active torsions:
REMARK  status: ('A' for Active; 'I' for Inactive)
REMARK    1  A    between atoms: C_1  and  O_2
REMARK    2  A    between atoms: O_2  and  P_3
REMARK                            x       y       z     vdW  Elec       q    Type
REMARK                         _______ _______ _______ _____ _____    ______ ____
ROOT
ATOM      1  P   UNL     1       5.827   5.027  16.449  0.00  0.00    +0.000 P 
ATOM      2  S   UNL     1       6.850   4.753  14.841  0.00  0.00    +0.000 S 
ATOM      3  N   UNL     1       4.623   6.152  16.501  0.00  0.00    +0.000 NA
ATOM      4  C   UNL     1       3.778   5.797  17.643  0.00  0.00    +0.000 C 
ATOM      5  C   UNL     1       3.822   4.238  17.772  0.00  0.00    +0.000 C 
ATOM      6  C   UNL     1       2.516   3.602  17.268  0.00  0.00    +0.000 C 
ATOM      7  C   UNL     1       1.350   3.864  18.229  0.00  0.00    +0.000 C 
ATOM      8  C   UNL     1       1.667   3.421  19.659  0.00  0.00    +0.000 C 
ATOM      9  C   UNL     1       2.978   4.008  20.169  0.00  0.00    +0.000 C 
ATOM     10  C   UNL     1       4.117   3.750  19.197  0.00  0.00    +0.000 C 
ATOM     11  O   UNL     1       4.935   3.776  16.972  0.00  0.00    +0.000 OA
ATOM     12  H   UNL     1       4.960   7.107  16.584  0.00  0.00    +0.000 HD
ENDROOT
BRANCH   1  14
ATOM     13  C   UNL     1       7.840   4.658  18.089  0.00  0.00    +0.000 C 
ATOM     14  O   UNL     1       6.676   5.394  17.775  0.00  0.00    +0.000 OA
ENDBRANCH   1  14
TORSDOF 1
ENDMDL
MODEL 8
REMARK VINA RESULT:      -5.5      3.337      4.717
REMARK  Name = 
REMARK  2 active torsions:
REMARK  status: ('A' for Active; 'I' for Inactive)
REMARK    1  A    between atoms: C_1  and  O_2
REMARK    2  A    between atoms: O_2  and  P_3
REMARK                            x       y       z     vdW  Elec       q    Type
REMARK                         _______ _______ _______ _____ _____    ______ ____
ROOT
ATOM      1  P   UNL     1       2.796   3.428  18.880  0.00  0.00    +0.000 P 
ATOM      2  S   UNL     1       1.119   3.408  19.825  0.00  0.00    +0.000 S 
ATOM      3  N   UNL     1       2.835   3.491  17.232  0.00  0.00    +0.000 NA
ATOM      4  C   UNL     1       4.178   3.949  16.871  0.00  0.00    +0.000 C 
ATOM      5  C   UNL     1       4.651   4.911  18.012  0.00  0.00    +0.000 C 
ATOM      6  C   UNL     1       4.589   6.379  17.562  0.00  0.00    +0.000 C 
ATOM      7  C   UNL     1       5.685   6.705  16.538  0.00  0.00    +0.000 C 
ATOM      8  C   UNL     1       7.080   6.339  17.047  0.00  0.00    +0.000 C 
ATOM      9  C   UNL     1       7.158   4.897  17.535  0.00  0.00    +0.000 C 
ATOM     10  C   UNL     1       6.058   4.590  18.536  0.00  0.00    +0.000 C 
ATOM     11  O   UNL     1       3.767   4.703  19.137  0.00  0.00    +0.000 OA
ATOM     12  H   UNL     1       2.624   2.604  16.786  0.00  0.00    +0.000 HD
ENDROOT
BRANCH   1  14
ATOM     13  C   UNL     1       4.371   2.059  20.467  0.00  0.00    +0.000 C 
ATOM     14  O   UNL     1       3.796   2.195  19.185  0.00  0.00    +0.000 OA
ENDBRANCH   1  14
TORSDOF 1
ENDMDL
MODEL 9
REMARK VINA RESULT:      -5.4      1.561      1.914
REMARK  Name = 
REMARK  2 active torsions:
REMARK  status: ('A' for Active; 'I' for Inactive)
REMARK    1  A    between atoms: C_1  and  O_2
REMARK    2  A    between atoms: O_2  and  P_3
REMARK                            x       y       z     vdW  Elec       q    Type
REMARK                         _______ _______ _______ _____ _____    ______ ____
ROOT
ATOM      1  P   UNL     1       5.418   5.577  17.953  0.00  0.00    +0.000 P 
ATOM      2  S   UNL     1       6.137   7.114  17.044  0.00  0.00    +0.000 S 
ATOM      3  N   UNL     1       4.729   5.724  19.444  0.00  0.00    +0.000 NA
ATOM      4  C   UNL     1       3.904   4.529  19.634  0.00  0.00    +0.000 C 
ATOM      5  C   UNL     1       3.373   4.115  18.221  0.00  0.00    +0.000 C 
ATOM      6  C   UNL     1       1.890   4.482  18.056  0.00  0.00    +0.000 C 
ATOM      7  C   UNL     1       0.983   3.576  18.900  0.00  0.00    +0.000 C 
ATOM      8  C   UNL     1       1.223   2.092  18.616  0.00  0.00    +0.000 C 
ATOM      9  C   UNL     1       2.693   1.709  18.737  0.00  0.00    +0.000 C 
ATOM     10  C   UNL     1       3.575   2.626  17.906  0.00  0.00    +0.000 C 
ATOM     11  O   UNL     1       4.168   4.824  17.243  0.00  0.00    +0.000 OA
ATOM     12  H   UNL     1       5.403   5.822  20.197  0.00  0.00    +0.000 HD
ENDROOT
BRANCH   1  14
ATOM     13  C   UNL     1       7.783   4.462  17.756  0.00  0.00    +0.000 C 
ATOM     14  O   UNL     1       6.443   4.349  18.186  0.00  0.00    +0.000 OA
ENDBRANCH   1  14
TORSDOF 1
ENDMDL
