MODEL 1
REMARK VINA RESULT:      -5.7      0.000      0.000
REMARK  Name = 
REMARK  5 active torsions:
REMARK  status: ('A' for Active; 'I' for Inactive)
REMARK    1  A    between atoms: N_1  and  S_2
REMARK    2  A    between atoms: S_2  and  C_5
REMARK    3  A    between atoms: C_7  and  S_8
REMARK    4  A    between atoms: S_8  and  N_9
REMARK    5  A    between atoms: C_12  and  N_13
REMARK                            x       y       z     vdW  Elec       q    Type
REMARK                         _______ _______ _______ _____ _____    ______ ____
ROOT
ATOM      1  C   UNL     1      -5.380  13.193  22.721  0.00  0.00    +0.000 A 
ATOM      2  C   UNL     1      -4.514  13.942  23.527  0.00  0.00    +0.000 A 
ATOM      3  C   UNL     1      -3.195  14.190  23.117  0.00  0.00    +0.000 A 
ATOM      4  C   UNL     1      -2.719  13.666  21.911  0.00  0.00    +0.000 A 
ATOM      5  C   UNL     1      -3.593  12.887  21.113  0.00  0.00    +0.000 A 
ATOM      6 CL   UNL     1      -3.001  12.243  19.600  0.00  0.00    +0.000 Cl
ATOM      7  C   UNL     1      -4.930  12.655  21.510  0.00  0.00    +0.000 A 
ATOM      8 CL   UNL     1      -5.988  11.728  20.491  0.00  0.00    +0.000 Cl
ENDROOT
BRANCH   4   9
ATOM      9  N   UNL     1      -1.403  13.895  21.469  0.00  0.00    +0.000 N 
ATOM     10  C   UNL     1      -1.033  14.942  20.664  0.00  0.00    +0.000 C 
ATOM     11  O   UNL     1      -1.714  15.841  20.208  0.00  0.00    +0.000 OA
ATOM     12  C   UNL     1       0.397  14.788  20.425  0.00  0.00    +0.000 A 
ATOM     13  C   UNL     1       1.299  15.536  19.698  0.00  0.00    +0.000 A 
ATOM     14  C   UNL     1       2.623  15.087  19.692  0.00  0.00    +0.000 A 
ATOM     15  C   UNL     1       2.959  13.927  20.405  0.00  0.00    +0.000 A 
ATOM     16  N   UNL     1       2.075  13.184  21.115  0.00  0.00    +0.000 NA
ATOM     17  C   UNL     1       0.817  13.660  21.092  0.00  0.00    +0.000 A 
ATOM     18  C   UNL     1      -0.348  13.061  21.762  0.00  0.00    +0.000 C 
ATOM     19  O   UNL     1      -0.363  12.044  22.430  0.00  0.00    +0.000 OA
ENDBRANCH   4   9
BRANCH   1  20
ATOM     20  S   UNL     1      -7.076  13.025  23.189  0.00  0.00    +0.000 S 
ATOM     21  O   UNL     1      -7.308  11.669  23.615  0.00  0.00    +0.000 OA
ATOM     22  O   UNL     1      -7.887  13.717  22.218  0.00  0.00    +0.000 OA
BRANCH  20  23
ATOM     23  N   UNL     1      -7.226  13.947  24.593  0.00  0.00    +0.000 NA
ATOM     24  H   UNL     1      -8.188  13.867  24.932  0.00  0.00    +0.000 HD
ATOM     25  H   UNL     1      -6.961  14.914  24.391  0.00  0.00    +0.000 HD
ENDBRANCH  20  23
ENDBRANCH   1  20
BRANCH   3  26
ATOM     26  S   UNL     1      -2.232  15.241  24.170  0.00  0.00    +0.000 S 
ATOM     27  O   UNL     1      -1.036  14.566  24.615  0.00  0.00    +0.000 OA
ATOM     28  O   UNL     1      -2.210  16.556  23.578  0.00  0.00    +0.000 OA
BRANCH  26  29
ATOM     29  N   UNL     1      -3.205  15.365  25.531  0.00  0.00    +0.000 NA
ATOM     30  H   UNL     1      -4.110  15.767  25.277  0.00  0.00    +0.000 HD
ATOM     31  H   UNL     1      -3.285  14.454  25.988  0.00  0.00    +0.000 HD
ENDBRANCH  26  29
ENDBRANCH   3  26
TORSDOF 5
ENDMDL
MODEL 2
REMARK VINA RESULT:      -5.3      0.674      1.700
REMARK  Name = 
REMARK  5 active torsions:
REMARK  status: ('A' for Active; 'I' for Inactive)
REMARK    1  A    between atoms: N_1  and  S_2
REMARK    2  A    between atoms: S_2  and  C_5
REMARK    3  A    between atoms: C_7  and  S_8
REMARK    4  A    between atoms: S_8  and  N_9
REMARK    5  A    between atoms: C_12  and  N_13
REMARK                            x       y       z     vdW  Elec       q    Type
REMARK                         _______ _______ _______ _____ _____    ______ ____
ROOT
ATOM      1  C   UNL     1      -5.374  13.061  22.558  0.00  0.00    +0.000 A 
ATOM      2  C   UNL     1      -4.522  13.803  23.385  0.00  0.00    +0.000 A 
ATOM      3  C   UNL     1      -3.210  14.092  22.980  0.00  0.00    +0.000 A 
ATOM      4  C   UNL     1      -2.727  13.617  21.756  0.00  0.00    +0.000 A 
ATOM      5  C   UNL     1      -3.586  12.846  20.936  0.00  0.00    +0.000 A 
ATOM      6 CL   UNL     1      -2.986  12.263  19.402  0.00  0.00    +0.000 Cl
ATOM      7  C   UNL     1      -4.917  12.572  21.329  0.00  0.00    +0.000 A 
ATOM      8 CL   UNL     1      -5.958  11.656  20.284  0.00  0.00    +0.000 Cl
ENDROOT
BRANCH   4   9
ATOM      9  N   UNL     1      -1.418  13.889  21.318  0.00  0.00    +0.000 N 
ATOM     10  C   UNL     1      -0.333  13.096  21.593  0.00  0.00    +0.000 C 
ATOM     11  O   UNL     1      -0.281  12.052  22.215  0.00  0.00    +0.000 OA
ATOM     12  C   UNL     1       0.818  13.752  20.984  0.00  0.00    +0.000 A 
ATOM     13  C   UNL     1       2.154  13.417  20.936  0.00  0.00    +0.000 A 
ATOM     14  C   UNL     1       2.995  14.295  20.246  0.00  0.00    +0.000 A 
ATOM     15  C   UNL     1       2.451  15.445  19.655  0.00  0.00    +0.000 A 
ATOM     16  N   UNL     1       1.140  15.784  19.707  0.00  0.00    +0.000 NA
ATOM     17  C   UNL     1       0.374  14.905  20.378  0.00  0.00    +0.000 A 
ATOM     18  C   UNL     1      -1.076  15.014  20.601  0.00  0.00    +0.000 C 
ATOM     19  O   UNL     1      -1.806  15.912  20.227  0.00  0.00    +0.000 OA
ENDBRANCH   4   9
BRANCH   1  20
ATOM     20  S   UNL     1      -7.065  12.841  23.025  0.00  0.00    +0.000 S 
ATOM     21  O   UNL     1      -7.285  11.451  23.328  0.00  0.00    +0.000 OA
ATOM     22  O   UNL     1      -7.889  13.614  22.128  0.00  0.00    +0.000 OA
BRANCH  20  23
ATOM     23  N   UNL     1      -7.205  13.631  24.508  0.00  0.00    +0.000 NA
ATOM     24  H   UNL     1      -7.874  13.117  25.087  0.00  0.00    +0.000 HD
ATOM     25  H   UNL     1      -7.489  14.601  24.349  0.00  0.00    +0.000 HD
ENDBRANCH  20  23
ENDBRANCH   1  20
BRANCH   3  26
ATOM     26  S   UNL     1      -2.267  15.130  24.063  0.00  0.00    +0.000 S 
ATOM     27  O   UNL     1      -0.998  14.520  24.383  0.00  0.00    +0.000 OA
ATOM     28  O   UNL     1      -2.381  16.486  23.585  0.00  0.00    +0.000 OA
BRANCH  26  29
ATOM     29  N   UNL     1      -3.161  15.066  25.482  0.00  0.00    +0.000 NA
ATOM     30  H   UNL     1      -2.659  14.519  26.185  0.00  0.00    +0.000 HD
ATOM     31  H   UNL     1      -3.387  16.011  25.796  0.00  0.00    +0.000 HD
ENDBRANCH  26  29
ENDBRANCH   3  26
TORSDOF 5
ENDMDL
MODEL 3
REMARK VINA RESULT:      -5.3      2.781      3.732
REMARK  Name = 
REMARK  5 active torsions:
REMARK  status: ('A' for Active; 'I' for Inactive)
REMARK    1  A    between atoms: N_1  and  S_2
REMARK    2  A    between atoms: S_2  and  C_5
REMARK    3  A    between atoms: C_7  and  S_8
REMARK    4  A    between atoms: S_8  and  N_9
REMARK    5  A    between atoms: C_12  and  N_13
REMARK                            x       y       z     vdW  Elec       q    Type
REMARK                         _______ _______ _______ _____ _____    ______ ____
ROOT
ATOM      1  C   UNL     1      -4.627  13.042  20.791  0.00  0.00    +0.000 A 
ATOM      2  C   UNL     1      -3.820  12.357  19.874  0.00  0.00    +0.000 A 
ATOM      3  C   UNL     1      -2.449  12.640  19.782  0.00  0.00    +0.000 A 
ATOM      4  C   UNL     1      -1.876  13.631  20.586  0.00  0.00    +0.000 A 
ATOM      5  C   UNL     1      -2.704  14.337  21.493  0.00  0.00    +0.000 A 
ATOM      6 CL   UNL     1      -1.984  15.566  22.506  0.00  0.00    +0.000 Cl
ATOM      7  C   UNL     1      -4.081  14.039  21.606  0.00  0.00    +0.000 A 
ATOM      8 CL   UNL     1      -5.062  14.896  22.755  0.00  0.00    +0.000 Cl
ENDROOT
BRANCH   4   9
ATOM      9  N   UNL     1      -0.504  13.939  20.522  0.00  0.00    +0.000 N 
ATOM     10  C   UNL     1       0.046  14.816  19.622  0.00  0.00    +0.000 C 
ATOM     11  O   UNL     1      -0.500  15.479  18.761  0.00  0.00    +0.000 OA
ATOM     12  C   UNL     1       1.481  14.818  19.879  0.00  0.00    +0.000 A 
ATOM     13  C   UNL     1       2.525  15.499  19.291  0.00  0.00    +0.000 A 
ATOM     14  C   UNL     1       3.801  15.256  19.806  0.00  0.00    +0.000 A 
ATOM     15  C   UNL     1       3.953  14.350  20.867  0.00  0.00    +0.000 A 
ATOM     16  N   UNL     1       2.932  13.671  21.443  0.00  0.00    +0.000 NA
ATOM     17  C   UNL     1       1.726  13.944  20.914  0.00  0.00    +0.000 A 
ATOM     18  C   UNL     1       0.444  13.355  21.331  0.00  0.00    +0.000 C 
ATOM     19  O   UNL     1       0.271  12.526  22.205  0.00  0.00    +0.000 OA
ENDBRANCH   4   9
BRANCH   1  20
ATOM     20  S   UNL     1      -6.317  12.560  20.990  0.00  0.00    +0.000 S 
ATOM     21  O   UNL     1      -7.159  13.580  20.423  0.00  0.00    +0.000 OA
ATOM     22  O   UNL     1      -6.482  12.021  22.318  0.00  0.00    +0.000 OA
BRANCH  20  23
ATOM     23  N   UNL     1      -6.506  11.231  19.971  0.00  0.00    +0.000 NA
ATOM     24  H   UNL     1      -6.964  11.544  19.111  0.00  0.00    +0.000 HD
ATOM     25  H   UNL     1      -7.038  10.506  20.457  0.00  0.00    +0.000 HD
ENDBRANCH  20  23
ENDBRANCH   1  20
BRANCH   3  26
ATOM     26  S   UNL     1      -1.514  11.632  18.664  0.00  0.00    +0.000 S 
ATOM     27  O   UNL     1      -0.260  11.231  19.258  0.00  0.00    +0.000 OA
ATOM     28  O   UNL     1      -2.422  10.694  18.052  0.00  0.00    +0.000 OA
BRANCH  26  29
ATOM     29  N   UNL     1      -1.104  12.727  17.460  0.00  0.00    +0.000 NA
ATOM     30  H   UNL     1      -1.777  12.670  16.693  0.00  0.00    +0.000 HD
ATOM     31  H   UNL     1      -1.024  13.667  17.854  0.00  0.00    +0.000 HD
ENDBRANCH  26  29
ENDBRANCH   3  26
TORSDOF 5
ENDMDL
MODEL 4
REMARK VINA RESULT:      -5.2      3.567      5.164
REMARK  Name = 
REMARK  5 active torsions:
REMARK  status: ('A' for Active; 'I' for Inactive)
REMARK    1  A    between atoms: N_1  and  S_2
REMARK    2  A    between atoms: S_2  and  C_5
REMARK    3  A    between atoms: C_7  and  S_8
REMARK    4  A    between atoms: S_8  and  N_9
REMARK    5  A    between atoms: C_12  and  N_13
REMARK                            x       y       z     vdW  Elec       q    Type
REMARK                         _______ _______ _______ _____ _____    ______ ____
ROOT
ATOM      1  C   UNL     1      -3.012  11.731  18.432  0.00  0.00    +0.000 A 
ATOM      2  C   UNL     1      -1.693  12.189  18.538  0.00  0.00    +0.000 A 
ATOM      3  C   UNL     1      -1.316  13.039  19.589  0.00  0.00    +0.000 A 
ATOM      4  C   UNL     1      -2.262  13.464  20.528  0.00  0.00    +0.000 A 
ATOM      5  C   UNL     1      -3.600  13.018  20.399  0.00  0.00    +0.000 A 
ATOM      6 CL   UNL     1      -4.778  13.540  21.580  0.00  0.00    +0.000 Cl
ATOM      7  C   UNL     1      -3.979  12.142  19.356  0.00  0.00    +0.000 A 
ATOM      8 CL   UNL     1      -5.619  11.582  19.248  0.00  0.00    +0.000 Cl
ENDROOT
BRANCH   4   9
ATOM      9  N   UNL     1      -1.919  14.315  21.595  0.00  0.00    +0.000 N 
ATOM     10  C   UNL     1      -1.940  15.685  21.524  0.00  0.00    +0.000 C 
ATOM     11  O   UNL     1      -2.255  16.403  20.595  0.00  0.00    +0.000 OA
ATOM     12  C   UNL     1      -1.490  16.168  22.824  0.00  0.00    +0.000 A 
ATOM     13  C   UNL     1      -1.314  17.439  23.328  0.00  0.00    +0.000 A 
ATOM     14  C   UNL     1      -0.863  17.532  24.648  0.00  0.00    +0.000 A 
ATOM     15  C   UNL     1      -0.616  16.358  25.374  0.00  0.00    +0.000 A 
ATOM     16  N   UNL     1      -0.779  15.106  24.882  0.00  0.00    +0.000 NA
ATOM     17  C   UNL     1      -1.218  15.072  23.611  0.00  0.00    +0.000 A 
ATOM     18  C   UNL     1      -1.478  13.860  22.817  0.00  0.00    +0.000 C 
ATOM     19  O   UNL     1      -1.331  12.707  23.176  0.00  0.00    +0.000 OA
ENDBRANCH   4   9
BRANCH   1  20
ATOM     20  S   UNL     1      -3.423  10.543  17.189  0.00  0.00    +0.000 S 
ATOM     21  O   UNL     1      -4.398  11.119  16.301  0.00  0.00    +0.000 OA
ATOM     22  O   UNL     1      -3.567   9.254  17.821  0.00  0.00    +0.000 OA
BRANCH  20  23
ATOM     23  N   UNL     1      -2.025  10.398  16.257  0.00  0.00    +0.000 NA
ATOM     24  H   UNL     1      -1.225  10.687  16.827  0.00  0.00    +0.000 HD
ATOM     25  H   UNL     1      -2.125  10.960  15.409  0.00  0.00    +0.000 HD
ENDBRANCH  20  23
ENDBRANCH   1  20
BRANCH   3  26
ATOM     26  S   UNL     1       0.403  13.460  19.678  0.00  0.00    +0.000 S 
ATOM     27  O   UNL     1       0.592  14.883  19.518  0.00  0.00    +0.000 OA
ATOM     28  O   UNL     1       0.984  12.714  20.767  0.00  0.00    +0.000 OA
BRANCH  26  29
ATOM     29  N   UNL     1       1.009  12.771  18.273  0.00  0.00    +0.000 NA
ATOM     30  H   UNL     1       2.009  12.588  18.378  0.00  0.00    +0.000 HD
ATOM     31  H   UNL     1       0.472  11.935  18.033  0.00  0.00    +0.000 HD
ENDBRANCH  26  29
ENDBRANCH   3  26
TORSDOF 5
ENDMDL
MODEL 5
REMARK VINA RESULT:      -5.2      2.852      3.928
REMARK  Name = 
REMARK  5 active torsions:
REMARK  status: ('A' for Active; 'I' for Inactive)
REMARK    1  A    between atoms: N_1  and  S_2
REMARK    2  A    between atoms: S_2  and  C_5
REMARK    3  A    between atoms: C_7  and  S_8
REMARK    4  A    between atoms: S_8  and  N_9
REMARK    5  A    between atoms: C_12  and  N_13
REMARK                            x       y       z     vdW  Elec       q    Type
REMARK                         _______ _______ _______ _____ _____    ______ ____
ROOT
ATOM      1  C   UNL     1      -3.473  13.651  22.050  0.00  0.00    +0.000 A 
ATOM      2  C   UNL     1      -3.059  12.987  20.889  0.00  0.00    +0.000 A 
ATOM      3  C   UNL     1      -1.832  13.304  20.287  0.00  0.00    +0.000 A 
ATOM      4  C   UNL     1      -1.019  14.309  20.823  0.00  0.00    +0.000 A 
ATOM      5  C   UNL     1      -1.458  14.994  21.983  0.00  0.00    +0.000 A 
ATOM      6 CL   UNL     1      -0.436  16.240  22.659  0.00  0.00    +0.000 Cl
ATOM      7  C   UNL     1      -2.682  14.662  22.607  0.00  0.00    +0.000 A 
ATOM      8 CL   UNL     1      -3.173  15.494  24.050  0.00  0.00    +0.000 Cl
ENDROOT
BRANCH   4   9
ATOM      9  N   UNL     1       0.217  14.651  20.246  0.00  0.00    +0.000 N 
ATOM     10  C   UNL     1       0.382  15.634  19.304  0.00  0.00    +0.000 C 
ATOM     11  O   UNL     1      -0.447  16.378  18.814  0.00  0.00    +0.000 OA
ATOM     12  C   UNL     1       1.798  15.637  18.960  0.00  0.00    +0.000 A 
ATOM     13  C   UNL     1       2.534  16.402  18.080  0.00  0.00    +0.000 A 
ATOM     14  C   UNL     1       3.904  16.130  18.008  0.00  0.00    +0.000 A 
ATOM     15  C   UNL     1       4.446  15.115  18.810  0.00  0.00    +0.000 A 
ATOM     16  N   UNL     1       3.726  14.355  19.670  0.00  0.00    +0.000 NA
ATOM     17  C   UNL     1       2.416  14.660  19.705  0.00  0.00    +0.000 A 
ATOM     18  C   UNL     1       1.396  14.000  20.535  0.00  0.00    +0.000 C 
ATOM     19  O   UNL     1       1.568  13.076  21.307  0.00  0.00    +0.000 OA
ENDBRANCH   4   9
BRANCH   1  20
ATOM     20  S   UNL     1      -4.949  13.128  22.871  0.00  0.00    +0.000 S 
ATOM     21  O   UNL     1      -5.827  14.260  23.012  0.00  0.00    +0.000 OA
ATOM     22  O   UNL     1      -4.580  12.250  23.954  0.00  0.00    +0.000 OA
BRANCH  20  23
ATOM     23  N   UNL     1      -5.722  12.121  21.761  0.00  0.00    +0.000 NA
ATOM     24  H   UNL     1      -6.097  12.701  21.005  0.00  0.00    +0.000 HD
ATOM     25  H   UNL     1      -6.448  11.584  22.240  0.00  0.00    +0.000 HD
ENDBRANCH  20  23
ENDBRANCH   1  20
BRANCH   3  26
ATOM     26  S   UNL     1      -1.368  12.320  18.888  0.00  0.00    +0.000 S 
ATOM     27  O   UNL     1      -0.758  13.136  17.865  0.00  0.00    +0.000 OA
ATOM     28  O   UNL     1      -0.762  11.108  19.382  0.00  0.00    +0.000 OA
BRANCH  26  29
ATOM     29  N   UNL     1      -2.859  11.868  18.264  0.00  0.00    +0.000 NA
ATOM     30  H   UNL     1      -3.214  12.601  17.645  0.00  0.00    +0.000 HD
ATOM     31  H   UNL     1      -2.786  10.957  17.807  0.00  0.00    +0.000 HD
ENDBRANCH  26  29
ENDBRANCH   3  26
TORSDOF 5
ENDMDL
MODEL 6
REMARK VINA RESULT:      -5.1      2.888      4.163
REMARK  Name = 
REMARK  5 active torsions:
REMARK  status: ('A' for Active; 'I' for Inactive)
REMARK    1  A    between atoms: N_1  and  S_2
REMARK    2  A    between atoms: S_2  and  C_5
REMARK    3  A    between atoms: C_7  and  S_8
REMARK    4  A    between atoms: S_8  and  N_9
REMARK    5  A    between atoms: C_12  and  N_13
REMARK                            x       y       z     vdW  Elec       q    Type
REMARK                         _______ _______ _______ _____ _____    ______ ____
ROOT
ATOM      1  C   UNL     1      -4.527  13.082  20.686  0.00  0.00    +0.000 A 
ATOM      2  C   UNL     1      -3.748  12.357  19.775  0.00  0.00    +0.000 A 
ATOM      3  C   UNL     1      -2.380  12.631  19.631  0.00  0.00    +0.000 A 
ATOM      4  C   UNL     1      -1.781  13.653  20.375  0.00  0.00    +0.000 A 
ATOM      5  C   UNL     1      -2.581  14.399  21.276  0.00  0.00    +0.000 A 
ATOM      6 CL   UNL     1      -1.829  15.667  22.214  0.00  0.00    +0.000 Cl
ATOM      7  C   UNL     1      -3.954  14.111  21.442  0.00  0.00    +0.000 A 
ATOM      8 CL   UNL     1      -4.899  15.018  22.583  0.00  0.00    +0.000 Cl
ENDROOT
BRANCH   4   9
ATOM      9  N   UNL     1      -0.412  13.954  20.256  0.00  0.00    +0.000 N 
ATOM     10  C   UNL     1       0.562  13.443  21.076  0.00  0.00    +0.000 C 
ATOM     11  O   UNL     1       0.457  12.663  22.003  0.00  0.00    +0.000 OA
ATOM     12  C   UNL     1       1.820  14.030  20.629  0.00  0.00    +0.000 A 
ATOM     13  C   UNL     1       3.117  13.885  21.074  0.00  0.00    +0.000 A 
ATOM     14  C   UNL     1       4.097  14.612  20.392  0.00  0.00    +0.000 A 
ATOM     15  C   UNL     1       3.722  15.435  19.320  0.00  0.00    +0.000 A 
ATOM     16  N   UNL     1       2.448  15.587  18.884  0.00  0.00    +0.000 NA
ATOM     17  C   UNL     1       1.545  14.864  19.570  0.00  0.00    +0.000 A 
ATOM     18  C   UNL     1       0.094  14.835  19.327  0.00  0.00    +0.000 C 
ATOM     19  O   UNL     1      -0.518  15.462  18.483  0.00  0.00    +0.000 OA
ENDBRANCH   4   9
BRANCH   1  20
ATOM     20  S   UNL     1      -6.210  12.614  20.956  0.00  0.00    +0.000 S 
ATOM     21  O   UNL     1      -7.067  13.645  20.431  0.00  0.00    +0.000 OA
ATOM     22  O   UNL     1      -6.323  12.069  22.287  0.00  0.00    +0.000 OA
BRANCH  20  23
ATOM     23  N   UNL     1      -6.456  11.292  19.939  0.00  0.00    +0.000 NA
ATOM     24  H   UNL     1      -6.011  11.490  19.038  0.00  0.00    +0.000 HD
ATOM     25  H   UNL     1      -7.459  11.116  19.850  0.00  0.00    +0.000 HD
ENDBRANCH  20  23
ENDBRANCH   1  20
BRANCH   3  26
ATOM     26  S   UNL     1      -1.481  11.574  18.528  0.00  0.00    +0.000 S 
ATOM     27  O   UNL     1      -0.187  11.242  19.075  0.00  0.00    +0.000 OA
ATOM     28  O   UNL     1      -2.396  10.576  18.031  0.00  0.00    +0.000 OA
BRANCH  26  29
ATOM     29  N   UNL     1      -1.168  12.597  17.236  0.00  0.00    +0.000 NA
ATOM     30  H   UNL     1      -1.294  12.093  16.355  0.00  0.00    +0.000 HD
ATOM     31  H   UNL     1      -1.747  13.436  17.305  0.00  0.00    +0.000 HD
ENDBRANCH  26  29
ENDBRANCH   3  26
TORSDOF 5
ENDMDL
MODEL 7
REMARK VINA RESULT:      -5.1      3.420      5.523
REMARK  Name = 
REMARK  5 active torsions:
REMARK  status: ('A' for Active; 'I' for Inactive)
REMARK    1  A    between atoms: N_1  and  S_2
REMARK    2  A    between atoms: S_2  and  C_5
REMARK    3  A    between atoms: C_7  and  S_8
REMARK    4  A    between atoms: S_8  and  N_9
REMARK    5  A    between atoms: C_12  and  N_13
REMARK                            x       y       z     vdW  Elec       q    Type
REMARK                         _______ _______ _______ _____ _____    ______ ____
ROOT
ATOM      1  C   UNL     1      -2.890  11.687  18.590  0.00  0.00    +0.000 A 
ATOM      2  C   UNL     1      -1.589  12.083  18.928  0.00  0.00    +0.000 A 
ATOM      3  C   UNL     1      -1.364  12.923  20.028  0.00  0.00    +0.000 A 
ATOM      4  C   UNL     1      -2.440  13.401  20.785  0.00  0.00    +0.000 A 
ATOM      5  C   UNL     1      -3.753  13.017  20.421  0.00  0.00    +0.000 A 
ATOM      6 CL   UNL     1      -5.095  13.604  21.375  0.00  0.00    +0.000 Cl
ATOM      7  C   UNL     1      -3.984  12.151  19.328  0.00  0.00    +0.000 A 
ATOM      8 CL   UNL     1      -5.604  11.667  18.931  0.00  0.00    +0.000 Cl
ENDROOT
BRANCH   4   9
ATOM      9  N   UNL     1      -2.250  14.245  21.895  0.00  0.00    +0.000 N 
ATOM     10  C   UNL     1      -2.114  13.800  23.185  0.00  0.00    +0.000 C 
ATOM     11  O   UNL     1      -2.111  12.660  23.611  0.00  0.00    +0.000 OA
ATOM     12  C   UNL     1      -1.970  14.991  24.014  0.00  0.00    +0.000 A 
ATOM     13  C   UNL     1      -1.803  15.156  25.373  0.00  0.00    +0.000 A 
ATOM     14  C   UNL     1      -1.693  16.471  25.834  0.00  0.00    +0.000 A 
ATOM     15  C   UNL     1      -1.761  17.529  24.916  0.00  0.00    +0.000 A 
ATOM     16  N   UNL     1      -1.934  17.373  23.581  0.00  0.00    +0.000 NA
ATOM     17  C   UNL     1      -2.029  16.090  23.189  0.00  0.00    +0.000 A 
ATOM     18  C   UNL     1      -2.227  15.618  21.809  0.00  0.00    +0.000 C 
ATOM     19  O   UNL     1      -2.344  16.307  20.813  0.00  0.00    +0.000 OA
ENDBRANCH   4   9
BRANCH   1  20
ATOM     20  S   UNL     1      -3.130  10.508  17.294  0.00  0.00    +0.000 S 
ATOM     21  O   UNL     1      -3.745  11.170  16.173  0.00  0.00    +0.000 OA
ATOM     22  O   UNL     1      -3.620   9.284  17.878  0.00  0.00    +0.000 OA
BRANCH  20  23
ATOM     23  N   UNL     1      -1.574  10.128  16.767  0.00  0.00    +0.000 NA
ATOM     24  H   UNL     1      -1.049  11.000  16.656  0.00  0.00    +0.000 HD
ATOM     25  H   UNL     1      -1.633   9.593  15.898  0.00  0.00    +0.000 HD
ENDBRANCH  20  23
ENDBRANCH   1  20
BRANCH   3  26
ATOM     26  S   UNL     1       0.330  13.264  20.420  0.00  0.00    +0.000 S 
ATOM     27  O   UNL     1       0.631  14.664  20.226  0.00  0.00    +0.000 OA
ATOM     28  O   UNL     1       0.652  12.559  21.635  0.00  0.00    +0.000 OA
BRANCH  26  29
ATOM     29  N   UNL     1       1.145  12.462  19.192  0.00  0.00    +0.000 NA
ATOM     30  H   UNL     1       0.903  11.468  19.205  0.00  0.00    +0.000 HD
ATOM     31  H   UNL     1       0.953  12.909  18.293  0.00  0.00    +0.000 HD
ENDBRANCH  26  29
ENDBRANCH   3  26
TORSDOF 5
ENDMDL
MODEL 8
REMARK VINA RESULT:      -5.1      3.523      7.346
REMARK  Name = 
REMARK  5 active torsions:
REMARK  status: ('A' for Active; 'I' for Inactive)
REMARK    1  A    between atoms: N_1  and  S_2
REMARK    2  A    between atoms: S_2  and  C_5
REMARK    3  A    between atoms: C_7  and  S_8
REMARK    4  A    between atoms: S_8  and  N_9
REMARK    5  A    between atoms: C_12  and  N_13
REMARK                            x       y       z     vdW  Elec       q    Type
REMARK                         _______ _______ _______ _____ _____    ______ ____
ROOT
ATOM      1  C   UNL     1       1.932  14.473  19.951  0.00  0.00    +0.000 A 
ATOM      2  C   UNL     1       1.149  13.391  19.528  0.00  0.00    +0.000 A 
ATOM      3  C   UNL     1      -0.069  13.102  20.162  0.00  0.00    +0.000 A 
ATOM      4  C   UNL     1      -0.503  13.874  21.245  0.00  0.00    +0.000 A 
ATOM      5  C   UNL     1       0.306  14.951  21.683  0.00  0.00    +0.000 A 
ATOM      6 CL   UNL     1      -0.243  15.922  23.028  0.00  0.00    +0.000 Cl
ATOM      7  C   UNL     1       1.522  15.261  21.032  0.00  0.00    +0.000 A 
ATOM      8 CL   UNL     1       2.473  16.612  21.569  0.00  0.00    +0.000 Cl
ENDROOT
BRANCH   4   9
ATOM      9  N   UNL     1      -1.719  13.613  21.903  0.00  0.00    +0.000 N 
ATOM     10  C   UNL     1      -2.888  14.287  21.655  0.00  0.00    +0.000 C 
ATOM     11  O   UNL     1      -3.109  15.177  20.857  0.00  0.00    +0.000 OA
ATOM     12  C   UNL     1      -3.881  13.728  22.565  0.00  0.00    +0.000 A 
ATOM     13  C   UNL     1      -5.216  14.011  22.763  0.00  0.00    +0.000 A 
ATOM     14  C   UNL     1      -5.877  13.259  23.739  0.00  0.00    +0.000 A 
ATOM     15  C   UNL     1      -5.167  12.282  24.451  0.00  0.00    +0.000 A 
ATOM     16  N   UNL     1      -3.853  12.006  24.267  0.00  0.00    +0.000 NA
ATOM     17  C   UNL     1      -3.266  12.753  23.315  0.00  0.00    +0.000 A 
ATOM     18  C   UNL     1      -1.854  12.679  22.904  0.00  0.00    +0.000 C 
ATOM     19  O   UNL     1      -0.999  11.945  23.362  0.00  0.00    +0.000 OA
ENDBRANCH   4   9
BRANCH   1  20
ATOM     20  S   UNL     1       3.383  14.905  19.039  0.00  0.00    +0.000 S 
ATOM     21  O   UNL     1       4.534  14.719  19.883  0.00  0.00    +0.000 OA
ATOM     22  O   UNL     1       3.111  16.111  18.296  0.00  0.00    +0.000 OA
BRANCH  20  23
ATOM     23  N   UNL     1       3.519  13.708  17.859  0.00  0.00    +0.000 NA
ATOM     24  H   UNL     1       3.655  14.162  16.951  0.00  0.00    +0.000 HD
ATOM     25  H   UNL     1       2.685  13.117  17.880  0.00  0.00    +0.000 HD
ENDBRANCH  20  23
ENDBRANCH   1  20
BRANCH   3  26
ATOM     26  S   UNL     1      -1.019  11.778  19.466  0.00  0.00    +0.000 S 
ATOM     27  O   UNL     1      -0.961  10.606  20.308  0.00  0.00    +0.000 OA
ATOM     28  O   UNL     1      -2.261  12.331  18.986  0.00  0.00    +0.000 OA
BRANCH  26  29
ATOM     29  N   UNL     1      -0.130  11.386  18.098  0.00  0.00    +0.000 NA
ATOM     30  H   UNL     1       0.798  11.812  18.152  0.00  0.00    +0.000 HD
ATOM     31  H   UNL     1      -0.099  10.371  17.980  0.00  0.00    +0.000 HD
ENDBRANCH  26  29
ENDBRANCH   3  26
TORSDOF 5
ENDMDL
MODEL 9
REMARK VINA RESULT:      -5.1      2.948      4.311
REMARK  Name = 
REMARK  5 active torsions:
REMARK  status: ('A' for Active; 'I' for Inactive)
REMARK    1  A    between atoms: N_1  and  S_2
REMARK    2  A    between atoms: S_2  and  C_5
REMARK    3  A    between atoms: C_7  and  S_8
REMARK    4  A    between atoms: S_8  and  N_9
REMARK    5  A    between atoms: C_12  and  N_13
REMARK                            x       y       z     vdW  Elec       q    Type
REMARK                         _______ _______ _______ _____ _____    ______ ____
ROOT
ATOM      1  C   UNL     1      -3.445  13.572  21.778  0.00  0.00    +0.000 A 
ATOM      2  C   UNL     1      -2.929  12.802  20.728  0.00  0.00    +0.000 A 
ATOM      3  C   UNL     1      -1.670  13.093  20.182  0.00  0.00    +0.000 A 
ATOM      4  C   UNL     1      -0.926  14.177  20.661  0.00  0.00    +0.000 A 
ATOM      5  C   UNL     1      -1.465  14.967  21.705  0.00  0.00    +0.000 A 
ATOM      6 CL   UNL     1      -0.529  16.312  22.311  0.00  0.00    +0.000 Cl
ATOM      7  C   UNL     1      -2.723  14.663  22.275  0.00  0.00    +0.000 A 
ATOM      8 CL   UNL     1      -3.339  15.627  23.581  0.00  0.00    +0.000 Cl
ENDROOT
BRANCH   4   9
ATOM      9  N   UNL     1       0.341  14.497  20.138  0.00  0.00    +0.000 N 
ATOM     10  C   UNL     1       1.526  14.053  20.666  0.00  0.00    +0.000 C 
ATOM     11  O   UNL     1       1.719  13.325  21.620  0.00  0.00    +0.000 OA
ATOM     12  C   UNL     1       2.582  14.637  19.847  0.00  0.00    +0.000 A 
ATOM     13  C   UNL     1       3.956  14.543  19.905  0.00  0.00    +0.000 A 
ATOM     14  C   UNL     1       4.673  15.249  18.935  0.00  0.00    +0.000 A 
ATOM     15  C   UNL     1       3.978  16.002  17.978  0.00  0.00    +0.000 A 
ATOM     16  N   UNL     1       2.628  16.105  17.921  0.00  0.00    +0.000 NA
ATOM     17  C   UNL     1       1.985  15.404  18.873  0.00  0.00    +0.000 A 
ATOM     18  C   UNL     1       0.527  15.333  19.060  0.00  0.00    +0.000 C 
ATOM     19  O   UNL     1      -0.322  15.899  18.398  0.00  0.00    +0.000 OA
ENDBRANCH   4   9
BRANCH   1  20
ATOM     20  S   UNL     1      -4.963  13.090  22.546  0.00  0.00    +0.000 S 
ATOM     21  O   UNL     1      -5.855  14.220  22.559  0.00  0.00    +0.000 OA
ATOM     22  O   UNL     1      -4.652  12.291  23.705  0.00  0.00    +0.000 OA
BRANCH  20  23
ATOM     23  N   UNL     1      -5.663  12.003  21.463  0.00  0.00    +0.000 NA
ATOM     24  H   UNL     1      -6.043  11.215  21.996  0.00  0.00    +0.000 HD
ATOM     25  H   UNL     1      -4.963  11.711  20.777  0.00  0.00    +0.000 HD
ENDBRANCH  20  23
ENDBRANCH   1  20
BRANCH   3  26
ATOM     26  S   UNL     1      -1.080  11.982  18.935  0.00  0.00    +0.000 S 
ATOM     27  O   UNL     1       0.301  11.631  19.170  0.00  0.00    +0.000 OA
ATOM     28  O   UNL     1      -2.106  10.996  18.702  0.00  0.00    +0.000 OA
BRANCH  26  29
ATOM     29  N   UNL     1      -1.063  12.959  17.570  0.00  0.00    +0.000 NA
ATOM     30  H   UNL     1      -2.020  13.138  17.258  0.00  0.00    +0.000 HD
ATOM     31  H   UNL     1      -0.536  13.814  17.759  0.00  0.00    +0.000 HD
ENDBRANCH  26  29
ENDBRANCH   3  26
TORSDOF 5
ENDMDL
