MODEL 1
REMARK VINA RESULT:      -7.6      0.000      0.000
REMARK  Name = 
REMARK  11 active torsions:
REMARK  status: ('A' for Active; 'I' for Inactive)
REMARK    1  A    between atoms: C_1  and  O_2
REMARK    2  A    between atoms: O_2  and  C_3
REMARK    3  A    between atoms: C_3  and  C_4
REMARK    4  A    between atoms: C_4  and  O_5
REMARK    5  A    between atoms: O_5  and  C_6
REMARK    6  A    between atoms: C_9  and  C_10
REMARK    7  A    between atoms: C_13  and  C_14
REMARK    8  A    between atoms: C_14  and  O_15
REMARK    9  A    between atoms: O_15  and  C_16
REMARK   10  A    between atoms: C_21  and  C_22
REMARK   11  A    between atoms: C_27  and  C_28
REMARK                            x       y       z     vdW  Elec       q    Type
REMARK                         _______ _______ _______ _____ _____    ______ ____
ROOT
ATOM      1  C   UNL     1       2.850   7.113  18.451  0.00  0.00    +0.000 A 
ATOM      2  C   UNL     1       2.343   8.306  17.912  0.00  0.00    +0.000 A 
ATOM      3  C   UNL     1       1.533   9.143  18.672  0.00  0.00    +0.000 A 
ATOM      4  C   UNL     1       1.191   8.742  19.954  0.00  0.00    +0.000 A 
ATOM      5  N   UNL     1       1.722   7.650  20.543  0.00  0.00    +0.000 NA
ATOM      6  C   UNL     1       2.557   6.896  19.794  0.00  0.00    +0.000 A 
ENDROOT
BRANCH   1  10
ATOM      7  C   UNL     1       5.292   4.513  16.011  0.00  0.00    +0.000 A 
ATOM      8  C   UNL     1       5.565   5.867  16.125  0.00  0.00    +0.000 A 
ATOM      9  C   UNL     1       4.763   6.672  16.932  0.00  0.00    +0.000 A 
ATOM     10  C   UNL     1       3.647   6.170  17.636  0.00  0.00    +0.000 A 
ATOM     11  C   UNL     1       3.350   4.791  17.484  0.00  0.00    +0.000 A 
ATOM     12  C   UNL     1       2.169   4.081  18.104  0.00  0.00    +0.000 C 
ATOM     13  C   UNL     1       4.199   3.983  16.696  0.00  0.00    +0.000 A 
BRANCH   7  14
ATOM     14  O   UNL     1       6.013   3.622  15.266  0.00  0.00    +0.000 OA
BRANCH  14  15
ATOM     15  C   UNL     1       6.552   4.133  14.045  0.00  0.00    +0.000 C 
BRANCH  15  16
ATOM     16  C   UNL     1       5.700   3.645  12.887  0.00  0.00    +0.000 C 
BRANCH  16  18
ATOM     17  C   UNL     1       5.824   1.814  11.424  0.00  0.00    +0.000 C 
ATOM     18  O   UNL     1       6.527   2.917  11.982  0.00  0.00    +0.000 OA
ENDBRANCH  16  18
ENDBRANCH  15  16
ENDBRANCH  14  15
ENDBRANCH   7  14
ENDBRANCH   1  10
BRANCH   4  19
ATOM     19  C   UNL     1       0.221   9.551  20.763  0.00  0.00    +0.000 C 
BRANCH  19  20
ATOM     20  O   UNL     1      -0.493  10.378  19.847  0.00  0.00    +0.000 OA
BRANCH  20  21
ATOM     21  C   UNL     1      -1.056  11.473  20.463  0.00  0.00    +0.000 A 
ATOM     22  N   UNL     1      -0.627  11.763  21.717  0.00  0.00    +0.000 NA
ATOM     23  C   UNL     1      -1.166  12.835  22.324  0.00  0.00    +0.000 A 
ATOM     24  C   UNL     1      -2.125  13.632  21.728  0.00  0.00    +0.000 A 
ATOM     25  C   UNL     1      -2.559  13.312  20.447  0.00  0.00    +0.000 A 
ATOM     26  C   UNL     1      -2.019  12.203  19.776  0.00  0.00    +0.000 A 
BRANCH  26  27
ATOM     27  C   UNL     1      -2.513  11.926  18.402  0.00  0.00    +0.000 C 
ATOM     28  N   UNL     1      -1.703  12.222  17.338  0.00  0.00    +0.000 N 
ATOM     29  O   UNL     1      -3.624  11.455  18.200  0.00  0.00    +0.000 OA
ATOM     30  H   UNL     1      -0.807  12.688  17.444  0.00  0.00    +0.000 HD
ATOM     31  H   UNL     1      -2.100  12.146  16.411  0.00  0.00    +0.000 HD
ENDBRANCH  26  27
ENDBRANCH  20  21
ENDBRANCH  19  20
ENDBRANCH   4  19
TORSDOF 9
ENDMDL
MODEL 2
REMARK VINA RESULT:      -7.5      3.388     10.729
REMARK  Name = 
REMARK  11 active torsions:
REMARK  status: ('A' for Active; 'I' for Inactive)
REMARK    1  A    between atoms: C_1  and  O_2
REMARK    2  A    between atoms: O_2  and  C_3
REMARK    3  A    between atoms: C_3  and  C_4
REMARK    4  A    between atoms: C_4  and  O_5
REMARK    5  A    between atoms: O_5  and  C_6
REMARK    6  A    between atoms: C_9  and  C_10
REMARK    7  A    between atoms: C_13  and  C_14
REMARK    8  A    between atoms: C_14  and  O_15
REMARK    9  A    between atoms: O_15  and  C_16
REMARK   10  A    between atoms: C_21  and  C_22
REMARK   11  A    between atoms: C_27  and  C_28
REMARK                            x       y       z     vdW  Elec       q    Type
REMARK                         _______ _______ _______ _____ _____    ______ ____
ROOT
ATOM      1  C   UNL     1       1.415   7.798  20.505  0.00  0.00    +0.000 A 
ATOM      2  C   UNL     1       2.171   7.888  19.326  0.00  0.00    +0.000 A 
ATOM      3  C   UNL     1       2.861   6.786  18.836  0.00  0.00    +0.000 A 
ATOM      4  C   UNL     1       2.832   5.611  19.570  0.00  0.00    +0.000 A 
ATOM      5  N   UNL     1       2.052   5.451  20.661  0.00  0.00    +0.000 NA
ATOM      6  C   UNL     1       1.345   6.527  21.069  0.00  0.00    +0.000 A 
ENDROOT
BRANCH   1  10
ATOM      7  C   UNL     1      -0.588  11.140  22.375  0.00  0.00    +0.000 A 
ATOM      8  C   UNL     1      -0.351   9.960  23.063  0.00  0.00    +0.000 A 
ATOM      9  C   UNL     1       0.310   8.909  22.431  0.00  0.00    +0.000 A 
ATOM     10  C   UNL     1       0.738   8.978  21.087  0.00  0.00    +0.000 A 
ATOM     11  C   UNL     1       0.459  10.173  20.377  0.00  0.00    +0.000 A 
ATOM     12  C   UNL     1       0.781  10.418  18.921  0.00  0.00    +0.000 C 
ATOM     13  C   UNL     1      -0.175  11.244  21.048  0.00  0.00    +0.000 A 
BRANCH   7  14
ATOM     14  O   UNL     1      -1.210  12.243  22.890  0.00  0.00    +0.000 OA
BRANCH  14  15
ATOM     15  C   UNL     1      -2.558  12.447  22.461  0.00  0.00    +0.000 C 
BRANCH  15  16
ATOM     16  C   UNL     1      -3.471  12.414  23.672  0.00  0.00    +0.000 C 
BRANCH  16  18
ATOM     17  C   UNL     1      -4.927  12.784  21.868  0.00  0.00    +0.000 C 
ATOM     18  O   UNL     1      -4.826  12.379  23.227  0.00  0.00    +0.000 OA
ENDBRANCH  16  18
ENDBRANCH  15  16
ENDBRANCH  14  15
ENDBRANCH   7  14
ENDBRANCH   1  10
BRANCH   4  19
ATOM     19  C   UNL     1       3.661   4.435  19.146  0.00  0.00    +0.000 C 
BRANCH  19  20
ATOM     20  O   UNL     1       5.021   4.860  19.166  0.00  0.00    +0.000 OA
BRANCH  20  21
ATOM     21  C   UNL     1       5.636   4.696  17.945  0.00  0.00    +0.000 A 
ATOM     22  N   UNL     1       4.950   4.010  16.996  0.00  0.00    +0.000 NA
ATOM     23  C   UNL     1       5.540   3.852  15.798  0.00  0.00    +0.000 A 
ATOM     24  C   UNL     1       6.797   4.349  15.508  0.00  0.00    +0.000 A 
ATOM     25  C   UNL     1       7.488   5.038  16.496  0.00  0.00    +0.000 A 
ATOM     26  C   UNL     1       6.906   5.230  17.760  0.00  0.00    +0.000 A 
BRANCH  26  27
ATOM     27  C   UNL     1       7.691   5.992  18.766  0.00  0.00    +0.000 C 
ATOM     28  N   UNL     1       7.919   5.424  19.992  0.00  0.00    +0.000 N 
ATOM     29  O   UNL     1       8.125   7.112  18.532  0.00  0.00    +0.000 OA
ATOM     30  H   UNL     1       7.514   4.535  20.268  0.00  0.00    +0.000 HD
ATOM     31  H   UNL     1       8.343   6.003  20.706  0.00  0.00    +0.000 HD
ENDBRANCH  26  27
ENDBRANCH  20  21
ENDBRANCH  19  20
ENDBRANCH   4  19
TORSDOF 9
ENDMDL
MODEL 3
REMARK VINA RESULT:      -7.5      3.348     10.077
REMARK  Name = 
REMARK  11 active torsions:
REMARK  status: ('A' for Active; 'I' for Inactive)
REMARK    1  A    between atoms: C_1  and  O_2
REMARK    2  A    between atoms: O_2  and  C_3
REMARK    3  A    between atoms: C_3  and  C_4
REMARK    4  A    between atoms: C_4  and  O_5
REMARK    5  A    between atoms: O_5  and  C_6
REMARK    6  A    between atoms: C_9  and  C_10
REMARK    7  A    between atoms: C_13  and  C_14
REMARK    8  A    between atoms: C_14  and  O_15
REMARK    9  A    between atoms: O_15  and  C_16
REMARK   10  A    between atoms: C_21  and  C_22
REMARK   11  A    between atoms: C_27  and  C_28
REMARK                            x       y       z     vdW  Elec       q    Type
REMARK                         _______ _______ _______ _____ _____    ______ ____
ROOT
ATOM      1  C   UNL     1       1.966   7.069  19.825  0.00  0.00    +0.000 A 
ATOM      2  C   UNL     1       2.396   6.886  18.501  0.00  0.00    +0.000 A 
ATOM      3  C   UNL     1       3.062   5.726  18.122  0.00  0.00    +0.000 A 
ATOM      4  C   UNL     1       3.343   4.780  19.096  0.00  0.00    +0.000 A 
ATOM      5  N   UNL     1       2.875   4.872  20.359  0.00  0.00    +0.000 NA
ATOM      6  C   UNL     1       2.176   5.985  20.672  0.00  0.00    +0.000 A 
ENDROOT
BRANCH   1  10
ATOM      7  C   UNL     1       0.070  10.662  21.298  0.00  0.00    +0.000 A 
ATOM      8  C   UNL     1       0.274   9.562  22.117  0.00  0.00    +0.000 A 
ATOM      9  C   UNL     1       0.901   8.426  21.610  0.00  0.00    +0.000 A 
ATOM     10  C   UNL     1       1.327   8.328  20.267  0.00  0.00    +0.000 A 
ATOM     11  C   UNL     1       1.080   9.441  19.424  0.00  0.00    +0.000 A 
ATOM     12  C   UNL     1       1.404   9.507  17.950  0.00  0.00    +0.000 C 
ATOM     13  C   UNL     1       0.481  10.601  19.967  0.00  0.00    +0.000 A 
BRANCH   7  14
ATOM     14  O   UNL     1      -0.517  11.835  21.683  0.00  0.00    +0.000 OA
BRANCH  14  15
ATOM     15  C   UNL     1      -1.185  11.805  22.946  0.00  0.00    +0.000 C 
BRANCH  15  16
ATOM     16  C   UNL     1      -2.524  12.505  22.813  0.00  0.00    +0.000 C 
BRANCH  16  18
ATOM     17  C   UNL     1      -4.101  12.726  24.539  0.00  0.00    +0.000 C 
ATOM     18  O   UNL     1      -3.481  11.828  23.626  0.00  0.00    +0.000 OA
ENDBRANCH  16  18
ENDBRANCH  15  16
ENDBRANCH  14  15
ENDBRANCH   7  14
ENDBRANCH   1  10
BRANCH   4  19
ATOM     19  C   UNL     1       4.167   3.572  18.759  0.00  0.00    +0.000 C 
BRANCH  19  20
ATOM     20  O   UNL     1       4.942   3.908  17.611  0.00  0.00    +0.000 OA
BRANCH  20  21
ATOM     21  C   UNL     1       5.933   4.819  17.899  0.00  0.00    +0.000 A 
ATOM     22  N   UNL     1       6.512   4.734  19.123  0.00  0.00    +0.000 NA
ATOM     23  C   UNL     1       7.486   5.615  19.411  0.00  0.00    +0.000 A 
ATOM     24  C   UNL     1       7.905   6.587  18.522  0.00  0.00    +0.000 A 
ATOM     25  C   UNL     1       7.292   6.666  17.278  0.00  0.00    +0.000 A 
ATOM     26  C   UNL     1       6.274   5.761  16.936  0.00  0.00    +0.000 A 
BRANCH  26  27
ATOM     27  C   UNL     1       5.672   5.888  15.583  0.00  0.00    +0.000 C 
ATOM     28  N   UNL     1       5.706   4.807  14.742  0.00  0.00    +0.000 N 
ATOM     29  O   UNL     1       5.161   6.932  15.200  0.00  0.00    +0.000 OA
ATOM     30  H   UNL     1       6.189   3.945  14.977  0.00  0.00    +0.000 HD
ATOM     31  H   UNL     1       5.408   4.946  13.785  0.00  0.00    +0.000 HD
ENDBRANCH  26  27
ENDBRANCH  20  21
ENDBRANCH  19  20
ENDBRANCH   4  19
TORSDOF 9
ENDMDL
MODEL 4
REMARK VINA RESULT:      -7.4      1.204      1.328
REMARK  Name = 
REMARK  11 active torsions:
REMARK  status: ('A' for Active; 'I' for Inactive)
REMARK    1  A    between atoms: C_1  and  O_2
REMARK    2  A    between atoms: O_2  and  C_3
REMARK    3  A    between atoms: C_3  and  C_4
REMARK    4  A    between atoms: C_4  and  O_5
REMARK    5  A    between atoms: O_5  and  C_6
REMARK    6  A    between atoms: C_9  and  C_10
REMARK    7  A    between atoms: C_13  and  C_14
REMARK    8  A    between atoms: C_14  and  O_15
REMARK    9  A    between atoms: O_15  and  C_16
REMARK   10  A    between atoms: C_21  and  C_22
REMARK   11  A    between atoms: C_27  and  C_28
REMARK                            x       y       z     vdW  Elec       q    Type
REMARK                         _______ _______ _______ _____ _____    ______ ____
ROOT
ATOM      1  C   UNL     1       2.745   7.080  18.612  0.00  0.00    +0.000 A 
ATOM      2  C   UNL     1       2.224   8.288  18.121  0.00  0.00    +0.000 A 
ATOM      3  C   UNL     1       1.404   9.085  18.912  0.00  0.00    +0.000 A 
ATOM      4  C   UNL     1       1.065   8.629  20.176  0.00  0.00    +0.000 A 
ATOM      5  N   UNL     1       1.609   7.521  20.723  0.00  0.00    +0.000 NA
ATOM      6  C   UNL     1       2.453   6.807  19.946  0.00  0.00    +0.000 A 
ENDROOT
BRANCH   1  10
ATOM      7  C   UNL     1       5.232   4.604  16.091  0.00  0.00    +0.000 A 
ATOM      8  C   UNL     1       5.550   5.930  16.346  0.00  0.00    +0.000 A 
ATOM      9  C   UNL     1       4.731   6.693  17.175  0.00  0.00    +0.000 A 
ATOM     10  C   UNL     1       3.554   6.180  17.762  0.00  0.00    +0.000 A 
ATOM     11  C   UNL     1       3.213   4.835  17.466  0.00  0.00    +0.000 A 
ATOM     12  C   UNL     1       1.969   4.126  17.946  0.00  0.00    +0.000 C 
ATOM     13  C   UNL     1       4.078   4.064  16.657  0.00  0.00    +0.000 A 
BRANCH   7  14
ATOM     14  O   UNL     1       5.963   3.753  15.310  0.00  0.00    +0.000 OA
BRANCH  14  15
ATOM     15  C   UNL     1       6.588   4.346  14.170  0.00  0.00    +0.000 C 
BRANCH  15  16
ATOM     16  C   UNL     1       6.198   3.562  12.930  0.00  0.00    +0.000 C 
BRANCH  16  18
ATOM     17  C   UNL     1       4.413   3.147  11.462  0.00  0.00    +0.000 C 
ATOM     18  O   UNL     1       4.799   3.726  12.703  0.00  0.00    +0.000 OA
ENDBRANCH  16  18
ENDBRANCH  15  16
ENDBRANCH  14  15
ENDBRANCH   7  14
ENDBRANCH   1  10
BRANCH   4  19
ATOM     19  C   UNL     1       0.084   9.394  21.016  0.00  0.00    +0.000 C 
BRANCH  19  20
ATOM     20  O   UNL     1      -0.433  10.440  20.197  0.00  0.00    +0.000 OA
BRANCH  20  21
ATOM     21  C   UNL     1      -0.639  11.602  20.906  0.00  0.00    +0.000 A 
ATOM     22  N   UNL     1      -0.958  11.476  22.219  0.00  0.00    +0.000 NA
ATOM     23  C   UNL     1      -1.154  12.606  22.920  0.00  0.00    +0.000 A 
ATOM     24  C   UNL     1      -1.049  13.865  22.360  0.00  0.00    +0.000 A 
ATOM     25  C   UNL     1      -0.733  13.973  21.011  0.00  0.00    +0.000 A 
ATOM     26  C   UNL     1      -0.515  12.818  20.243  0.00  0.00    +0.000 A 
BRANCH  26  27
ATOM     27  C   UNL     1      -0.163  13.004  18.812  0.00  0.00    +0.000 C 
ATOM     28  N   UNL     1      -0.824  12.263  17.868  0.00  0.00    +0.000 N 
ATOM     29  O   UNL     1       0.706  13.790  18.459  0.00  0.00    +0.000 OA
ATOM     30  H   UNL     1      -1.494  11.539  18.111  0.00  0.00    +0.000 HD
ATOM     31  H   UNL     1      -0.487  12.307  16.915  0.00  0.00    +0.000 HD
ENDBRANCH  26  27
ENDBRANCH  20  21
ENDBRANCH  19  20
ENDBRANCH   4  19
TORSDOF 9
ENDMDL
MODEL 5
REMARK VINA RESULT:      -7.4      3.313     10.616
REMARK  Name = 
REMARK  11 active torsions:
REMARK  status: ('A' for Active; 'I' for Inactive)
REMARK    1  A    between atoms: C_1  and  O_2
REMARK    2  A    between atoms: O_2  and  C_3
REMARK    3  A    between atoms: C_3  and  C_4
REMARK    4  A    between atoms: C_4  and  O_5
REMARK    5  A    between atoms: O_5  and  C_6
REMARK    6  A    between atoms: C_9  and  C_10
REMARK    7  A    between atoms: C_13  and  C_14
REMARK    8  A    between atoms: C_14  and  O_15
REMARK    9  A    between atoms: O_15  and  C_16
REMARK   10  A    between atoms: C_21  and  C_22
REMARK   11  A    between atoms: C_27  and  C_28
REMARK                            x       y       z     vdW  Elec       q    Type
REMARK                         _______ _______ _______ _____ _____    ______ ____
ROOT
ATOM      1  C   UNL     1       1.924   7.198  20.264  0.00  0.00    +0.000 A 
ATOM      2  C   UNL     1       1.718   5.964  20.901  0.00  0.00    +0.000 A 
ATOM      3  C   UNL     1       2.465   4.846  20.549  0.00  0.00    +0.000 A 
ATOM      4  C   UNL     1       3.378   4.964  19.512  0.00  0.00    +0.000 A 
ATOM      5  N   UNL     1       3.672   6.147  18.930  0.00  0.00    +0.000 NA
ATOM      6  C   UNL     1       2.970   7.224  19.346  0.00  0.00    +0.000 A 
ENDROOT
BRANCH   1  10
ATOM      7  C   UNL     1      -0.554  10.573  21.335  0.00  0.00    +0.000 A 
ATOM      8  C   UNL     1      -0.270   9.564  22.244  0.00  0.00    +0.000 A 
ATOM      9  C   UNL     1       0.545   8.499  21.866  0.00  0.00    +0.000 A 
ATOM     10  C   UNL     1       1.087   8.379  20.568  0.00  0.00    +0.000 A 
ATOM     11  C   UNL     1       0.760   9.393  19.631  0.00  0.00    +0.000 A 
ATOM     12  C   UNL     1       1.190   9.413  18.183  0.00  0.00    +0.000 C 
ATOM     13  C   UNL     1      -0.032  10.488  20.045  0.00  0.00    +0.000 A 
BRANCH   7  14
ATOM     14  O   UNL     1      -1.324  11.673  21.591  0.00  0.00    +0.000 OA
BRANCH  14  15
ATOM     15  C   UNL     1      -1.276  12.160  22.934  0.00  0.00    +0.000 C 
BRANCH  15  16
ATOM     16  C   UNL     1      -2.483  13.045  23.182  0.00  0.00    +0.000 C 
BRANCH  16  18
ATOM     17  C   UNL     1      -4.285  12.399  24.542  0.00  0.00    +0.000 C 
ATOM     18  O   UNL     1      -3.644  12.223  23.284  0.00  0.00    +0.000 OA
ENDBRANCH  16  18
ENDBRANCH  15  16
ENDBRANCH  14  15
ENDBRANCH   7  14
ENDBRANCH   1  10
BRANCH   4  19
ATOM     19  C   UNL     1       4.116   3.756  19.015  0.00  0.00    +0.000 C 
BRANCH  19  20
ATOM     20  O   UNL     1       5.500   4.094  19.003  0.00  0.00    +0.000 OA
BRANCH  20  21
ATOM     21  C   UNL     1       5.961   4.357  17.732  0.00  0.00    +0.000 A 
ATOM     22  N   UNL     1       5.365   3.692  16.710  0.00  0.00    +0.000 NA
ATOM     23  C   UNL     1       5.804   3.948  15.465  0.00  0.00    +0.000 A 
ATOM     24  C   UNL     1       6.823   4.843  15.197  0.00  0.00    +0.000 A 
ATOM     25  C   UNL     1       7.427   5.506  16.257  0.00  0.00    +0.000 A 
ATOM     26  C   UNL     1       6.996   5.271  17.573  0.00  0.00    +0.000 A 
BRANCH  26  27
ATOM     27  C   UNL     1       7.672   6.026  18.660  0.00  0.00    +0.000 C 
ATOM     28  N   UNL     1       7.855   5.415  19.872  0.00  0.00    +0.000 N 
ATOM     29  O   UNL     1       8.057   7.177  18.503  0.00  0.00    +0.000 OA
ATOM     30  H   UNL     1       7.484   4.493  20.083  0.00  0.00    +0.000 HD
ATOM     31  H   UNL     1       8.201   5.981  20.636  0.00  0.00    +0.000 HD
ENDBRANCH  26  27
ENDBRANCH  20  21
ENDBRANCH  19  20
ENDBRANCH   4  19
TORSDOF 9
ENDMDL
MODEL 6
REMARK VINA RESULT:      -7.4      1.869      2.308
REMARK  Name = 
REMARK  11 active torsions:
REMARK  status: ('A' for Active; 'I' for Inactive)
REMARK    1  A    between atoms: C_1  and  O_2
REMARK    2  A    between atoms: O_2  and  C_3
REMARK    3  A    between atoms: C_3  and  C_4
REMARK    4  A    between atoms: C_4  and  O_5
REMARK    5  A    between atoms: O_5  and  C_6
REMARK    6  A    between atoms: C_9  and  C_10
REMARK    7  A    between atoms: C_13  and  C_14
REMARK    8  A    between atoms: C_14  and  O_15
REMARK    9  A    between atoms: O_15  and  C_16
REMARK   10  A    between atoms: C_21  and  C_22
REMARK   11  A    between atoms: C_27  and  C_28
REMARK                            x       y       z     vdW  Elec       q    Type
REMARK                         _______ _______ _______ _____ _____    ______ ____
ROOT
ATOM      1  C   UNL     1       2.524   7.533  18.506  0.00  0.00    +0.000 A 
ATOM      2  C   UNL     1       1.991   8.629  17.809  0.00  0.00    +0.000 A 
ATOM      3  C   UNL     1       1.124   9.518  18.435  0.00  0.00    +0.000 A 
ATOM      4  C   UNL     1       0.752   9.263  19.745  0.00  0.00    +0.000 A 
ATOM      5  N   UNL     1       1.305   8.274  20.481  0.00  0.00    +0.000 NA
ATOM      6  C   UNL     1       2.193   7.470  19.856  0.00  0.00    +0.000 A 
ENDROOT
BRANCH   1  10
ATOM      7  C   UNL     1       5.163   4.757  16.504  0.00  0.00    +0.000 A 
ATOM      8  C   UNL     1       5.465   6.107  16.595  0.00  0.00    +0.000 A 
ATOM      9  C   UNL     1       4.596   6.969  17.260  0.00  0.00    +0.000 A 
ATOM     10  C   UNL     1       3.384   6.531  17.838  0.00  0.00    +0.000 A 
ATOM     11  C   UNL     1       3.062   5.157  17.708  0.00  0.00    +0.000 A 
ATOM     12  C   UNL     1       1.790   4.509  18.202  0.00  0.00    +0.000 C 
ATOM     13  C   UNL     1       3.976   4.290  17.067  0.00  0.00    +0.000 A 
BRANCH   7  14
ATOM     14  O   UNL     1       5.940   3.813  15.894  0.00  0.00    +0.000 OA
BRANCH  14  15
ATOM     15  C   UNL     1       6.702   4.271  14.775  0.00  0.00    +0.000 C 
BRANCH  15  16
ATOM     16  C   UNL     1       6.047   3.779  13.497  0.00  0.00    +0.000 C 
BRANCH  16  18
ATOM     17  C   UNL     1       7.776   5.133  12.667  0.00  0.00    +0.000 C 
ATOM     18  O   UNL     1       6.930   4.021  12.403  0.00  0.00    +0.000 OA
ENDBRANCH  16  18
ENDBRANCH  15  16
ENDBRANCH  14  15
ENDBRANCH   7  14
ENDBRANCH   1  10
BRANCH   4  19
ATOM     19  C   UNL     1      -0.275  10.123  20.419  0.00  0.00    +0.000 C 
BRANCH  19  20
ATOM     20  O   UNL     1       0.419  10.934  21.363  0.00  0.00    +0.000 OA
BRANCH  20  21
ATOM     21  C   UNL     1      -0.426  11.778  22.047  0.00  0.00    +0.000 A 
ATOM     22  N   UNL     1      -1.506  11.215  22.646  0.00  0.00    +0.000 NA
ATOM     23  C   UNL     1      -2.334  12.031  23.323  0.00  0.00    +0.000 A 
ATOM     24  C   UNL     1      -2.129  13.394  23.423  0.00  0.00    +0.000 A 
ATOM     25  C   UNL     1      -1.024  13.953  22.794  0.00  0.00    +0.000 A 
ATOM     26  C   UNL     1      -0.131  13.136  22.080  0.00  0.00    +0.000 A 
BRANCH  26  27
ATOM     27  C   UNL     1       1.040  13.793  21.445  0.00  0.00    +0.000 C 
ATOM     28  N   UNL     1       1.277  13.576  20.114  0.00  0.00    +0.000 N 
ATOM     29  O   UNL     1       1.801  14.511  22.082  0.00  0.00    +0.000 OA
ATOM     30  H   UNL     1       0.728  12.927  19.558  0.00  0.00    +0.000 HD
ATOM     31  H   UNL     1       2.145  13.926  19.728  0.00  0.00    +0.000 HD
ENDBRANCH  26  27
ENDBRANCH  20  21
ENDBRANCH  19  20
ENDBRANCH   4  19
TORSDOF 9
ENDMDL
MODEL 7
REMARK VINA RESULT:      -7.4      0.823      1.273
REMARK  Name = 
REMARK  11 active torsions:
REMARK  status: ('A' for Active; 'I' for Inactive)
REMARK    1  A    between atoms: C_1  and  O_2
REMARK    2  A    between atoms: O_2  and  C_3
REMARK    3  A    between atoms: C_3  and  C_4
REMARK    4  A    between atoms: C_4  and  O_5
REMARK    5  A    between atoms: O_5  and  C_6
REMARK    6  A    between atoms: C_9  and  C_10
REMARK    7  A    between atoms: C_13  and  C_14
REMARK    8  A    between atoms: C_14  and  O_15
REMARK    9  A    between atoms: O_15  and  C_16
REMARK   10  A    between atoms: C_21  and  C_22
REMARK   11  A    between atoms: C_27  and  C_28
REMARK                            x       y       z     vdW  Elec       q    Type
REMARK                         _______ _______ _______ _____ _____    ______ ____
ROOT
ATOM      1  C   UNL     1       2.583   7.045  18.744  0.00  0.00    +0.000 A 
ATOM      2  C   UNL     1       2.255   6.740  20.075  0.00  0.00    +0.000 A 
ATOM      3  C   UNL     1       1.547   7.643  20.859  0.00  0.00    +0.000 A 
ATOM      4  C   UNL     1       1.225   8.877  20.316  0.00  0.00    +0.000 A 
ATOM      5  N   UNL     1       1.443   9.182  19.018  0.00  0.00    +0.000 NA
ATOM      6  C   UNL     1       2.075   8.252  18.269  0.00  0.00    +0.000 A 
ENDROOT
BRANCH   1  10
ATOM      7  C   UNL     1       5.106   4.533  16.296  0.00  0.00    +0.000 A 
ATOM      8  C   UNL     1       5.445   5.848  16.574  0.00  0.00    +0.000 A 
ATOM      9  C   UNL     1       4.613   6.623  17.379  0.00  0.00    +0.000 A 
ATOM     10  C   UNL     1       3.403   6.133  17.917  0.00  0.00    +0.000 A 
ATOM     11  C   UNL     1       3.043   4.800  17.596  0.00  0.00    +0.000 A 
ATOM     12  C   UNL     1       1.765   4.115  18.022  0.00  0.00    +0.000 C 
ATOM     13  C   UNL     1       3.920   4.015  16.813  0.00  0.00    +0.000 A 
BRANCH   7  14
ATOM     14  O   UNL     1       5.846   3.671  15.535  0.00  0.00    +0.000 OA
BRANCH  14  15
ATOM     15  C   UNL     1       6.590   4.270  14.472  0.00  0.00    +0.000 C 
BRANCH  15  16
ATOM     16  C   UNL     1       6.180   3.629  13.159  0.00  0.00    +0.000 C 
BRANCH  16  18
ATOM     17  C   UNL     1       7.835   5.198  12.601  0.00  0.00    +0.000 C 
ATOM     18  O   UNL     1       6.974   4.178  12.109  0.00  0.00    +0.000 OA
ENDBRANCH  16  18
ENDBRANCH  15  16
ENDBRANCH  14  15
ENDBRANCH   7  14
ENDBRANCH   1  10
BRANCH   4  19
ATOM     19  C   UNL     1       0.574   9.929  21.164  0.00  0.00    +0.000 C 
BRANCH  19  20
ATOM     20  O   UNL     1      -0.616  10.326  20.488  0.00  0.00    +0.000 OA
BRANCH  20  21
ATOM     21  C   UNL     1      -1.046  11.573  20.880  0.00  0.00    +0.000 A 
ATOM     22  N   UNL     1      -0.761  11.952  22.152  0.00  0.00    +0.000 NA
ATOM     23  C   UNL     1      -1.172  13.172  22.541  0.00  0.00    +0.000 A 
ATOM     24  C   UNL     1      -1.864  14.033  21.711  0.00  0.00    +0.000 A 
ATOM     25  C   UNL     1      -2.156  13.623  20.416  0.00  0.00    +0.000 A 
ATOM     26  C   UNL     1      -1.741  12.358  19.967  0.00  0.00    +0.000 A 
BRANCH  26  27
ATOM     27  C   UNL     1      -2.070  11.987  18.566  0.00  0.00    +0.000 C 
ATOM     28  N   UNL     1      -1.323  12.523  17.550  0.00  0.00    +0.000 N 
ATOM     29  O   UNL     1      -2.993  11.229  18.299  0.00  0.00    +0.000 OA
ATOM     30  H   UNL     1      -0.601  13.219  17.709  0.00  0.00    +0.000 HD
ATOM     31  H   UNL     1      -1.637  12.362  16.601  0.00  0.00    +0.000 HD
ENDBRANCH  26  27
ENDBRANCH  20  21
ENDBRANCH  19  20
ENDBRANCH   4  19
TORSDOF 9
ENDMDL
MODEL 8
REMARK VINA RESULT:      -7.3      1.217      1.469
REMARK  Name = 
REMARK  11 active torsions:
REMARK  status: ('A' for Active; 'I' for Inactive)
REMARK    1  A    between atoms: C_1  and  O_2
REMARK    2  A    between atoms: O_2  and  C_3
REMARK    3  A    between atoms: C_3  and  C_4
REMARK    4  A    between atoms: C_4  and  O_5
REMARK    5  A    between atoms: O_5  and  C_6
REMARK    6  A    between atoms: C_9  and  C_10
REMARK    7  A    between atoms: C_13  and  C_14
REMARK    8  A    between atoms: C_14  and  O_15
REMARK    9  A    between atoms: O_15  and  C_16
REMARK   10  A    between atoms: C_21  and  C_22
REMARK   11  A    between atoms: C_27  and  C_28
REMARK                            x       y       z     vdW  Elec       q    Type
REMARK                         _______ _______ _______ _____ _____    ______ ____
ROOT
ATOM      1  C   UNL     1       2.603   6.975  18.797  0.00  0.00    +0.000 A 
ATOM      2  C   UNL     1       2.245   6.647  20.115  0.00  0.00    +0.000 A 
ATOM      3  C   UNL     1       1.528   7.540  20.902  0.00  0.00    +0.000 A 
ATOM      4  C   UNL     1       1.225   8.786  20.376  0.00  0.00    +0.000 A 
ATOM      5  N   UNL     1       1.471   9.114  19.089  0.00  0.00    +0.000 NA
ATOM      6  C   UNL     1       2.112   8.194  18.336  0.00  0.00    +0.000 A 
ENDROOT
BRANCH   1  10
ATOM      7  C   UNL     1       5.160   4.492  16.355  0.00  0.00    +0.000 A 
ATOM      8  C   UNL     1       5.510   5.793  16.680  0.00  0.00    +0.000 A 
ATOM      9  C   UNL     1       4.666   6.559  17.481  0.00  0.00    +0.000 A 
ATOM     10  C   UNL     1       3.433   6.073  17.969  0.00  0.00    +0.000 A 
ATOM     11  C   UNL     1       3.063   4.755  17.600  0.00  0.00    +0.000 A 
ATOM     12  C   UNL     1       1.763   4.080  17.970  0.00  0.00    +0.000 C 
ATOM     13  C   UNL     1       3.951   3.979  16.822  0.00  0.00    +0.000 A 
BRANCH   7  14
ATOM     14  O   UNL     1       5.909   3.640  15.592  0.00  0.00    +0.000 OA
BRANCH  14  15
ATOM     15  C   UNL     1       6.334   4.155  14.328  0.00  0.00    +0.000 C 
BRANCH  15  16
ATOM     16  C   UNL     1       5.303   3.791  13.276  0.00  0.00    +0.000 C 
BRANCH  16  18
ATOM     17  C   UNL     1       7.235   3.936  11.949  0.00  0.00    +0.000 C 
ATOM     18  O   UNL     1       5.978   3.293  12.122  0.00  0.00    +0.000 OA
ENDBRANCH  16  18
ENDBRANCH  15  16
ENDBRANCH  14  15
ENDBRANCH   7  14
ENDBRANCH   1  10
BRANCH   4  19
ATOM     19  C   UNL     1       0.563   9.826  21.231  0.00  0.00    +0.000 C 
BRANCH  19  20
ATOM     20  O   UNL     1      -0.374  10.507  20.402  0.00  0.00    +0.000 OA
BRANCH  20  21
ATOM     21  C   UNL     1      -0.129  11.860  20.341  0.00  0.00    +0.000 A 
ATOM     22  N   UNL     1       0.816  12.354  21.180  0.00  0.00    +0.000 NA
ATOM     23  C   UNL     1       1.067  13.674  21.122  0.00  0.00    +0.000 A 
ATOM     24  C   UNL     1       0.407  14.527  20.258  0.00  0.00    +0.000 A 
ATOM     25  C   UNL     1      -0.564  14.004  19.414  0.00  0.00    +0.000 A 
ATOM     26  C   UNL     1      -0.855  12.630  19.439  0.00  0.00    +0.000 A 
BRANCH  26  27
ATOM     27  C   UNL     1      -1.892  12.131  18.498  0.00  0.00    +0.000 C 
ATOM     28  N   UNL     1      -1.624  12.145  17.155  0.00  0.00    +0.000 N 
ATOM     29  O   UNL     1      -2.976  11.723  18.892  0.00  0.00    +0.000 OA
ATOM     30  H   UNL     1      -0.776  12.548  16.769  0.00  0.00    +0.000 HD
ATOM     31  H   UNL     1      -2.383  11.923  16.523  0.00  0.00    +0.000 HD
ENDBRANCH  26  27
ENDBRANCH  20  21
ENDBRANCH  19  20
ENDBRANCH   4  19
TORSDOF 9
ENDMDL
MODEL 9
REMARK VINA RESULT:      -7.3      2.884     10.693
REMARK  Name = 
REMARK  11 active torsions:
REMARK  status: ('A' for Active; 'I' for Inactive)
REMARK    1  A    between atoms: C_1  and  O_2
REMARK    2  A    between atoms: O_2  and  C_3
REMARK    3  A    between atoms: C_3  and  C_4
REMARK    4  A    between atoms: C_4  and  O_5
REMARK    5  A    between atoms: O_5  and  C_6
REMARK    6  A    between atoms: C_9  and  C_10
REMARK    7  A    between atoms: C_13  and  C_14
REMARK    8  A    between atoms: C_14  and  O_15
REMARK    9  A    between atoms: O_15  and  C_16
REMARK   10  A    between atoms: C_21  and  C_22
REMARK   11  A    between atoms: C_27  and  C_28
REMARK                            x       y       z     vdW  Elec       q    Type
REMARK                         _______ _______ _______ _____ _____    ______ ____
ROOT
ATOM      1  C   UNL     1       0.609   9.624  20.367  0.00  0.00    +0.000 A 
ATOM      2  C   UNL     1       1.102   8.476  21.009  0.00  0.00    +0.000 A 
ATOM      3  C   UNL     1       1.904   7.568  20.327  0.00  0.00    +0.000 A 
ATOM      4  C   UNL     1       2.157   7.791  18.983  0.00  0.00    +0.000 A 
ATOM      5  N   UNL     1       1.777   8.921  18.347  0.00  0.00    +0.000 NA
ATOM      6  C   UNL     1       1.055   9.811  19.061  0.00  0.00    +0.000 A 
ENDROOT
BRANCH   1  10
ATOM      7  C   UNL     1      -2.094  12.464  22.184  0.00  0.00    +0.000 A 
ATOM      8  C   UNL     1      -1.770  12.531  20.838  0.00  0.00    +0.000 A 
ATOM      9  C   UNL     1      -0.905  11.589  20.284  0.00  0.00    +0.000 A 
ATOM     10  C   UNL     1      -0.310  10.562  21.048  0.00  0.00    +0.000 A 
ATOM     11  C   UNL     1      -0.615  10.522  22.433  0.00  0.00    +0.000 A 
ATOM     12  C   UNL     1      -0.035   9.541  23.425  0.00  0.00    +0.000 C 
ATOM     13  C   UNL     1      -1.527  11.460  22.967  0.00  0.00    +0.000 A 
BRANCH   7  14
ATOM     14  O   UNL     1      -2.940  13.317  22.836  0.00  0.00    +0.000 OA
BRANCH  14  15
ATOM     15  C   UNL     1      -4.159  13.618  22.154  0.00  0.00    +0.000 C 
BRANCH  15  16
ATOM     16  C   UNL     1      -5.316  12.995  22.913  0.00  0.00    +0.000 C 
BRANCH  16  18
ATOM     17  C   UNL     1      -5.650  12.345  20.682  0.00  0.00    +0.000 C 
ATOM     18  O   UNL     1      -6.028  12.125  22.035  0.00  0.00    +0.000 OA
ENDBRANCH  16  18
ENDBRANCH  15  16
ENDBRANCH  14  15
ENDBRANCH   7  14
ENDBRANCH   1  10
BRANCH   4  19
ATOM     19  C   UNL     1       2.912   6.775  18.178  0.00  0.00    +0.000 C 
BRANCH  19  20
ATOM     20  O   UNL     1       3.388   5.794  19.095  0.00  0.00    +0.000 OA
BRANCH  20  21
ATOM     21  C   UNL     1       2.919   4.534  18.800  0.00  0.00    +0.000 A 
ATOM     22  N   UNL     1       1.672   4.223  19.235  0.00  0.00    +0.000 NA
ATOM     23  C   UNL     1       1.203   2.996  18.945  0.00  0.00    +0.000 A 
ATOM     24  C   UNL     1       1.934   2.060  18.238  0.00  0.00    +0.000 A 
ATOM     25  C   UNL     1       3.213   2.393  17.812  0.00  0.00    +0.000 A 
ATOM     26  C   UNL     1       3.740   3.665  18.090  0.00  0.00    +0.000 A 
BRANCH  26  27
ATOM     27  C   UNL     1       5.107   3.964  17.590  0.00  0.00    +0.000 C 
ATOM     28  N   UNL     1       6.122   4.115  18.496  0.00  0.00    +0.000 N 
ATOM     29  O   UNL     1       5.343   4.090  16.395  0.00  0.00    +0.000 OA
ATOM     30  H   UNL     1       5.967   4.102  19.500  0.00  0.00    +0.000 HD
ATOM     31  H   UNL     1       7.016   4.441  18.151  0.00  0.00    +0.000 HD
ENDBRANCH  26  27
ENDBRANCH  20  21
ENDBRANCH  19  20
ENDBRANCH   4  19
TORSDOF 9
ENDMDL
