MODEL 1
REMARK VINA RESULT:      -8.5      0.000      0.000
REMARK  Name = 
REMARK  7 active torsions:
REMARK  status: ('A' for Active; 'I' for Inactive)
REMARK    1  A    between atoms: C_2  and  C_5
REMARK    2  A    between atoms: N_3  and  O_4
REMARK    3  A    between atoms: C_10  and  S_11
REMARK    4  A    between atoms: S_11  and  N_14
REMARK    5  A    between atoms: C_17  and  O_18
REMARK    6  A    between atoms: O_18  and  C_19
REMARK    7  A    between atoms: C_22  and  C_23
REMARK                            x       y       z     vdW  Elec       q    Type
REMARK                         _______ _______ _______ _____ _____    ______ ____
ROOT
ATOM      1  N   UNL     1       2.577   7.658  19.018  0.00  0.00    +0.000 NA
ATOM      2  C   UNL     1       2.323   8.291  17.690  0.00  0.00    +0.000 C 
ATOM      3  C   UNL     1       1.967   9.770  17.811  0.00  0.00    +0.000 C 
ATOM      4  C   UNL     1       0.782  10.025  18.739  0.00  0.00    +0.000 C 
ATOM      5  C   UNL     1       1.064   9.384  20.095  0.00  0.00    +0.000 C 
ATOM      6  C   UNL     1       1.487   7.927  20.018  0.00  0.00    +0.000 C 
ENDROOT
BRANCH   1   7
ATOM      7  S   UNL     1       2.838   5.951  18.929  0.00  0.00    +0.000 S 
ATOM      8  O   UNL     1       1.598   5.355  18.493  0.00  0.00    +0.000 OA
ATOM      9  O   UNL     1       3.459   5.524  20.170  0.00  0.00    +0.000 OA
BRANCH   7  15
ATOM     10  C   UNL     1       4.610   4.417  17.389  0.00  0.00    +0.000 A 
ATOM     11  C   UNL     1       5.482   4.309  16.282  0.00  0.00    +0.000 A 
ATOM     12  C   UNL     1       5.787   5.408  15.472  0.00  0.00    +0.000 A 
ATOM     13  C   UNL     1       5.235   6.647  15.762  0.00  0.00    +0.000 A 
ATOM     14  C   UNL     1       4.377   6.780  16.852  0.00  0.00    +0.000 A 
ATOM     15  C   UNL     1       4.056   5.673  17.669  0.00  0.00    +0.000 A 
BRANCH  10  17
ATOM     16  O   UNL     1       3.580   2.341  17.805  0.00  0.00    +0.000 OA
ATOM     17  C   UNL     1       4.432   3.156  18.163  0.00  0.00    +0.000 C 
ATOM     18  N   UNL     1       5.175   2.933  19.293  0.00  0.00    +0.000 N 
ATOM     19  H   UNL     1       5.823   3.586  19.737  0.00  0.00    +0.000 HD
BRANCH  18  20
ATOM     20  O   UNL     1       4.916   1.725  19.980  0.00  0.00    +0.000 OA
ATOM     21  H   UNL     1       4.065   1.926  20.428  0.00  0.00    +0.000 HD
ENDBRANCH  18  20
ENDBRANCH  10  17
ENDBRANCH   7  15
ENDBRANCH   1   7
BRANCH   4  22
ATOM     22  O   UNL     1      -0.426   9.487  18.179  0.00  0.00    +0.000 OA
BRANCH  22  23
ATOM     23  C   UNL     1      -1.593  10.208  18.257  0.00  0.00    +0.000 A 
ATOM     24  C   UNL     1      -2.665   9.679  17.528  0.00  0.00    +0.000 A 
ATOM     25  C   UNL     1      -3.920  10.308  17.518  0.00  0.00    +0.000 A 
ATOM     26  C   UNL     1      -4.137  11.480  18.252  0.00  0.00    +0.000 A 
ATOM     27  C   UNL     1      -3.067  12.000  18.994  0.00  0.00    +0.000 A 
ATOM     28  C   UNL     1      -1.812  11.371  18.996  0.00  0.00    +0.000 A 
BRANCH  26  29
ATOM     29  C   UNL     1      -5.476  12.180  18.261  0.00  0.00    +0.000 C 
ATOM     30  F   UNL     1      -5.662  13.025  17.208  0.00  0.00    +0.000 F 
ATOM     31  F   UNL     1      -6.522  11.307  18.226  0.00  0.00    +0.000 F 
ATOM     32  F   UNL     1      -5.662  12.934  19.380  0.00  0.00    +0.000 F 
ENDBRANCH  26  29
ENDBRANCH  22  23
ENDBRANCH   4  22
TORSDOF 7
ENDMDL
MODEL 2
REMARK VINA RESULT:      -8.4      0.868      1.004
REMARK  Name = 
REMARK  7 active torsions:
REMARK  status: ('A' for Active; 'I' for Inactive)
REMARK    1  A    between atoms: C_2  and  C_5
REMARK    2  A    between atoms: N_3  and  O_4
REMARK    3  A    between atoms: C_10  and  S_11
REMARK    4  A    between atoms: S_11  and  N_14
REMARK    5  A    between atoms: C_17  and  O_18
REMARK    6  A    between atoms: O_18  and  C_19
REMARK    7  A    between atoms: C_22  and  C_23
REMARK                            x       y       z     vdW  Elec       q    Type
REMARK                         _______ _______ _______ _____ _____    ______ ____
ROOT
ATOM      1  N   UNL     1       2.586   7.706  18.984  0.00  0.00    +0.000 NA
ATOM      2  C   UNL     1       2.330   8.376  17.674  0.00  0.00    +0.000 C 
ATOM      3  C   UNL     1       1.936   9.841  17.840  0.00  0.00    +0.000 C 
ATOM      4  C   UNL     1       0.736  10.035  18.764  0.00  0.00    +0.000 C 
ATOM      5  C   UNL     1       1.021   9.356  20.101  0.00  0.00    +0.000 C 
ATOM      6  C   UNL     1       1.481   7.914  19.980  0.00  0.00    +0.000 C 
ENDROOT
BRANCH   1   7
ATOM      7  S   UNL     1       2.891   6.009  18.840  0.00  0.00    +0.000 S 
ATOM      8  O   UNL     1       2.002   5.504  17.823  0.00  0.00    +0.000 OA
ATOM      9  O   UNL     1       2.878   5.435  20.174  0.00  0.00    +0.000 OA
BRANCH   7  15
ATOM     10  C   UNL     1       5.206   4.587  18.146  0.00  0.00    +0.000 A 
ATOM     11  C   UNL     1       6.491   4.565  17.559  0.00  0.00    +0.000 A 
ATOM     12  C   UNL     1       7.109   5.728  17.089  0.00  0.00    +0.000 A 
ATOM     13  C   UNL     1       6.458   6.947  17.210  0.00  0.00    +0.000 A 
ATOM     14  C   UNL     1       5.192   6.996  17.792  0.00  0.00    +0.000 A 
ATOM     15  C   UNL     1       4.557   5.824  18.260  0.00  0.00    +0.000 A 
BRANCH  10  17
ATOM     16  O   UNL     1       4.935   2.929  19.795  0.00  0.00    +0.000 OA
ATOM     17  C   UNL     1       4.722   3.262  18.628  0.00  0.00    +0.000 C 
ATOM     18  N   UNL     1       4.093   2.405  17.763  0.00  0.00    +0.000 N 
ATOM     19  H   UNL     1       3.967   2.536  16.758  0.00  0.00    +0.000 HD
BRANCH  18  20
ATOM     20  O   UNL     1       3.697   1.159  18.301  0.00  0.00    +0.000 OA
ATOM     21  H   UNL     1       2.734   1.295  18.437  0.00  0.00    +0.000 HD
ENDBRANCH  18  20
ENDBRANCH  10  17
ENDBRANCH   7  15
ENDBRANCH   1   7
BRANCH   4  22
ATOM     22  O   UNL     1      -0.453   9.486  18.173  0.00  0.00    +0.000 OA
BRANCH  22  23
ATOM     23  C   UNL     1      -1.623  10.205  18.207  0.00  0.00    +0.000 A 
ATOM     24  C   UNL     1      -2.652   9.698  17.403  0.00  0.00    +0.000 A 
ATOM     25  C   UNL     1      -3.906  10.325  17.342  0.00  0.00    +0.000 A 
ATOM     26  C   UNL     1      -4.166  11.475  18.097  0.00  0.00    +0.000 A 
ATOM     27  C   UNL     1      -3.141  11.972  18.914  0.00  0.00    +0.000 A 
ATOM     28  C   UNL     1      -1.887  11.344  18.968  0.00  0.00    +0.000 A 
BRANCH  26  29
ATOM     29  C   UNL     1      -5.505  12.173  18.051  0.00  0.00    +0.000 C 
ATOM     30  F   UNL     1      -5.632  13.051  17.017  0.00  0.00    +0.000 F 
ATOM     31  F   UNL     1      -6.546  11.302  17.929  0.00  0.00    +0.000 F 
ATOM     32  F   UNL     1      -5.757  12.892  19.181  0.00  0.00    +0.000 F 
ENDBRANCH  26  29
ENDBRANCH  22  23
ENDBRANCH   4  22
TORSDOF 7
ENDMDL
MODEL 3
REMARK VINA RESULT:      -8.2      0.697      1.021
REMARK  Name = 
REMARK  7 active torsions:
REMARK  status: ('A' for Active; 'I' for Inactive)
REMARK    1  A    between atoms: C_2  and  C_5
REMARK    2  A    between atoms: N_3  and  O_4
REMARK    3  A    between atoms: C_10  and  S_11
REMARK    4  A    between atoms: S_11  and  N_14
REMARK    5  A    between atoms: C_17  and  O_18
REMARK    6  A    between atoms: O_18  and  C_19
REMARK    7  A    between atoms: C_22  and  C_23
REMARK                            x       y       z     vdW  Elec       q    Type
REMARK                         _______ _______ _______ _____ _____    ______ ____
ROOT
ATOM      1  N   UNL     1       2.461   7.703  19.023  0.00  0.00    +0.000 NA
ATOM      2  C   UNL     1       2.335   8.368  17.693  0.00  0.00    +0.000 C 
ATOM      3  C   UNL     1       2.023   9.857  17.815  0.00  0.00    +0.000 C 
ATOM      4  C   UNL     1       0.778  10.138  18.653  0.00  0.00    +0.000 C 
ATOM      5  C   UNL     1       0.930   9.463  20.014  0.00  0.00    +0.000 C 
ATOM      6  C   UNL     1       1.306   7.994  19.940  0.00  0.00    +0.000 C 
ENDROOT
BRANCH   1   7
ATOM      7  S   UNL     1       2.668   5.989  18.919  0.00  0.00    +0.000 S 
ATOM      8  O   UNL     1       1.433   5.444  18.409  0.00  0.00    +0.000 OA
ATOM      9  O   UNL     1       3.207   5.523  20.184  0.00  0.00    +0.000 OA
BRANCH   7  15
ATOM     10  C   UNL     1       4.131   4.454  17.084  0.00  0.00    +0.000 A 
ATOM     11  C   UNL     1       5.104   4.379  16.063  0.00  0.00    +0.000 A 
ATOM     12  C   UNL     1       5.858   5.492  15.677  0.00  0.00    +0.000 A 
ATOM     13  C   UNL     1       5.664   6.706  16.317  0.00  0.00    +0.000 A 
ATOM     14  C   UNL     1       4.714   6.805  17.333  0.00  0.00    +0.000 A 
ATOM     15  C   UNL     1       3.941   5.688  17.721  0.00  0.00    +0.000 A 
BRANCH  10  17
ATOM     16  O   UNL     1       2.345   2.931  16.906  0.00  0.00    +0.000 OA
ATOM     17  C   UNL     1       3.453   3.162  17.392  0.00  0.00    +0.000 C 
ATOM     18  N   UNL     1       4.037   2.268  18.250  0.00  0.00    +0.000 N 
ATOM     19  H   UNL     1       4.893   2.408  18.789  0.00  0.00    +0.000 HD
BRANCH  18  20
ATOM     20  O   UNL     1       3.308   1.085  18.507  0.00  0.00    +0.000 OA
ATOM     21  H   UNL     1       2.824   0.958  17.661  0.00  0.00    +0.000 HD
ENDBRANCH  18  20
ENDBRANCH  10  17
ENDBRANCH   7  15
ENDBRANCH   1   7
BRANCH   4  22
ATOM     22  O   UNL     1      -0.401   9.655  17.989  0.00  0.00    +0.000 OA
BRANCH  22  23
ATOM     23  C   UNL     1      -1.596  10.309  18.163  0.00  0.00    +0.000 A 
ATOM     24  C   UNL     1      -2.693   9.717  17.524  0.00  0.00    +0.000 A 
ATOM     25  C   UNL     1      -3.978  10.272  17.617  0.00  0.00    +0.000 A 
ATOM     26  C   UNL     1      -4.201  11.432  18.369  0.00  0.00    +0.000 A 
ATOM     27  C   UNL     1      -3.106  12.014  19.022  0.00  0.00    +0.000 A 
ATOM     28  C   UNL     1      -1.821  11.459  18.921  0.00  0.00    +0.000 A 
BRANCH  26  29
ATOM     29  C   UNL     1      -5.573  12.054  18.488  0.00  0.00    +0.000 C 
ATOM     30  F   UNL     1      -5.930  12.357  19.768  0.00  0.00    +0.000 F 
ATOM     31  F   UNL     1      -5.683  13.217  17.786  0.00  0.00    +0.000 F 
ATOM     32  F   UNL     1      -6.557  11.240  18.012  0.00  0.00    +0.000 F 
ENDBRANCH  26  29
ENDBRANCH  22  23
ENDBRANCH   4  22
TORSDOF 7
ENDMDL
MODEL 4
REMARK VINA RESULT:      -8.1      3.495      4.490
REMARK  Name = 
REMARK  7 active torsions:
REMARK  status: ('A' for Active; 'I' for Inactive)
REMARK    1  A    between atoms: C_2  and  C_5
REMARK    2  A    between atoms: N_3  and  O_4
REMARK    3  A    between atoms: C_10  and  S_11
REMARK    4  A    between atoms: S_11  and  N_14
REMARK    5  A    between atoms: C_17  and  O_18
REMARK    6  A    between atoms: O_18  and  C_19
REMARK    7  A    between atoms: C_22  and  C_23
REMARK                            x       y       z     vdW  Elec       q    Type
REMARK                         _______ _______ _______ _____ _____    ______ ____
ROOT
ATOM      1  N   UNL     1       2.067   7.394  18.674  0.00  0.00    +0.000 NA
ATOM      2  C   UNL     1       1.994   7.830  20.100  0.00  0.00    +0.000 C 
ATOM      3  C   UNL     1       0.767   8.694  20.380  0.00  0.00    +0.000 C 
ATOM      4  C   UNL     1       0.671   9.909  19.463  0.00  0.00    +0.000 C 
ATOM      5  C   UNL     1       0.734   9.444  18.010  0.00  0.00    +0.000 C 
ATOM      6  C   UNL     1       1.904   8.527  17.701  0.00  0.00    +0.000 C 
ENDROOT
BRANCH   1   7
ATOM      7  S   UNL     1       3.520   6.538  18.289  0.00  0.00    +0.000 S 
ATOM      8  O   UNL     1       4.374   6.610  19.450  0.00  0.00    +0.000 OA
ATOM      9  O   UNL     1       3.994   7.011  17.001  0.00  0.00    +0.000 OA
BRANCH   7  15
ATOM     10  C   UNL     1       4.001   3.831  17.739  0.00  0.00    +0.000 A 
ATOM     11  C   UNL     1       3.533   2.499  17.678  0.00  0.00    +0.000 A 
ATOM     12  C   UNL     1       2.194   2.175  17.915  0.00  0.00    +0.000 A 
ATOM     13  C   UNL     1       1.286   3.182  18.206  0.00  0.00    +0.000 A 
ATOM     14  C   UNL     1       1.722   4.505  18.264  0.00  0.00    +0.000 A 
ATOM     15  C   UNL     1       3.075   4.839  18.036  0.00  0.00    +0.000 A 
BRANCH  10  17
ATOM     16  O   UNL     1       5.815   3.944  16.242  0.00  0.00    +0.000 OA
ATOM     17  C   UNL     1       5.448   3.995  17.417  0.00  0.00    +0.000 C 
ATOM     18  N   UNL     1       6.362   4.148  18.426  0.00  0.00    +0.000 N 
ATOM     19  H   UNL     1       6.180   4.093  19.429  0.00  0.00    +0.000 HD
BRANCH  18  20
ATOM     20  O   UNL     1       7.713   4.265  18.028  0.00  0.00    +0.000 OA
ATOM     21  H   UNL     1       7.892   3.374  17.655  0.00  0.00    +0.000 HD
ENDBRANCH  18  20
ENDBRANCH  10  17
ENDBRANCH   7  15
ENDBRANCH   1   7
BRANCH   4  22
ATOM     22  O   UNL     1       1.737  10.834  19.732  0.00  0.00    +0.000 OA
BRANCH  22  23
ATOM     23  C   UNL     1       1.591  12.158  19.397  0.00  0.00    +0.000 A 
ATOM     24  C   UNL     1       0.513  12.809  20.011  0.00  0.00    +0.000 A 
ATOM     25  C   UNL     1       0.244  14.164  19.765  0.00  0.00    +0.000 A 
ATOM     26  C   UNL     1       1.059  14.909  18.905  0.00  0.00    +0.000 A 
ATOM     27  C   UNL     1       2.147  14.261  18.303  0.00  0.00    +0.000 A 
ATOM     28  C   UNL     1       2.409  12.904  18.547  0.00  0.00    +0.000 A 
BRANCH  26  29
ATOM     29  C   UNL     1       0.795  16.369  18.620  0.00  0.00    +0.000 C 
ATOM     30  F   UNL     1       1.751  16.961  17.851  0.00  0.00    +0.000 F 
ATOM     31  F   UNL     1      -0.385  16.569  17.967  0.00  0.00    +0.000 F 
ATOM     32  F   UNL     1       0.718  17.116  19.757  0.00  0.00    +0.000 F 
ENDBRANCH  26  29
ENDBRANCH  22  23
ENDBRANCH   4  22
TORSDOF 7
ENDMDL
MODEL 5
REMARK VINA RESULT:      -8.1      3.176      4.589
REMARK  Name = 
REMARK  7 active torsions:
REMARK  status: ('A' for Active; 'I' for Inactive)
REMARK    1  A    between atoms: C_2  and  C_5
REMARK    2  A    between atoms: N_3  and  O_4
REMARK    3  A    between atoms: C_10  and  S_11
REMARK    4  A    between atoms: S_11  and  N_14
REMARK    5  A    between atoms: C_17  and  O_18
REMARK    6  A    between atoms: O_18  and  C_19
REMARK    7  A    between atoms: C_22  and  C_23
REMARK                            x       y       z     vdW  Elec       q    Type
REMARK                         _______ _______ _______ _____ _____    ______ ____
ROOT
ATOM      1  N   UNL     1       3.608   4.948  18.983  0.00  0.00    +0.000 NA
ATOM      2  C   UNL     1       3.004   4.929  20.348  0.00  0.00    +0.000 C 
ATOM      3  C   UNL     1       1.531   5.325  20.337  0.00  0.00    +0.000 C 
ATOM      4  C   UNL     1       1.283   6.681  19.681  0.00  0.00    +0.000 C 
ATOM      5  C   UNL     1       1.894   6.678  18.282  0.00  0.00    +0.000 C 
ATOM      6  C   UNL     1       3.343   6.225  18.237  0.00  0.00    +0.000 C 
ENDROOT
BRANCH   1   7
ATOM      7  S   UNL     1       5.311   4.647  18.979  0.00  0.00    +0.000 S 
ATOM      8  O   UNL     1       5.504   3.297  19.448  0.00  0.00    +0.000 OA
ATOM      9  O   UNL     1       5.966   5.756  19.651  0.00  0.00    +0.000 OA
BRANCH   7  15
ATOM     10  C   UNL     1       6.763   5.680  16.814  0.00  0.00    +0.000 A 
ATOM     11  C   UNL     1       7.203   5.562  15.476  0.00  0.00    +0.000 A 
ATOM     12  C   UNL     1       6.765   4.529  14.642  0.00  0.00    +0.000 A 
ATOM     13  C   UNL     1       5.861   3.595  15.125  0.00  0.00    +0.000 A 
ATOM     14  C   UNL     1       5.406   3.693  16.440  0.00  0.00    +0.000 A 
ATOM     15  C   UNL     1       5.853   4.728  17.291  0.00  0.00    +0.000 A 
BRANCH  10  17
ATOM     16  O   UNL     1       6.910   7.992  17.234  0.00  0.00    +0.000 OA
ATOM     17  C   UNL     1       7.301   6.864  17.542  0.00  0.00    +0.000 C 
ATOM     18  N   UNL     1       8.260   6.700  18.507  0.00  0.00    +0.000 N 
ATOM     19  H   UNL     1       8.730   5.829  18.759  0.00  0.00    +0.000 HD
BRANCH  18  20
ATOM     20  O   UNL     1       8.733   7.882  19.121  0.00  0.00    +0.000 OA
ATOM     21  H   UNL     1       7.932   8.450  19.110  0.00  0.00    +0.000 HD
ENDBRANCH  18  20
ENDBRANCH  10  17
ENDBRANCH   7  15
ENDBRANCH   1   7
BRANCH   4  22
ATOM     22  O   UNL     1       1.855   7.738  20.468  0.00  0.00    +0.000 OA
BRANCH  22  23
ATOM     23  C   UNL     1       1.061   8.776  20.894  0.00  0.00    +0.000 A 
ATOM     24  C   UNL     1       0.745   8.757  22.258  0.00  0.00    +0.000 A 
ATOM     25  C   UNL     1      -0.054   9.757  22.834  0.00  0.00    +0.000 A 
ATOM     26  C   UNL     1      -0.547  10.812  22.058  0.00  0.00    +0.000 A 
ATOM     27  C   UNL     1      -0.217  10.838  20.696  0.00  0.00    +0.000 A 
ATOM     28  C   UNL     1       0.578   9.834  20.123  0.00  0.00    +0.000 A 
BRANCH  26  29
ATOM     29  C   UNL     1      -1.410  11.902  22.650  0.00  0.00    +0.000 C 
ATOM     30  F   UNL     1      -2.282  11.459  23.599  0.00  0.00    +0.000 F 
ATOM     31  F   UNL     1      -0.677  12.883  23.247  0.00  0.00    +0.000 F 
ATOM     32  F   UNL     1      -2.172  12.531  21.711  0.00  0.00    +0.000 F 
ENDBRANCH  26  29
ENDBRANCH  22  23
ENDBRANCH   4  22
TORSDOF 7
ENDMDL
MODEL 6
REMARK VINA RESULT:      -8.1      0.953      1.395
REMARK  Name = 
REMARK  7 active torsions:
REMARK  status: ('A' for Active; 'I' for Inactive)
REMARK    1  A    between atoms: C_2  and  C_5
REMARK    2  A    between atoms: N_3  and  O_4
REMARK    3  A    between atoms: C_10  and  S_11
REMARK    4  A    between atoms: S_11  and  N_14
REMARK    5  A    between atoms: C_17  and  O_18
REMARK    6  A    between atoms: O_18  and  C_19
REMARK    7  A    between atoms: C_22  and  C_23
REMARK                            x       y       z     vdW  Elec       q    Type
REMARK                         _______ _______ _______ _____ _____    ______ ____
ROOT
ATOM      1  N   UNL     1       2.529   7.730  18.989  0.00  0.00    +0.000 NA
ATOM      2  C   UNL     1       2.366   8.387  17.659  0.00  0.00    +0.000 C 
ATOM      3  C   UNL     1       2.003   9.864  17.782  0.00  0.00    +0.000 C 
ATOM      4  C   UNL     1       0.759  10.104  18.632  0.00  0.00    +0.000 C 
ATOM      5  C   UNL     1       0.948   9.437  19.992  0.00  0.00    +0.000 C 
ATOM      6  C   UNL     1       1.375   7.981  19.918  0.00  0.00    +0.000 C 
ENDROOT
BRANCH   1   7
ATOM      7  S   UNL     1       2.795   6.024  18.886  0.00  0.00    +0.000 S 
ATOM      8  O   UNL     1       1.901   5.516  17.875  0.00  0.00    +0.000 OA
ATOM      9  O   UNL     1       2.763   5.481  20.232  0.00  0.00    +0.000 OA
BRANCH   7  15
ATOM     10  C   UNL     1       5.072   4.531  18.211  0.00  0.00    +0.000 A 
ATOM     11  C   UNL     1       6.360   4.470  17.634  0.00  0.00    +0.000 A 
ATOM     12  C   UNL     1       7.017   5.613  17.169  0.00  0.00    +0.000 A 
ATOM     13  C   UNL     1       6.403   6.851  17.284  0.00  0.00    +0.000 A 
ATOM     14  C   UNL     1       5.134   6.939  17.856  0.00  0.00    +0.000 A 
ATOM     15  C   UNL     1       4.460   5.787  18.319  0.00  0.00    +0.000 A 
BRANCH  10  17
ATOM     16  O   UNL     1       4.980   2.739  19.735  0.00  0.00    +0.000 OA
ATOM     17  C   UNL     1       4.543   3.222  18.689  0.00  0.00    +0.000 C 
ATOM     18  N   UNL     1       3.619   2.540  17.942  0.00  0.00    +0.000 N 
ATOM     19  H   UNL     1       3.276   2.795  17.014  0.00  0.00    +0.000 HD
BRANCH  18  20
ATOM     20  O   UNL     1       3.199   1.294  18.457  0.00  0.00    +0.000 OA
ATOM     21  H   UNL     1       3.418   0.685  17.719  0.00  0.00    +0.000 HD
ENDBRANCH  18  20
ENDBRANCH  10  17
ENDBRANCH   7  15
ENDBRANCH   1   7
BRANCH   4  22
ATOM     22  O   UNL     1      -0.410   9.578  17.982  0.00  0.00    +0.000 OA
BRANCH  22  23
ATOM     23  C   UNL     1      -1.623  10.198  18.155  0.00  0.00    +0.000 A 
ATOM     24  C   UNL     1      -1.591  11.349  18.953  0.00  0.00    +0.000 A 
ATOM     25  C   UNL     1      -2.755  12.088  19.213  0.00  0.00    +0.000 A 
ATOM     26  C   UNL     1      -3.984  11.699  18.668  0.00  0.00    +0.000 A 
ATOM     27  C   UNL     1      -4.012  10.556  17.857  0.00  0.00    +0.000 A 
ATOM     28  C   UNL     1      -2.847   9.817  17.603  0.00  0.00    +0.000 A 
BRANCH  26  29
ATOM     29  C   UNL     1      -5.254  12.474  18.931  0.00  0.00    +0.000 C 
ATOM     30  F   UNL     1      -5.865  12.927  17.801  0.00  0.00    +0.000 F 
ATOM     31  F   UNL     1      -6.191  11.735  19.589  0.00  0.00    +0.000 F 
ATOM     32  F   UNL     1      -5.042  13.575  19.705  0.00  0.00    +0.000 F 
ENDBRANCH  26  29
ENDBRANCH  22  23
ENDBRANCH   4  22
TORSDOF 7
ENDMDL
MODEL 7
REMARK VINA RESULT:      -8.1      3.575      4.596
REMARK  Name = 
REMARK  7 active torsions:
REMARK  status: ('A' for Active; 'I' for Inactive)
REMARK    1  A    between atoms: C_2  and  C_5
REMARK    2  A    between atoms: N_3  and  O_4
REMARK    3  A    between atoms: C_10  and  S_11
REMARK    4  A    between atoms: S_11  and  N_14
REMARK    5  A    between atoms: C_17  and  O_18
REMARK    6  A    between atoms: O_18  and  C_19
REMARK    7  A    between atoms: C_22  and  C_23
REMARK                            x       y       z     vdW  Elec       q    Type
REMARK                         _______ _______ _______ _____ _____    ______ ____
ROOT
ATOM      1  N   UNL     1       2.051   7.389  18.699  0.00  0.00    +0.000 NA
ATOM      2  C   UNL     1       2.012   7.911  20.097  0.00  0.00    +0.000 C 
ATOM      3  C   UNL     1       0.781   8.773  20.360  0.00  0.00    +0.000 C 
ATOM      4  C   UNL     1       0.639   9.928  19.373  0.00  0.00    +0.000 C 
ATOM      5  C   UNL     1       0.666   9.376  17.951  0.00  0.00    +0.000 C 
ATOM      6  C   UNL     1       1.842   8.458  17.663  0.00  0.00    +0.000 C 
ENDROOT
BRANCH   1   7
ATOM      7  S   UNL     1       3.506   6.532  18.324  0.00  0.00    +0.000 S 
ATOM      8  O   UNL     1       4.348   6.597  19.493  0.00  0.00    +0.000 OA
ATOM      9  O   UNL     1       3.993   7.009  17.042  0.00  0.00    +0.000 OA
BRANCH   7  15
ATOM     10  C   UNL     1       3.983   3.830  17.745  0.00  0.00    +0.000 A 
ATOM     11  C   UNL     1       3.516   2.498  17.677  0.00  0.00    +0.000 A 
ATOM     12  C   UNL     1       2.179   2.171  17.923  0.00  0.00    +0.000 A 
ATOM     13  C   UNL     1       1.273   3.175  18.230  0.00  0.00    +0.000 A 
ATOM     14  C   UNL     1       1.709   4.498  18.297  0.00  0.00    +0.000 A 
ATOM     15  C   UNL     1       3.060   4.835  18.060  0.00  0.00    +0.000 A 
BRANCH  10  17
ATOM     16  O   UNL     1       5.781   3.974  16.231  0.00  0.00    +0.000 OA
ATOM     17  C   UNL     1       5.427   3.998  17.411  0.00  0.00    +0.000 C 
ATOM     18  N   UNL     1       6.353   4.125  18.413  0.00  0.00    +0.000 N 
ATOM     19  H   UNL     1       6.181   4.047  19.417  0.00  0.00    +0.000 HD
BRANCH  18  20
ATOM     20  O   UNL     1       7.700   4.248  18.004  0.00  0.00    +0.000 OA
ATOM     21  H   UNL     1       7.959   5.101  18.415  0.00  0.00    +0.000 HD
ENDBRANCH  18  20
ENDBRANCH  10  17
ENDBRANCH   7  15
ENDBRANCH   1   7
BRANCH   4  22
ATOM     22  O   UNL     1       1.697  10.883  19.554  0.00  0.00    +0.000 OA
BRANCH  22  23
ATOM     23  C   UNL     1       1.447  12.220  19.363  0.00  0.00    +0.000 A 
ATOM     24  C   UNL     1       2.454  12.920  18.685  0.00  0.00    +0.000 A 
ATOM     25  C   UNL     1       2.333  14.291  18.415  0.00  0.00    +0.000 A 
ATOM     26  C   UNL     1       1.190  14.998  18.807  0.00  0.00    +0.000 A 
ATOM     27  C   UNL     1       0.176  14.294  19.471  0.00  0.00    +0.000 A 
ATOM     28  C   UNL     1       0.304  12.923  19.744  0.00  0.00    +0.000 A 
BRANCH  26  29
ATOM     29  C   UNL     1       1.032  16.475  18.532  0.00  0.00    +0.000 C 
ATOM     30  F   UNL     1      -0.157  16.802  17.951  0.00  0.00    +0.000 F 
ATOM     31  F   UNL     1       1.113  17.230  19.664  0.00  0.00    +0.000 F 
ATOM     32  F   UNL     1       1.996  16.956  17.698  0.00  0.00    +0.000 F 
ENDBRANCH  26  29
ENDBRANCH  22  23
ENDBRANCH   4  22
TORSDOF 7
ENDMDL
MODEL 8
REMARK VINA RESULT:      -8.0      3.108      3.913
REMARK  Name = 
REMARK  7 active torsions:
REMARK  status: ('A' for Active; 'I' for Inactive)
REMARK    1  A    between atoms: C_2  and  C_5
REMARK    2  A    between atoms: N_3  and  O_4
REMARK    3  A    between atoms: C_10  and  S_11
REMARK    4  A    between atoms: S_11  and  N_14
REMARK    5  A    between atoms: C_17  and  O_18
REMARK    6  A    between atoms: O_18  and  C_19
REMARK    7  A    between atoms: C_22  and  C_23
REMARK                            x       y       z     vdW  Elec       q    Type
REMARK                         _______ _______ _______ _____ _____    ______ ____
ROOT
ATOM      1  N   UNL     1       3.895   6.096  18.376  0.00  0.00    +0.000 NA
ATOM      2  C   UNL     1       3.529   5.784  19.790  0.00  0.00    +0.000 C 
ATOM      3  C   UNL     1       2.029   5.906  20.041  0.00  0.00    +0.000 C 
ATOM      4  C   UNL     1       1.468   7.271  19.651  0.00  0.00    +0.000 C 
ATOM      5  C   UNL     1       1.839   7.567  18.200  0.00  0.00    +0.000 C 
ATOM      6  C   UNL     1       3.316   7.394  17.888  0.00  0.00    +0.000 C 
ENDROOT
BRANCH   1   7
ATOM      7  S   UNL     1       5.602   6.111  18.094  0.00  0.00    +0.000 S 
ATOM      8  O   UNL     1       6.223   5.460  19.222  0.00  0.00    +0.000 OA
ATOM      9  O   UNL     1       5.986   7.461  17.725  0.00  0.00    +0.000 OA
BRANCH   7  15
ATOM     10  C   UNL     1       5.178   3.963  16.342  0.00  0.00    +0.000 A 
ATOM     11  C   UNL     1       5.436   3.332  15.104  0.00  0.00    +0.000 A 
ATOM     12  C   UNL     1       6.373   3.839  14.198  0.00  0.00    +0.000 A 
ATOM     13  C   UNL     1       7.085   4.985  14.517  0.00  0.00    +0.000 A 
ATOM     14  C   UNL     1       6.854   5.622  15.736  0.00  0.00    +0.000 A 
ATOM     15  C   UNL     1       5.902   5.121  16.652  0.00  0.00    +0.000 A 
BRANCH  10  17
ATOM     16  O   UNL     1       3.000   3.225  16.846  0.00  0.00    +0.000 OA
ATOM     17  C   UNL     1       4.180   3.261  17.199  0.00  0.00    +0.000 C 
ATOM     18  N   UNL     1       4.567   2.711  18.393  0.00  0.00    +0.000 N 
ATOM     19  H   UNL     1       5.488   2.782  18.828  0.00  0.00    +0.000 HD
BRANCH  18  20
ATOM     20  O   UNL     1       3.547   2.095  19.153  0.00  0.00    +0.000 OA
ATOM     21  H   UNL     1       3.470   1.219  18.715  0.00  0.00    +0.000 HD
ENDBRANCH  18  20
ENDBRANCH  10  17
ENDBRANCH   7  15
ENDBRANCH   1   7
BRANCH   4  22
ATOM     22  O   UNL     1       1.984   8.298  20.513  0.00  0.00    +0.000 OA
BRANCH  22  23
ATOM     23  C   UNL     1       1.117   9.143  21.160  0.00  0.00    +0.000 A 
ATOM     24  C   UNL     1       0.708  10.256  20.414  0.00  0.00    +0.000 A 
ATOM     25  C   UNL     1      -0.181  11.203  20.945  0.00  0.00    +0.000 A 
ATOM     26  C   UNL     1      -0.696  11.052  22.238  0.00  0.00    +0.000 A 
ATOM     27  C   UNL     1      -0.298   9.930  22.979  0.00  0.00    +0.000 A 
ATOM     28  C   UNL     1       0.595   8.988  22.446  0.00  0.00    +0.000 A 
BRANCH  26  29
ATOM     29  C   UNL     1      -1.654  12.055  22.838  0.00  0.00    +0.000 C 
ATOM     30  F   UNL     1      -1.042  13.037  23.558  0.00  0.00    +0.000 F 
ATOM     31  F   UNL     1      -2.399  12.696  21.893  0.00  0.00    +0.000 F 
ATOM     32  F   UNL     1      -2.550  11.477  23.686  0.00  0.00    +0.000 F 
ENDBRANCH  26  29
ENDBRANCH  22  23
ENDBRANCH   4  22
TORSDOF 7
ENDMDL
MODEL 9
REMARK VINA RESULT:      -8.0      5.336      9.440
REMARK  Name = 
REMARK  7 active torsions:
REMARK  status: ('A' for Active; 'I' for Inactive)
REMARK    1  A    between atoms: C_2  and  C_5
REMARK    2  A    between atoms: N_3  and  O_4
REMARK    3  A    between atoms: C_10  and  S_11
REMARK    4  A    between atoms: S_11  and  N_14
REMARK    5  A    between atoms: C_17  and  O_18
REMARK    6  A    between atoms: O_18  and  C_19
REMARK    7  A    between atoms: C_22  and  C_23
REMARK                            x       y       z     vdW  Elec       q    Type
REMARK                         _______ _______ _______ _____ _____    ______ ____
ROOT
ATOM      1  N   UNL     1      -0.610  10.769  20.727  0.00  0.00    +0.000 NA
ATOM      2  C   UNL     1      -0.854   9.412  20.156  0.00  0.00    +0.000 C 
ATOM      3  C   UNL     1      -0.429   8.297  21.108  0.00  0.00    +0.000 C 
ATOM      4  C   UNL     1       1.025   8.416  21.554  0.00  0.00    +0.000 C 
ATOM      5  C   UNL     1       1.253   9.804  22.147  0.00  0.00    +0.000 C 
ATOM      6  C   UNL     1       0.784  10.944  21.260  0.00  0.00    +0.000 C 
ENDROOT
BRANCH   1   7
ATOM      7  S   UNL     1      -0.943  12.053  19.616  0.00  0.00    +0.000 S 
ATOM      8  O   UNL     1      -0.502  11.612  18.316  0.00  0.00    +0.000 OA
ATOM      9  O   UNL     1      -0.429  13.286  20.186  0.00  0.00    +0.000 OA
BRANCH   7  15
ATOM     10  C   UNL     1      -3.528  11.631  18.614  0.00  0.00    +0.000 A 
ATOM     11  C   UNL     1      -4.927  11.778  18.753  0.00  0.00    +0.000 A 
ATOM     12  C   UNL     1      -5.492  12.510  19.803  0.00  0.00    +0.000 A 
ATOM     13  C   UNL     1      -4.667  13.124  20.732  0.00  0.00    +0.000 A 
ATOM     14  C   UNL     1      -3.284  12.999  20.613  0.00  0.00    +0.000 A 
ATOM     15  C   UNL     1      -2.705  12.254  19.562  0.00  0.00    +0.000 A 
BRANCH  10  17
ATOM     16  O   UNL     1      -3.060   9.625  17.475  0.00  0.00    +0.000 OA
ATOM     17  C   UNL     1      -3.102  10.855  17.415  0.00  0.00    +0.000 C 
ATOM     18  N   UNL     1      -2.711  11.510  16.277  0.00  0.00    +0.000 N 
ATOM     19  H   UNL     1      -2.602  12.519  16.159  0.00  0.00    +0.000 HD
BRANCH  18  20
ATOM     20  O   UNL     1      -2.293  10.693  15.202  0.00  0.00    +0.000 OA
ATOM     21  H   UNL     1      -3.128  10.238  14.957  0.00  0.00    +0.000 HD
ENDBRANCH  18  20
ENDBRANCH  10  17
ENDBRANCH   7  15
ENDBRANCH   1   7
BRANCH   4  22
ATOM     22  O   UNL     1       1.915   8.199  20.448  0.00  0.00    +0.000 OA
BRANCH  22  23
ATOM     23  C   UNL     1       2.078   6.931  19.944  0.00  0.00    +0.000 A 
ATOM     24  C   UNL     1       2.576   6.873  18.637  0.00  0.00    +0.000 A 
ATOM     25  C   UNL     1       2.797   5.644  17.995  0.00  0.00    +0.000 A 
ATOM     26  C   UNL     1       2.538   4.437  18.655  0.00  0.00    +0.000 A 
ATOM     27  C   UNL     1       2.055   4.496  19.970  0.00  0.00    +0.000 A 
ATOM     28  C   UNL     1       1.830   5.727  20.606  0.00  0.00    +0.000 A 
BRANCH  26  29
ATOM     29  C   UNL     1       2.766   3.100  17.991  0.00  0.00    +0.000 C 
ATOM     30  F   UNL     1       4.081   2.785  17.825  0.00  0.00    +0.000 F 
ATOM     31  F   UNL     1       2.222   2.067  18.695  0.00  0.00    +0.000 F 
ATOM     32  F   UNL     1       2.209   3.033  16.748  0.00  0.00    +0.000 F 
ENDBRANCH  26  29
ENDBRANCH  22  23
ENDBRANCH   4  22
TORSDOF 7
ENDMDL
