MODEL 1
REMARK VINA RESULT:      -6.6      0.000      0.000
REMARK  Name = 
REMARK  4 active torsions:
REMARK  status: ('A' for Active; 'I' for Inactive)
REMARK    1  A    between atoms: C_1  and  C_2
REMARK    2  A    between atoms: C_2  and  N_3
REMARK    3  A    between atoms: N_5  and  C_6
REMARK    4  A    between atoms: C_15  and  C_16
REMARK                            x       y       z     vdW  Elec       q    Type
REMARK                         _______ _______ _______ _____ _____    ______ ____
ROOT
ATOM      1  N   UNL     1       2.712   4.488  18.070  0.00  0.00    +0.000 N 
ATOM      2  C   UNL     1       3.020   5.808  18.448  0.00  0.00    +0.000 A 
ATOM      3  N   UNL     1       2.076   6.499  19.177  0.00  0.00    +0.000 N 
ATOM      4  N   UNL     1       4.155   6.395  18.159  0.00  0.00    +0.000 NA
ATOM      5  C   UNL     1       5.087   5.646  17.443  0.00  0.00    +0.000 A 
ATOM      6  C   UNL     1       6.342   6.131  17.004  0.00  0.00    +0.000 A 
ATOM      7  C   UNL     1       7.029   5.156  16.303  0.00  0.00    +0.000 A 
ATOM      8  S   UNL     1       6.144   3.681  16.213  0.00  0.00    +0.000 S 
ATOM      9  C   UNL     1       4.858   4.350  17.091  0.00  0.00    +0.000 A 
ATOM     10  C   UNL     1       3.639   3.666  17.405  0.00  0.00    +0.000 A 
ATOM     11  O   UNL     1       3.407   2.497  17.109  0.00  0.00    +0.000 OA
ATOM     12  H   UNL     1       1.669   6.021  19.973  0.00  0.00    +0.000 HD
ENDROOT
BRANCH   3  13
ATOM     13  C   UNL     1       1.884   7.898  19.195  0.00  0.00    +0.000 A 
ATOM     14  C   UNL     1       2.066   8.701  18.065  0.00  0.00    +0.000 A 
ATOM     15  C   UNL     1       1.761  10.054  18.140  0.00  0.00    +0.000 A 
ATOM     16  N   UNL     1       1.305  10.664  19.255  0.00  0.00    +0.000 NA
ATOM     17  C   UNL     1       1.169   9.885  20.350  0.00  0.00    +0.000 A 
ATOM     18  C   UNL     1       1.441   8.526  20.363  0.00  0.00    +0.000 A 
ATOM     19  F   UNL     1       1.272   7.812  21.487  0.00  0.00    +0.000 F 
ENDBRANCH   3  13
BRANCH   1  21
ATOM     20  C   UNL     1       1.103   3.241  19.510  0.00  0.00    +0.000 C 
ATOM     21  C   UNL     1       1.358   3.943  18.186  0.00  0.00    +0.000 C 
ENDBRANCH   1  21
BRANCH   6  22
ATOM     22  C   UNL     1       6.863   7.446  17.221  0.00  0.00    +0.000 C 
ATOM     23  N   UNL     1       7.297   8.514  17.358  0.00  0.00    +0.000 NA
ENDBRANCH   6  22
TORSDOF 3
ENDMDL
MODEL 2
REMARK VINA RESULT:      -6.4      3.060      5.618
REMARK  Name = 
REMARK  4 active torsions:
REMARK  status: ('A' for Active; 'I' for Inactive)
REMARK    1  A    between atoms: C_1  and  C_2
REMARK    2  A    between atoms: C_2  and  N_3
REMARK    3  A    between atoms: N_5  and  C_6
REMARK    4  A    between atoms: C_15  and  C_16
REMARK                            x       y       z     vdW  Elec       q    Type
REMARK                         _______ _______ _______ _____ _____    ______ ____
ROOT
ATOM      1  N   UNL     1       3.325   3.223  19.137  0.00  0.00    +0.000 N 
ATOM      2  C   UNL     1       3.773   3.989  18.045  0.00  0.00    +0.000 A 
ATOM      3  N   UNL     1       4.515   3.346  17.077  0.00  0.00    +0.000 N 
ATOM      4  N   UNL     1       3.506   5.263  17.900  0.00  0.00    +0.000 NA
ATOM      5  C   UNL     1       2.732   5.862  18.893  0.00  0.00    +0.000 A 
ATOM      6  C   UNL     1       2.387   7.234  18.925  0.00  0.00    +0.000 A 
ATOM      7  C   UNL     1       1.630   7.524  20.046  0.00  0.00    +0.000 A 
ATOM      8  S   UNL     1       1.346   6.127  21.013  0.00  0.00    +0.000 S 
ATOM      9  C   UNL     1       2.236   5.156  19.947  0.00  0.00    +0.000 A 
ATOM     10  C   UNL     1       2.488   3.758  20.132  0.00  0.00    +0.000 A 
ATOM     11  O   UNL     1       2.048   3.094  21.067  0.00  0.00    +0.000 OA
ATOM     12  H   UNL     1       4.151   2.467  16.727  0.00  0.00    +0.000 HD
ENDROOT
BRANCH   3  13
ATOM     13  C   UNL     1       5.496   3.926  16.243  0.00  0.00    +0.000 A 
ATOM     14  C   UNL     1       5.329   4.063  14.862  0.00  0.00    +0.000 A 
ATOM     15  C   UNL     1       6.298   4.735  14.126  0.00  0.00    +0.000 A 
ATOM     16  N   UNL     1       7.420   5.261  14.661  0.00  0.00    +0.000 NA
ATOM     17  C   UNL     1       7.588   5.089  15.990  0.00  0.00    +0.000 A 
ATOM     18  C   UNL     1       6.669   4.442  16.801  0.00  0.00    +0.000 A 
ATOM     19  F   UNL     1       6.898   4.318  18.118  0.00  0.00    +0.000 F 
ENDBRANCH   3  13
BRANCH   1  21
ATOM     20  C   UNL     1       4.946   1.850  20.444  0.00  0.00    +0.000 C 
ATOM     21  C   UNL     1       3.838   1.877  19.404  0.00  0.00    +0.000 C 
ENDBRANCH   1  21
BRANCH   6  22
ATOM     22  C   UNL     1       2.759   8.222  17.960  0.00  0.00    +0.000 C 
ATOM     23  N   UNL     1       3.024   9.020  17.159  0.00  0.00    +0.000 NA
ENDBRANCH   6  22
TORSDOF 3
ENDMDL
MODEL 3
REMARK VINA RESULT:      -6.1      6.667      9.195
REMARK  Name = 
REMARK  4 active torsions:
REMARK  status: ('A' for Active; 'I' for Inactive)
REMARK    1  A    between atoms: C_1  and  C_2
REMARK    2  A    between atoms: C_2  and  N_3
REMARK    3  A    between atoms: N_5  and  C_6
REMARK    4  A    between atoms: C_15  and  C_16
REMARK                            x       y       z     vdW  Elec       q    Type
REMARK                         _______ _______ _______ _____ _____    ______ ____
ROOT
ATOM      1  N   UNL     1      -0.796  11.082  19.533  0.00  0.00    +0.000 N 
ATOM      2  C   UNL     1      -1.822  11.916  20.016  0.00  0.00    +0.000 A 
ATOM      3  N   UNL     1      -1.614  12.551  21.222  0.00  0.00    +0.000 N 
ATOM      4  N   UNL     1      -2.943  12.127  19.371  0.00  0.00    +0.000 NA
ATOM      5  C   UNL     1      -3.095  11.483  18.144  0.00  0.00    +0.000 A 
ATOM      6  C   UNL     1      -4.254  11.557  17.336  0.00  0.00    +0.000 A 
ATOM      7  C   UNL     1      -4.106  10.792  16.192  0.00  0.00    +0.000 A 
ATOM      8  S   UNL     1      -2.565  10.025  16.124  0.00  0.00    +0.000 S 
ATOM      9  C   UNL     1      -2.115  10.701  17.611  0.00  0.00    +0.000 A 
ATOM     10  C   UNL     1      -0.868  10.461  18.274  0.00  0.00    +0.000 A 
ATOM     11  O   UNL     1       0.037   9.769  17.815  0.00  0.00    +0.000 OA
ATOM     12  H   UNL     1      -0.727  13.026  21.344  0.00  0.00    +0.000 HD
ENDROOT
BRANCH   3  13
ATOM     13  C   UNL     1      -2.604  12.950  22.146  0.00  0.00    +0.000 A 
ATOM     14  C   UNL     1      -3.388  14.093  21.967  0.00  0.00    +0.000 A 
ATOM     15  C   UNL     1      -4.409  14.362  22.870  0.00  0.00    +0.000 A 
ATOM     16  N   UNL     1      -4.692  13.589  23.941  0.00  0.00    +0.000 NA
ATOM     17  C   UNL     1      -3.902  12.508  24.124  0.00  0.00    +0.000 A 
ATOM     18  C   UNL     1      -2.870  12.159  23.267  0.00  0.00    +0.000 A 
ATOM     19  F   UNL     1      -2.133  11.064  23.508  0.00  0.00    +0.000 F 
ENDBRANCH   3  13
BRANCH   1  21
ATOM     20  C   UNL     1       0.020   9.455  21.237  0.00  0.00    +0.000 C 
ATOM     21  C   UNL     1       0.329  10.669  20.375  0.00  0.00    +0.000 C 
ENDBRANCH   1  21
BRANCH   6  22
ATOM     22  C   UNL     1      -5.443  12.297  17.629  0.00  0.00    +0.000 C 
ATOM     23  N   UNL     1      -6.418  12.868  17.896  0.00  0.00    +0.000 NA
ENDBRANCH   6  22
TORSDOF 3
ENDMDL
MODEL 4
REMARK VINA RESULT:      -6.0      7.874     10.589
REMARK  Name = 
REMARK  4 active torsions:
REMARK  status: ('A' for Active; 'I' for Inactive)
REMARK    1  A    between atoms: C_1  and  C_2
REMARK    2  A    between atoms: C_2  and  N_3
REMARK    3  A    between atoms: N_5  and  C_6
REMARK    4  A    between atoms: C_15  and  C_16
REMARK                            x       y       z     vdW  Elec       q    Type
REMARK                         _______ _______ _______ _____ _____    ______ ____
ROOT
ATOM      1  N   UNL     1      -4.416  11.686  18.484  0.00  0.00    +0.000 N 
ATOM      2  C   UNL     1      -3.441  12.257  19.324  0.00  0.00    +0.000 A 
ATOM      3  N   UNL     1      -2.165  12.389  18.820  0.00  0.00    +0.000 N 
ATOM      4  N   UNL     1      -3.693  12.678  20.539  0.00  0.00    +0.000 NA
ATOM      5  C   UNL     1      -5.003  12.545  20.993  0.00  0.00    +0.000 A 
ATOM      6  C   UNL     1      -5.445  12.901  22.289  0.00  0.00    +0.000 A 
ATOM      7  C   UNL     1      -6.794  12.631  22.441  0.00  0.00    +0.000 A 
ATOM      8  S   UNL     1      -7.486  11.973  21.008  0.00  0.00    +0.000 S 
ATOM      9  C   UNL     1      -5.994  12.041  20.205  0.00  0.00    +0.000 A 
ATOM     10  C   UNL     1      -5.766  11.588  18.866  0.00  0.00    +0.000 A 
ATOM     11  O   UNL     1      -6.639  11.137  18.130  0.00  0.00    +0.000 OA
ATOM     12  H   UNL     1      -2.075  12.797  17.897  0.00  0.00    +0.000 HD
ENDROOT
BRANCH   3  13
ATOM     13  C   UNL     1      -0.962  12.390  19.561  0.00  0.00    +0.000 A 
ATOM     14  C   UNL     1      -0.297  13.566  19.920  0.00  0.00    +0.000 A 
ATOM     15  C   UNL     1       0.826  13.487  20.734  0.00  0.00    +0.000 A 
ATOM     16  N   UNL     1       1.339  12.329  21.200  0.00  0.00    +0.000 NA
ATOM     17  C   UNL     1       0.710  11.197  20.815  0.00  0.00    +0.000 A 
ATOM     18  C   UNL     1      -0.421  11.184  20.014  0.00  0.00    +0.000 A 
ATOM     19  F   UNL     1      -1.000  10.020  19.680  0.00  0.00    +0.000 F 
ENDBRANCH   3  13
BRANCH   1  21
ATOM     20  C   UNL     1      -3.439   9.634  17.458  0.00  0.00    +0.000 C 
ATOM     21  C   UNL     1      -4.064  11.002  17.238  0.00  0.00    +0.000 C 
ENDBRANCH   1  21
BRANCH   6  22
ATOM     22  C   UNL     1      -4.639  13.454  23.334  0.00  0.00    +0.000 C 
ATOM     23  N   UNL     1      -3.967  13.927  24.154  0.00  0.00    +0.000 NA
ENDBRANCH   6  22
TORSDOF 3
ENDMDL
MODEL 5
REMARK VINA RESULT:      -5.9      8.104     10.735
REMARK  Name = 
REMARK  4 active torsions:
REMARK  status: ('A' for Active; 'I' for Inactive)
REMARK    1  A    between atoms: C_1  and  C_2
REMARK    2  A    between atoms: C_2  and  N_3
REMARK    3  A    between atoms: N_5  and  C_6
REMARK    4  A    between atoms: C_15  and  C_16
REMARK                            x       y       z     vdW  Elec       q    Type
REMARK                         _______ _______ _______ _____ _____    ______ ____
ROOT
ATOM      1  N   UNL     1      -4.363  11.711  18.488  0.00  0.00    +0.000 N 
ATOM      2  C   UNL     1      -3.434  12.319  19.354  0.00  0.00    +0.000 A 
ATOM      3  N   UNL     1      -2.147  12.489  18.889  0.00  0.00    +0.000 N 
ATOM      4  N   UNL     1      -3.737  12.740  20.557  0.00  0.00    +0.000 NA
ATOM      5  C   UNL     1      -5.056  12.568  20.971  0.00  0.00    +0.000 A 
ATOM      6  C   UNL     1      -5.550  12.918  22.250  0.00  0.00    +0.000 A 
ATOM      7  C   UNL     1      -6.892  12.606  22.362  0.00  0.00    +0.000 A 
ATOM      8  S   UNL     1      -7.518  11.916  20.913  0.00  0.00    +0.000 S 
ATOM      9  C   UNL     1      -6.005  12.027  20.157  0.00  0.00    +0.000 A 
ATOM     10  C   UNL     1      -5.720  11.572  18.829  0.00  0.00    +0.000 A 
ATOM     11  O   UNL     1      -6.555  11.089  18.069  0.00  0.00    +0.000 OA
ATOM     12  H   UNL     1      -2.042  12.893  17.966  0.00  0.00    +0.000 HD
ENDROOT
BRANCH   3  13
ATOM     13  C   UNL     1      -0.969  12.534  19.667  0.00  0.00    +0.000 A 
ATOM     14  C   UNL     1      -0.385  11.391  20.219  0.00  0.00    +0.000 A 
ATOM     15  C   UNL     1       0.828  11.506  20.888  0.00  0.00    +0.000 A 
ATOM     16  N   UNL     1       1.487  12.672  21.058  0.00  0.00    +0.000 NA
ATOM     17  C   UNL     1       0.893  13.775  20.553  0.00  0.00    +0.000 A 
ATOM     18  C   UNL     1      -0.310  13.750  19.863  0.00  0.00    +0.000 A 
ATOM     19  F   UNL     1      -0.836  14.886  19.380  0.00  0.00    +0.000 F 
ENDBRANCH   3  13
BRANCH   1  21
ATOM     20  C   UNL     1      -3.316   9.671  17.508  0.00  0.00    +0.000 C 
ATOM     21  C   UNL     1      -3.950  11.031  17.259  0.00  0.00    +0.000 C 
ENDBRANCH   1  21
BRANCH   6  22
ATOM     22  C   UNL     1      -4.795  13.504  23.315  0.00  0.00    +0.000 C 
ATOM     23  N   UNL     1      -4.187  13.944  24.201  0.00  0.00    +0.000 NA
ENDBRANCH   6  22
TORSDOF 3
ENDMDL
MODEL 6
REMARK VINA RESULT:      -5.8      7.310     10.618
REMARK  Name = 
REMARK  4 active torsions:
REMARK  status: ('A' for Active; 'I' for Inactive)
REMARK    1  A    between atoms: C_1  and  C_2
REMARK    2  A    between atoms: C_2  and  N_3
REMARK    3  A    between atoms: N_5  and  C_6
REMARK    4  A    between atoms: C_15  and  C_16
REMARK                            x       y       z     vdW  Elec       q    Type
REMARK                         _______ _______ _______ _____ _____    ______ ____
ROOT
ATOM      1  N   UNL     1      -4.882  12.197  19.616  0.00  0.00    +0.000 N 
ATOM      2  C   UNL     1      -3.512  12.501  19.726  0.00  0.00    +0.000 A 
ATOM      3  N   UNL     1      -2.735  12.359  18.595  0.00  0.00    +0.000 N 
ATOM      4  N   UNL     1      -2.953  12.925  20.832  0.00  0.00    +0.000 NA
ATOM      5  C   UNL     1      -3.785  13.077  21.940  0.00  0.00    +0.000 A 
ATOM      6  C   UNL     1      -3.348  13.478  23.225  0.00  0.00    +0.000 A 
ATOM      7  C   UNL     1      -4.407  13.515  24.115  0.00  0.00    +0.000 A 
ATOM      8  S   UNL     1      -5.896  13.082  23.366  0.00  0.00    +0.000 S 
ATOM      9  C   UNL     1      -5.125  12.839  21.876  0.00  0.00    +0.000 A 
ATOM     10  C   UNL     1      -5.778  12.394  20.681  0.00  0.00    +0.000 A 
ATOM     11  O   UNL     1      -6.984  12.179  20.591  0.00  0.00    +0.000 OA
ATOM     12  H   UNL     1      -3.090  12.768  17.739  0.00  0.00    +0.000 HD
ENDROOT
BRANCH   3  13
ATOM     13  C   UNL     1      -1.355  12.061  18.554  0.00  0.00    +0.000 A 
ATOM     14  C   UNL     1      -0.369  13.052  18.526  0.00  0.00    +0.000 A 
ATOM     15  C   UNL     1       0.968  12.678  18.587  0.00  0.00    +0.000 A 
ATOM     16  N   UNL     1       1.390  11.397  18.655  0.00  0.00    +0.000 NA
ATOM     17  C   UNL     1       0.429  10.448  18.642  0.00  0.00    +0.000 A 
ATOM     18  C   UNL     1      -0.927  10.731  18.595  0.00  0.00    +0.000 A 
ATOM     19  F   UNL     1      -1.827   9.736  18.596  0.00  0.00    +0.000 F 
ENDBRANCH   3  13
BRANCH   1  21
ATOM     20  C   UNL     1      -5.956  12.433  17.379  0.00  0.00    +0.000 C 
ATOM     21  C   UNL     1      -5.430  11.496  18.454  0.00  0.00    +0.000 C 
ENDBRANCH   1  21
BRANCH   6  22
ATOM     22  C   UNL     1      -2.004  13.796  23.599  0.00  0.00    +0.000 C 
ATOM     23  N   UNL     1      -0.901  14.041  23.865  0.00  0.00    +0.000 NA
ENDBRANCH   6  22
TORSDOF 3
ENDMDL
MODEL 7
REMARK VINA RESULT:      -5.8      6.845      9.365
REMARK  Name = 
REMARK  4 active torsions:
REMARK  status: ('A' for Active; 'I' for Inactive)
REMARK    1  A    between atoms: C_1  and  C_2
REMARK    2  A    between atoms: C_2  and  N_3
REMARK    3  A    between atoms: N_5  and  C_6
REMARK    4  A    between atoms: C_15  and  C_16
REMARK                            x       y       z     vdW  Elec       q    Type
REMARK                         _______ _______ _______ _____ _____    ______ ____
ROOT
ATOM      1  N   UNL     1      -0.831  11.097  19.551  0.00  0.00    +0.000 N 
ATOM      2  C   UNL     1      -1.862  11.929  20.028  0.00  0.00    +0.000 A 
ATOM      3  N   UNL     1      -1.662  12.562  21.236  0.00  0.00    +0.000 N 
ATOM      4  N   UNL     1      -2.979  12.138  19.376  0.00  0.00    +0.000 NA
ATOM      5  C   UNL     1      -3.122  11.495  18.148  0.00  0.00    +0.000 A 
ATOM      6  C   UNL     1      -4.277  11.567  17.332  0.00  0.00    +0.000 A 
ATOM      7  C   UNL     1      -4.120  10.804  16.189  0.00  0.00    +0.000 A 
ATOM      8  S   UNL     1      -2.577  10.039  16.130  0.00  0.00    +0.000 S 
ATOM      9  C   UNL     1      -2.137  10.715  17.621  0.00  0.00    +0.000 A 
ATOM     10  C   UNL     1      -0.895  10.476  18.291  0.00  0.00    +0.000 A 
ATOM     11  O   UNL     1       0.014   9.786  17.837  0.00  0.00    +0.000 OA
ATOM     12  H   UNL     1      -0.777  13.039  21.364  0.00  0.00    +0.000 HD
ENDROOT
BRANCH   3  13
ATOM     13  C   UNL     1      -2.659  12.959  22.154  0.00  0.00    +0.000 A 
ATOM     14  C   UNL     1      -3.040  12.169  23.243  0.00  0.00    +0.000 A 
ATOM     15  C   UNL     1      -3.957  12.674  24.157  0.00  0.00    +0.000 A 
ATOM     16  N   UNL     1      -4.529  13.893  24.056  0.00  0.00    +0.000 NA
ATOM     17  C   UNL     1      -4.181  14.630  22.979  0.00  0.00    +0.000 A 
ATOM     18  C   UNL     1      -3.268  14.210  22.025  0.00  0.00    +0.000 A 
ATOM     19  F   UNL     1      -2.963  15.002  20.986  0.00  0.00    +0.000 F 
ENDBRANCH   3  13
BRANCH   1  21
ATOM     20  C   UNL     1      -0.021   9.465  21.254  0.00  0.00    +0.000 C 
ATOM     21  C   UNL     1       0.289  10.684  20.400  0.00  0.00    +0.000 C 
ENDBRANCH   1  21
BRANCH   6  22
ATOM     22  C   UNL     1      -5.469  12.305  17.619  0.00  0.00    +0.000 C 
ATOM     23  N   UNL     1      -6.441  12.910  17.811  0.00  0.00    +0.000 NA
ENDBRANCH   6  22
TORSDOF 3
ENDMDL
MODEL 8
REMARK VINA RESULT:      -5.7      7.769     10.365
REMARK  Name = 
REMARK  4 active torsions:
REMARK  status: ('A' for Active; 'I' for Inactive)
REMARK    1  A    between atoms: C_1  and  C_2
REMARK    2  A    between atoms: C_2  and  N_3
REMARK    3  A    between atoms: N_5  and  C_6
REMARK    4  A    between atoms: C_15  and  C_16
REMARK                            x       y       z     vdW  Elec       q    Type
REMARK                         _______ _______ _______ _____ _____    ______ ____
ROOT
ATOM      1  N   UNL     1      -3.233  11.710  17.764  0.00  0.00    +0.000 N 
ATOM      2  C   UNL     1      -2.935  11.868  19.131  0.00  0.00    +0.000 A 
ATOM      3  N   UNL     1      -1.612  11.783  19.508  0.00  0.00    +0.000 N 
ATOM      4  N   UNL     1      -3.843  12.107  20.044  0.00  0.00    +0.000 NA
ATOM      5  C   UNL     1      -5.163  12.210  19.609  0.00  0.00    +0.000 A 
ATOM      6  C   UNL     1      -6.276  12.417  20.458  0.00  0.00    +0.000 A 
ATOM      7  C   UNL     1      -7.451  12.452  19.729  0.00  0.00    +0.000 A 
ATOM      8  S   UNL     1      -7.171  12.253  18.041  0.00  0.00    +0.000 S 
ATOM      9  C   UNL     1      -5.500  12.110  18.293  0.00  0.00    +0.000 A 
ATOM     10  C   UNL     1      -4.536  11.869  17.261  0.00  0.00    +0.000 A 
ATOM     11  O   UNL     1      -4.809  11.782  16.067  0.00  0.00    +0.000 OA
ATOM     12  H   UNL     1      -0.944  12.320  18.967  0.00  0.00    +0.000 HD
ENDROOT
BRANCH   3  13
ATOM     13  C   UNL     1      -1.119  11.361  20.763  0.00  0.00    +0.000 A 
ATOM     14  C   UNL     1      -1.449  12.004  21.959  0.00  0.00    +0.000 A 
ATOM     15  C   UNL     1      -1.004  11.468  23.161  0.00  0.00    +0.000 A 
ATOM     16  N   UNL     1      -0.246  10.355  23.255  0.00  0.00    +0.000 NA
ATOM     17  C   UNL     1       0.098   9.765  22.090  0.00  0.00    +0.000 A 
ATOM     18  C   UNL     1      -0.310  10.225  20.848  0.00  0.00    +0.000 A 
ATOM     19  F   UNL     1       0.063   9.580  19.732  0.00  0.00    +0.000 F 
ENDBRANCH   3  13
BRANCH   1  21
ATOM     20  C   UNL     1      -2.163   9.685  16.778  0.00  0.00    +0.000 C 
ATOM     21  C   UNL     1      -2.247  11.203  16.808  0.00  0.00    +0.000 C 
ENDBRANCH   1  21
BRANCH   6  22
ATOM     22  C   UNL     1      -6.238  12.560  21.881  0.00  0.00    +0.000 C 
ATOM     23  N   UNL     1      -6.176  12.704  23.032  0.00  0.00    +0.000 NA
ENDBRANCH   6  22
TORSDOF 3
ENDMDL
MODEL 9
REMARK VINA RESULT:      -5.7      7.366     10.610
REMARK  Name = 
REMARK  4 active torsions:
REMARK  status: ('A' for Active; 'I' for Inactive)
REMARK    1  A    between atoms: C_1  and  C_2
REMARK    2  A    between atoms: C_2  and  N_3
REMARK    3  A    between atoms: N_5  and  C_6
REMARK    4  A    between atoms: C_15  and  C_16
REMARK                            x       y       z     vdW  Elec       q    Type
REMARK                         _______ _______ _______ _____ _____    ______ ____
ROOT
ATOM      1  N   UNL     1      -4.596  12.137  19.518  0.00  0.00    +0.000 N 
ATOM      2  C   UNL     1      -3.249  12.505  19.695  0.00  0.00    +0.000 A 
ATOM      3  N   UNL     1      -2.400  12.352  18.619  0.00  0.00    +0.000 N 
ATOM      4  N   UNL     1      -2.776  12.995  20.814  0.00  0.00    +0.000 NA
ATOM      5  C   UNL     1      -3.678  13.154  21.864  0.00  0.00    +0.000 A 
ATOM      6  C   UNL     1      -3.336  13.622  23.155  0.00  0.00    +0.000 A 
ATOM      7  C   UNL     1      -4.447  13.648  23.979  0.00  0.00    +0.000 A 
ATOM      8  S   UNL     1      -5.870  13.123  23.162  0.00  0.00    +0.000 S 
ATOM      9  C   UNL     1      -5.001  12.856  21.731  0.00  0.00    +0.000 A 
ATOM     10  C   UNL     1      -5.562  12.337  20.520  0.00  0.00    +0.000 A 
ATOM     11  O   UNL     1      -6.751  12.067  20.368  0.00  0.00    +0.000 OA
ATOM     12  H   UNL     1      -2.719  12.713  17.727  0.00  0.00    +0.000 HD
ENDROOT
BRANCH   3  13
ATOM     13  C   UNL     1      -1.009  12.113  18.670  0.00  0.00    +0.000 A 
ATOM     14  C   UNL     1      -0.467  10.830  18.790  0.00  0.00    +0.000 A 
ATOM     15  C   UNL     1       0.912  10.669  18.732  0.00  0.00    +0.000 A 
ATOM     16  N   UNL     1       1.783  11.689  18.582  0.00  0.00    +0.000 NA
ATOM     17  C   UNL     1       1.249  12.928  18.507  0.00  0.00    +0.000 A 
ATOM     18  C   UNL     1      -0.114  13.178  18.544  0.00  0.00    +0.000 A 
ATOM     19  F   UNL     1      -0.573  14.435  18.452  0.00  0.00    +0.000 F 
ENDBRANCH   3  13
BRANCH   1  21
ATOM     20  C   UNL     1      -5.538  12.241  17.211  0.00  0.00    +0.000 C 
ATOM     21  C   UNL     1      -5.045  11.369  18.355  0.00  0.00    +0.000 C 
ENDBRANCH   1  21
BRANCH   6  22
ATOM     22  C   UNL     1      -2.032  14.012  23.593  0.00  0.00    +0.000 C 
ATOM     23  N   UNL     1      -0.980  14.309  23.985  0.00  0.00    +0.000 NA
ENDBRANCH   6  22
TORSDOF 3
ENDMDL
