MODEL 1
REMARK VINA RESULT:      -5.4      0.000      0.000
REMARK  Name = 
REMARK  18 active torsions:
REMARK  status: ('A' for Active; 'I' for Inactive)
REMARK    1  A    between atoms: C_1  and  C_2
REMARK    2  A    between atoms: C_2  and  C_3
REMARK    3  A    between atoms: C_3  and  C_4
REMARK    4  A    between atoms: C_4  and  C_5
REMARK    5  A    between atoms: C_5  and  C_6
REMARK    6  A    between atoms: C_6  and  C_7
REMARK    7  A    between atoms: C_7  and  C_8
REMARK    8  A    between atoms: C_8  and  C_9
REMARK    9  A    between atoms: C_9  and  C_10
REMARK   10  A    between atoms: C_10  and  C_11
REMARK   11  A    between atoms: C_11  and  C_12
REMARK   12  A    between atoms: C_12  and  C_13
REMARK   13  A    between atoms: C_13  and  C_14
REMARK   14  A    between atoms: C_14  and  C_16
REMARK   15  A    between atoms: C_16  and  C_17
REMARK   16  A    between atoms: C_17  and  C_18
REMARK   17  A    between atoms: C_18  and  C_19
REMARK   18  A    between atoms: C_19  and  O_21
REMARK                            x       y       z     vdW  Elec       q    Type
REMARK                         _______ _______ _______ _____ _____    ______ ____
ROOT
ATOM      1  C   UNL     1       4.393   5.817  18.690  0.00  0.00    +0.000 C 
ENDROOT
BRANCH   1   2
ATOM      2  C   UNL     1       5.612   6.461  18.070  0.00  0.00    +0.000 C 
BRANCH   2   3
ATOM      3  C   UNL     1       6.840   5.578  18.241  0.00  0.00    +0.000 C 
BRANCH   3   4
ATOM      4  C   UNL     1       7.253   5.016  16.912  0.00  0.00    +0.000 C 
ATOM      5  O   UNL     1       8.089   4.111  16.826  0.00  0.00    +0.000 OA
BRANCH   4   6
ATOM      6  C   UNL     1       6.633   5.586  15.651  0.00  0.00    +0.000 C 
BRANCH   6   7
ATOM      7  C   UNL     1       7.013   4.754  14.428  0.00  0.00    +0.000 C 
BRANCH   7   8
ATOM      8  C   UNL     1       5.883   3.814  14.015  0.00  0.00    +0.000 C 
BRANCH   8   9
ATOM      9  C   UNL     1       5.914   3.526  12.545  0.00  0.00    +0.000 C 
ATOM     10  O   UNL     1       6.979   3.376  11.960  0.00  0.00    +0.000 OA
BRANCH   9  11
ATOM     11  O   UNL     1       4.736   3.331  11.918  0.00  0.00    +0.000 OA
ATOM     12  H   UNL     1       3.929   3.700  12.341  0.00  0.00    +0.000 HD
ENDBRANCH   9  11
ENDBRANCH   8   9
ENDBRANCH   7   8
ENDBRANCH   6   7
ENDBRANCH   4   6
ENDBRANCH   3   4
ENDBRANCH   2   3
ENDBRANCH   1   2
BRANCH   1  13
ATOM     13  C   UNL     1       3.307   5.639  17.643  0.00  0.00    +0.000 C 
BRANCH  13  14
ATOM     14  C   UNL     1       3.528   4.342  16.887  0.00  0.00    +0.000 C 
BRANCH  14  15
ATOM     15  C   UNL     1       3.819   3.219  17.864  0.00  0.00    +0.000 C 
BRANCH  15  16
ATOM     16  C   UNL     1       2.881   2.056  17.603  0.00  0.00    +0.000 C 
BRANCH  16  17
ATOM     17  C   UNL     1       2.143   1.694  18.878  0.00  0.00    +0.000 C 
BRANCH  17  18
ATOM     18  C   UNL     1       0.761   2.318  18.866  0.00  0.00    +0.000 C 
BRANCH  18  19
ATOM     19  C   UNL     1       0.667   3.379  19.948  0.00  0.00    +0.000 C 
BRANCH  19  20
ATOM     20  C   UNL     1       1.731   3.132  21.005  0.00  0.00    +0.000 C 
BRANCH  20  22
ATOM     21  C   UNL     1       1.613   5.605  20.799  0.00  0.00    +0.000 C 
ATOM     22  C   UNL     1       2.379   4.446  21.406  0.00  0.00    +0.000 C 
ENDBRANCH  20  22
ENDBRANCH  19  20
ENDBRANCH  18  19
ENDBRANCH  17  18
ENDBRANCH  16  17
ENDBRANCH  15  16
ENDBRANCH  14  15
ENDBRANCH  13  14
ENDBRANCH   1  13
TORSDOF 17
ENDMDL
MODEL 2
REMARK VINA RESULT:      -5.1      3.819      7.510
REMARK  Name = 
REMARK  18 active torsions:
REMARK  status: ('A' for Active; 'I' for Inactive)
REMARK    1  A    between atoms: C_1  and  C_2
REMARK    2  A    between atoms: C_2  and  C_3
REMARK    3  A    between atoms: C_3  and  C_4
REMARK    4  A    between atoms: C_4  and  C_5
REMARK    5  A    between atoms: C_5  and  C_6
REMARK    6  A    between atoms: C_6  and  C_7
REMARK    7  A    between atoms: C_7  and  C_8
REMARK    8  A    between atoms: C_8  and  C_9
REMARK    9  A    between atoms: C_9  and  C_10
REMARK   10  A    between atoms: C_10  and  C_11
REMARK   11  A    between atoms: C_11  and  C_12
REMARK   12  A    between atoms: C_12  and  C_13
REMARK   13  A    between atoms: C_13  and  C_14
REMARK   14  A    between atoms: C_14  and  C_16
REMARK   15  A    between atoms: C_16  and  C_17
REMARK   16  A    between atoms: C_17  and  C_18
REMARK   17  A    between atoms: C_18  and  C_19
REMARK   18  A    between atoms: C_19  and  O_21
REMARK                            x       y       z     vdW  Elec       q    Type
REMARK                         _______ _______ _______ _____ _____    ______ ____
ROOT
ATOM      1  C   UNL     1       4.106   5.913  18.706  0.00  0.00    +0.000 C 
ENDROOT
BRANCH   1   2
ATOM      2  C   UNL     1       2.600   6.028  18.644  0.00  0.00    +0.000 C 
BRANCH   2   3
ATOM      3  C   UNL     1       2.007   6.161  20.039  0.00  0.00    +0.000 C 
BRANCH   3   4
ATOM      4  C   UNL     1       1.827   4.801  20.648  0.00  0.00    +0.000 C 
ATOM      5  O   UNL     1       2.456   4.456  21.654  0.00  0.00    +0.000 OA
BRANCH   4   6
ATOM      6  C   UNL     1       0.858   3.830  20.001  0.00  0.00    +0.000 C 
BRANCH   6   7
ATOM      7  C   UNL     1       1.439   2.418  19.963  0.00  0.00    +0.000 C 
BRANCH   7   8
ATOM      8  C   UNL     1       2.128   2.129  18.632  0.00  0.00    +0.000 C 
BRANCH   8   9
ATOM      9  C   UNL     1       3.595   1.883  18.812  0.00  0.00    +0.000 C 
ATOM     10  O   UNL     1       4.174   2.265  19.820  0.00  0.00    +0.000 OA
BRANCH   9  11
ATOM     11  O   UNL     1       4.226   1.138  17.881  0.00  0.00    +0.000 OA
ATOM     12  H   UNL     1       5.066   0.698  18.145  0.00  0.00    +0.000 HD
ENDBRANCH   9  11
ENDBRANCH   8   9
ENDBRANCH   7   8
ENDBRANCH   6   7
ENDBRANCH   4   6
ENDBRANCH   3   4
ENDBRANCH   2   3
ENDBRANCH   1   2
BRANCH   1  13
ATOM     13  C   UNL     1       4.616   5.102  17.527  0.00  0.00    +0.000 C 
BRANCH  13  14
ATOM     14  C   UNL     1       6.038   4.643  17.793  0.00  0.00    +0.000 C 
BRANCH  14  15
ATOM     15  C   UNL     1       7.017   5.565  17.092  0.00  0.00    +0.000 C 
BRANCH  15  16
ATOM     16  C   UNL     1       7.720   6.439  18.113  0.00  0.00    +0.000 C 
BRANCH  16  17
ATOM     17  C   UNL     1       7.773   7.871  17.613  0.00  0.00    +0.000 C 
BRANCH  17  18
ATOM     18  C   UNL     1       8.557   8.727  18.590  0.00  0.00    +0.000 C 
BRANCH  18  19
ATOM     19  C   UNL     1       8.718  10.128  18.028  0.00  0.00    +0.000 C 
BRANCH  19  20
ATOM     20  C   UNL     1       9.684  10.922  18.893  0.00  0.00    +0.000 C 
BRANCH  20  22
ATOM     21  C   UNL     1       8.830  12.966  17.769  0.00  0.00    +0.000 C 
ATOM     22  C   UNL     1      10.075  12.209  18.187  0.00  0.00    +0.000 C 
ENDBRANCH  20  22
ENDBRANCH  19  20
ENDBRANCH  18  19
ENDBRANCH  17  18
ENDBRANCH  16  17
ENDBRANCH  15  16
ENDBRANCH  14  15
ENDBRANCH  13  14
ENDBRANCH   1  13
TORSDOF 17
ENDMDL
MODEL 3
REMARK VINA RESULT:      -5.1      2.936      4.672
REMARK  Name = 
REMARK  18 active torsions:
REMARK  status: ('A' for Active; 'I' for Inactive)
REMARK    1  A    between atoms: C_1  and  C_2
REMARK    2  A    between atoms: C_2  and  C_3
REMARK    3  A    between atoms: C_3  and  C_4
REMARK    4  A    between atoms: C_4  and  C_5
REMARK    5  A    between atoms: C_5  and  C_6
REMARK    6  A    between atoms: C_6  and  C_7
REMARK    7  A    between atoms: C_7  and  C_8
REMARK    8  A    between atoms: C_8  and  C_9
REMARK    9  A    between atoms: C_9  and  C_10
REMARK   10  A    between atoms: C_10  and  C_11
REMARK   11  A    between atoms: C_11  and  C_12
REMARK   12  A    between atoms: C_12  and  C_13
REMARK   13  A    between atoms: C_13  and  C_14
REMARK   14  A    between atoms: C_14  and  C_16
REMARK   15  A    between atoms: C_16  and  C_17
REMARK   16  A    between atoms: C_17  and  C_18
REMARK   17  A    between atoms: C_18  and  C_19
REMARK   18  A    between atoms: C_19  and  O_21
REMARK                            x       y       z     vdW  Elec       q    Type
REMARK                         _______ _______ _______ _____ _____    ______ ____
ROOT
ATOM      1  C   UNL     1       5.118   4.557  19.111  0.00  0.00    +0.000 C 
ENDROOT
BRANCH   1   2
ATOM      2  C   UNL     1       6.448   5.276  19.161  0.00  0.00    +0.000 C 
BRANCH   2   3
ATOM      3  C   UNL     1       7.288   4.949  17.935  0.00  0.00    +0.000 C 
BRANCH   3   4
ATOM      4  C   UNL     1       7.285   6.115  16.990  0.00  0.00    +0.000 C 
ATOM      5  O   UNL     1       7.565   5.978  15.795  0.00  0.00    +0.000 OA
BRANCH   4   6
ATOM      6  C   UNL     1       6.941   7.492  17.525  0.00  0.00    +0.000 C 
BRANCH   6   7
ATOM      7  C   UNL     1       8.182   8.196  18.068  0.00  0.00    +0.000 C 
BRANCH   7   8
ATOM      8  C   UNL     1       8.123   9.702  17.827  0.00  0.00    +0.000 C 
BRANCH   8   9
ATOM      9  C   UNL     1       9.207  10.423  18.570  0.00  0.00    +0.000 C 
ATOM     10  O   UNL     1       9.323  10.300  19.782  0.00  0.00    +0.000 OA
BRANCH   9  11
ATOM     11  O   UNL     1      10.110  11.118  17.847  0.00  0.00    +0.000 OA
ATOM     12  H   UNL     1      10.771  11.654  18.340  0.00  0.00    +0.000 HD
ENDBRANCH   9  11
ENDBRANCH   8   9
ENDBRANCH   7   8
ENDBRANCH   6   7
ENDBRANCH   4   6
ENDBRANCH   3   4
ENDBRANCH   2   3
ENDBRANCH   1   2
BRANCH   1  13
ATOM     13  C   UNL     1       4.917   3.928  17.743  0.00  0.00    +0.000 C 
BRANCH  13  14
ATOM     14  C   UNL     1       3.475   4.104  17.302  0.00  0.00    +0.000 C 
BRANCH  14  15
ATOM     15  C   UNL     1       2.846   2.748  17.042  0.00  0.00    +0.000 C 
BRANCH  15  16
ATOM     16  C   UNL     1       2.860   1.925  18.316  0.00  0.00    +0.000 C 
BRANCH  16  17
ATOM     17  C   UNL     1       1.572   2.150  19.087  0.00  0.00    +0.000 C 
BRANCH  17  18
ATOM     18  C   UNL     1       1.880   2.330  20.561  0.00  0.00    +0.000 C 
BRANCH  18  19
ATOM     19  C   UNL     1       1.200   3.585  21.077  0.00  0.00    +0.000 C 
BRANCH  19  20
ATOM     20  C   UNL     1       1.350   4.706  20.062  0.00  0.00    +0.000 C 
BRANCH  20  22
ATOM     21  C   UNL     1       2.273   6.978  19.665  0.00  0.00    +0.000 C 
ATOM     22  C   UNL     1       2.077   5.883  20.692  0.00  0.00    +0.000 C 
ENDBRANCH  20  22
ENDBRANCH  19  20
ENDBRANCH  18  19
ENDBRANCH  17  18
ENDBRANCH  16  17
ENDBRANCH  15  16
ENDBRANCH  14  15
ENDBRANCH  13  14
ENDBRANCH   1  13
TORSDOF 17
ENDMDL
MODEL 4
REMARK VINA RESULT:      -5.1      1.346      2.573
REMARK  Name = 
REMARK  18 active torsions:
REMARK  status: ('A' for Active; 'I' for Inactive)
REMARK    1  A    between atoms: C_1  and  C_2
REMARK    2  A    between atoms: C_2  and  C_3
REMARK    3  A    between atoms: C_3  and  C_4
REMARK    4  A    between atoms: C_4  and  C_5
REMARK    5  A    between atoms: C_5  and  C_6
REMARK    6  A    between atoms: C_6  and  C_7
REMARK    7  A    between atoms: C_7  and  C_8
REMARK    8  A    between atoms: C_8  and  C_9
REMARK    9  A    between atoms: C_9  and  C_10
REMARK   10  A    between atoms: C_10  and  C_11
REMARK   11  A    between atoms: C_11  and  C_12
REMARK   12  A    between atoms: C_12  and  C_13
REMARK   13  A    between atoms: C_13  and  C_14
REMARK   14  A    between atoms: C_14  and  C_16
REMARK   15  A    between atoms: C_16  and  C_17
REMARK   16  A    between atoms: C_17  and  C_18
REMARK   17  A    between atoms: C_18  and  C_19
REMARK   18  A    between atoms: C_19  and  O_21
REMARK                            x       y       z     vdW  Elec       q    Type
REMARK                         _______ _______ _______ _____ _____    ______ ____
ROOT
ATOM      1  C   UNL     1       3.875   4.098  17.386  0.00  0.00    +0.000 C 
ENDROOT
BRANCH   1   2
ATOM      2  C   UNL     1       5.172   4.690  17.890  0.00  0.00    +0.000 C 
BRANCH   2   3
ATOM      3  C   UNL     1       5.420   6.059  17.274  0.00  0.00    +0.000 C 
BRANCH   3   4
ATOM      4  C   UNL     1       6.763   6.080  16.604  0.00  0.00    +0.000 C 
ATOM      5  O   UNL     1       7.589   6.966  16.842  0.00  0.00    +0.000 OA
BRANCH   4   6
ATOM      6  C   UNL     1       7.101   4.990  15.604  0.00  0.00    +0.000 C 
BRANCH   6   7
ATOM      7  C   UNL     1       6.083   4.954  14.466  0.00  0.00    +0.000 C 
BRANCH   7   8
ATOM      8  C   UNL     1       5.823   3.527  13.990  0.00  0.00    +0.000 C 
BRANCH   8   9
ATOM      9  C   UNL     1       5.838   3.433  12.495  0.00  0.00    +0.000 C 
ATOM     10  O   UNL     1       6.885   3.239  11.891  0.00  0.00    +0.000 OA
BRANCH   9  11
ATOM     11  O   UNL     1       4.653   3.461  11.851  0.00  0.00    +0.000 OA
ATOM     12  H   UNL     1       3.926   3.983  12.259  0.00  0.00    +0.000 HD
ENDBRANCH   9  11
ENDBRANCH   8   9
ENDBRANCH   7   8
ENDBRANCH   6   7
ENDBRANCH   4   6
ENDBRANCH   3   4
ENDBRANCH   2   3
ENDBRANCH   1   2
BRANCH   1  13
ATOM     13  C   UNL     1       4.014   2.593  17.232  0.00  0.00    +0.000 C 
BRANCH  13  14
ATOM     14  C   UNL     1       3.133   1.887  18.247  0.00  0.00    +0.000 C 
BRANCH  14  15
ATOM     15  C   UNL     1       1.842   2.661  18.434  0.00  0.00    +0.000 C 
BRANCH  15  16
ATOM     16  C   UNL     1       1.444   2.647  19.898  0.00  0.00    +0.000 C 
BRANCH  16  17
ATOM     17  C   UNL     1       0.880   4.000  20.290  0.00  0.00    +0.000 C 
BRANCH  17  18
ATOM     18  C   UNL     1       2.015   4.963  20.583  0.00  0.00    +0.000 C 
BRANCH  18  19
ATOM     19  C   UNL     1       1.484   6.385  20.615  0.00  0.00    +0.000 C 
BRANCH  19  20
ATOM     20  C   UNL     1       2.413   7.299  19.832  0.00  0.00    +0.000 C 
BRANCH  20  22
ATOM     21  C   UNL     1       2.520   8.482  17.650  0.00  0.00    +0.000 C 
ATOM     22  C   UNL     1       2.104   7.203  18.347  0.00  0.00    +0.000 C 
ENDBRANCH  20  22
ENDBRANCH  19  20
ENDBRANCH  18  19
ENDBRANCH  17  18
ENDBRANCH  16  17
ENDBRANCH  15  16
ENDBRANCH  14  15
ENDBRANCH  13  14
ENDBRANCH   1  13
TORSDOF 17
ENDMDL
MODEL 5
REMARK VINA RESULT:      -5.1      2.769      7.113
REMARK  Name = 
REMARK  18 active torsions:
REMARK  status: ('A' for Active; 'I' for Inactive)
REMARK    1  A    between atoms: C_1  and  C_2
REMARK    2  A    between atoms: C_2  and  C_3
REMARK    3  A    between atoms: C_3  and  C_4
REMARK    4  A    between atoms: C_4  and  C_5
REMARK    5  A    between atoms: C_5  and  C_6
REMARK    6  A    between atoms: C_6  and  C_7
REMARK    7  A    between atoms: C_7  and  C_8
REMARK    8  A    between atoms: C_8  and  C_9
REMARK    9  A    between atoms: C_9  and  C_10
REMARK   10  A    between atoms: C_10  and  C_11
REMARK   11  A    between atoms: C_11  and  C_12
REMARK   12  A    between atoms: C_12  and  C_13
REMARK   13  A    between atoms: C_13  and  C_14
REMARK   14  A    between atoms: C_14  and  C_16
REMARK   15  A    between atoms: C_16  and  C_17
REMARK   16  A    between atoms: C_17  and  C_18
REMARK   17  A    between atoms: C_18  and  C_19
REMARK   18  A    between atoms: C_19  and  O_21
REMARK                            x       y       z     vdW  Elec       q    Type
REMARK                         _______ _______ _______ _____ _____    ______ ____
ROOT
ATOM      1  C   UNL     1       3.729   6.696  18.373  0.00  0.00    +0.000 C 
ENDROOT
BRANCH   1   2
ATOM      2  C   UNL     1       2.333   6.137  18.536  0.00  0.00    +0.000 C 
BRANCH   2   3
ATOM      3  C   UNL     1       2.177   5.453  19.887  0.00  0.00    +0.000 C 
BRANCH   3   4
ATOM      4  C   UNL     1       1.411   4.173  19.724  0.00  0.00    +0.000 C 
ATOM      5  O   UNL     1       0.804   3.659  20.669  0.00  0.00    +0.000 OA
BRANCH   4   6
ATOM      6  C   UNL     1       1.397   3.495  18.367  0.00  0.00    +0.000 C 
BRANCH   6   7
ATOM      7  C   UNL     1       2.424   2.367  18.306  0.00  0.00    +0.000 C 
BRANCH   7   8
ATOM      8  C   UNL     1       3.809   2.888  17.932  0.00  0.00    +0.000 C 
BRANCH   8   9
ATOM      9  C   UNL     1       4.753   2.832  19.094  0.00  0.00    +0.000 C 
ATOM     10  O   UNL     1       5.330   3.841  19.480  0.00  0.00    +0.000 OA
BRANCH   9  11
ATOM     11  O   UNL     1       4.860   1.665  19.762  0.00  0.00    +0.000 OA
ATOM     12  H   UNL     1       4.180   1.469  20.445  0.00  0.00    +0.000 HD
ENDBRANCH   9  11
ENDBRANCH   8   9
ENDBRANCH   7   8
ENDBRANCH   6   7
ENDBRANCH   4   6
ENDBRANCH   3   4
ENDBRANCH   2   3
ENDBRANCH   1   2
BRANCH   1  13
ATOM     13  C   UNL     1       4.265   6.362  16.991  0.00  0.00    +0.000 C 
BRANCH  13  14
ATOM     14  C   UNL     1       5.777   6.231  17.044  0.00  0.00    +0.000 C 
BRANCH  14  15
ATOM     15  C   UNL     1       6.302   5.782  15.693  0.00  0.00    +0.000 C 
BRANCH  15  16
ATOM     16  C   UNL     1       6.464   4.274  15.681  0.00  0.00    +0.000 C 
BRANCH  16  17
ATOM     17  C   UNL     1       6.065   3.725  14.324  0.00  0.00    +0.000 C 
BRANCH  17  18
ATOM     18  C   UNL     1       6.638   4.603  13.227  0.00  0.00    +0.000 C 
BRANCH  18  19
ATOM     19  C   UNL     1       7.066   3.741  12.053  0.00  0.00    +0.000 C 
BRANCH  19  20
ATOM     20  C   UNL     1       6.173   2.514  11.963  0.00  0.00    +0.000 C 
BRANCH  20  22
ATOM     21  C   UNL     1       6.109   0.155  11.187  0.00  0.00    +0.000 C 
ATOM     22  C   UNL     1       6.781   1.501  11.007  0.00  0.00    +0.000 C 
ENDBRANCH  20  22
ENDBRANCH  19  20
ENDBRANCH  18  19
ENDBRANCH  17  18
ENDBRANCH  16  17
ENDBRANCH  15  16
ENDBRANCH  14  15
ENDBRANCH  13  14
ENDBRANCH   1  13
TORSDOF 17
ENDMDL
MODEL 6
REMARK VINA RESULT:      -5.0      2.962      7.207
REMARK  Name = 
REMARK  18 active torsions:
REMARK  status: ('A' for Active; 'I' for Inactive)
REMARK    1  A    between atoms: C_1  and  C_2
REMARK    2  A    between atoms: C_2  and  C_3
REMARK    3  A    between atoms: C_3  and  C_4
REMARK    4  A    between atoms: C_4  and  C_5
REMARK    5  A    between atoms: C_5  and  C_6
REMARK    6  A    between atoms: C_6  and  C_7
REMARK    7  A    between atoms: C_7  and  C_8
REMARK    8  A    between atoms: C_8  and  C_9
REMARK    9  A    between atoms: C_9  and  C_10
REMARK   10  A    between atoms: C_10  and  C_11
REMARK   11  A    between atoms: C_11  and  C_12
REMARK   12  A    between atoms: C_12  and  C_13
REMARK   13  A    between atoms: C_13  and  C_14
REMARK   14  A    between atoms: C_14  and  C_16
REMARK   15  A    between atoms: C_16  and  C_17
REMARK   16  A    between atoms: C_17  and  C_18
REMARK   17  A    between atoms: C_18  and  C_19
REMARK   18  A    between atoms: C_19  and  O_21
REMARK                            x       y       z     vdW  Elec       q    Type
REMARK                         _______ _______ _______ _____ _____    ______ ____
ROOT
ATOM      1  C   UNL     1       2.718   4.805  17.615  0.00  0.00    +0.000 C 
ENDROOT
BRANCH   1   2
ATOM      2  C   UNL     1       3.319   3.632  16.873  0.00  0.00    +0.000 C 
BRANCH   2   3
ATOM      3  C   UNL     1       2.532   2.358  17.142  0.00  0.00    +0.000 C 
BRANCH   3   4
ATOM      4  C   UNL     1       2.591   2.022  18.604  0.00  0.00    +0.000 C 
ATOM      5  O   UNL     1       3.666   1.800  19.172  0.00  0.00    +0.000 OA
BRANCH   4   6
ATOM      6  C   UNL     1       1.298   1.943  19.391  0.00  0.00    +0.000 C 
BRANCH   6   7
ATOM      7  C   UNL     1       0.785   3.337  19.747  0.00  0.00    +0.000 C 
BRANCH   7   8
ATOM      8  C   UNL     1       1.530   3.920  20.944  0.00  0.00    +0.000 C 
BRANCH   8   9
ATOM      9  C   UNL     1       1.886   2.861  21.942  0.00  0.00    +0.000 C 
ATOM     10  O   UNL     1       1.022   2.340  22.636  0.00  0.00    +0.000 OA
BRANCH   9  11
ATOM     11  O   UNL     1       3.163   2.428  21.972  0.00  0.00    +0.000 OA
ATOM     12  H   UNL     1       3.693   2.518  21.148  0.00  0.00    +0.000 HD
ENDBRANCH   9  11
ENDBRANCH   8   9
ENDBRANCH   7   8
ENDBRANCH   6   7
ENDBRANCH   4   6
ENDBRANCH   3   4
ENDBRANCH   2   3
ENDBRANCH   1   2
BRANCH   1  13
ATOM     13  C   UNL     1       3.770   5.880  17.830  0.00  0.00    +0.000 C 
BRANCH  13  14
ATOM     14  C   UNL     1       4.314   5.794  19.244  0.00  0.00    +0.000 C 
BRANCH  14  15
ATOM     15  C   UNL     1       5.492   4.839  19.285  0.00  0.00    +0.000 C 
BRANCH  15  16
ATOM     16  C   UNL     1       6.790   5.624  19.260  0.00  0.00    +0.000 C 
BRANCH  16  17
ATOM     17  C   UNL     1       7.766   4.973  18.298  0.00  0.00    +0.000 C 
BRANCH  17  18
ATOM     18  C   UNL     1       7.012   4.388  17.119  0.00  0.00    +0.000 C 
BRANCH  18  19
ATOM     19  C   UNL     1       7.209   5.268  15.897  0.00  0.00    +0.000 C 
BRANCH  19  20
ATOM     20  C   UNL     1       6.102   5.007  14.890  0.00  0.00    +0.000 C 
BRANCH  20  22
ATOM     21  C   UNL     1       5.992   3.507  12.913  0.00  0.00    +0.000 C 
ATOM     22  C   UNL     1       6.702   4.695  13.529  0.00  0.00    +0.000 C 
ENDBRANCH  20  22
ENDBRANCH  19  20
ENDBRANCH  18  19
ENDBRANCH  17  18
ENDBRANCH  16  17
ENDBRANCH  15  16
ENDBRANCH  14  15
ENDBRANCH  13  14
ENDBRANCH   1  13
TORSDOF 17
ENDMDL
MODEL 7
REMARK VINA RESULT:      -5.0      1.537      3.069
REMARK  Name = 
REMARK  18 active torsions:
REMARK  status: ('A' for Active; 'I' for Inactive)
REMARK    1  A    between atoms: C_1  and  C_2
REMARK    2  A    between atoms: C_2  and  C_3
REMARK    3  A    between atoms: C_3  and  C_4
REMARK    4  A    between atoms: C_4  and  C_5
REMARK    5  A    between atoms: C_5  and  C_6
REMARK    6  A    between atoms: C_6  and  C_7
REMARK    7  A    between atoms: C_7  and  C_8
REMARK    8  A    between atoms: C_8  and  C_9
REMARK    9  A    between atoms: C_9  and  C_10
REMARK   10  A    between atoms: C_10  and  C_11
REMARK   11  A    between atoms: C_11  and  C_12
REMARK   12  A    between atoms: C_12  and  C_13
REMARK   13  A    between atoms: C_13  and  C_14
REMARK   14  A    between atoms: C_14  and  C_16
REMARK   15  A    between atoms: C_16  and  C_17
REMARK   16  A    between atoms: C_17  and  C_18
REMARK   17  A    between atoms: C_18  and  C_19
REMARK   18  A    between atoms: C_19  and  O_21
REMARK                            x       y       z     vdW  Elec       q    Type
REMARK                         _______ _______ _______ _____ _____    ______ ____
ROOT
ATOM      1  C   UNL     1       3.767   2.779  17.813  0.00  0.00    +0.000 C 
ENDROOT
BRANCH   1   2
ATOM      2  C   UNL     1       4.758   3.921  17.790  0.00  0.00    +0.000 C 
BRANCH   2   3
ATOM      3  C   UNL     1       4.434   4.899  16.670  0.00  0.00    +0.000 C 
BRANCH   3   4
ATOM      4  C   UNL     1       5.704   5.380  16.031  0.00  0.00    +0.000 C 
ATOM      5  O   UNL     1       5.980   6.583  15.970  0.00  0.00    +0.000 OA
BRANCH   4   6
ATOM      6  C   UNL     1       6.660   4.362  15.440  0.00  0.00    +0.000 C 
BRANCH   6   7
ATOM      7  C   UNL     1       6.700   4.466  13.917  0.00  0.00    +0.000 C 
BRANCH   7   8
ATOM      8  C   UNL     1       5.376   4.037  13.290  0.00  0.00    +0.000 C 
BRANCH   8   9
ATOM      9  C   UNL     1       5.588   3.101  12.139  0.00  0.00    +0.000 C 
ATOM     10  O   UNL     1       4.673   2.837  11.370  0.00  0.00    +0.000 OA
BRANCH   9  11
ATOM     11  O   UNL     1       6.840   2.649  11.919  0.00  0.00    +0.000 OA
ATOM     12  H   UNL     1       7.525   3.311  11.671  0.00  0.00    +0.000 HD
ENDBRANCH   9  11
ENDBRANCH   8   9
ENDBRANCH   7   8
ENDBRANCH   6   7
ENDBRANCH   4   6
ENDBRANCH   3   4
ENDBRANCH   2   3
ENDBRANCH   1   2
BRANCH   1  13
ATOM     13  C   UNL     1       2.438   3.231  17.233  0.00  0.00    +0.000 C 
BRANCH  13  14
ATOM     14  C   UNL     1       1.335   3.033  18.258  0.00  0.00    +0.000 C 
BRANCH  14  15
ATOM     15  C   UNL     1       1.907   2.405  19.515  0.00  0.00    +0.000 C 
BRANCH  15  16
ATOM     16  C   UNL     1       2.148   3.477  20.560  0.00  0.00    +0.000 C 
BRANCH  16  17
ATOM     17  C   UNL     1       1.334   4.713  20.225  0.00  0.00    +0.000 C 
BRANCH  17  18
ATOM     18  C   UNL     1       1.880   5.908  20.983  0.00  0.00    +0.000 C 
BRANCH  18  19
ATOM     19  C   UNL     1       1.898   7.126  20.076  0.00  0.00    +0.000 C 
BRANCH  19  20
ATOM     20  C   UNL     1       2.314   6.716  18.673  0.00  0.00    +0.000 C 
BRANCH  20  22
ATOM     21  C   UNL     1       1.982   9.021  17.807  0.00  0.00    +0.000 C 
ATOM     22  C   UNL     1       2.975   7.888  17.966  0.00  0.00    +0.000 C 
ENDBRANCH  20  22
ENDBRANCH  19  20
ENDBRANCH  18  19
ENDBRANCH  17  18
ENDBRANCH  16  17
ENDBRANCH  15  16
ENDBRANCH  14  15
ENDBRANCH  13  14
ENDBRANCH   1  13
TORSDOF 17
ENDMDL
MODEL 8
REMARK VINA RESULT:      -5.0      3.382      7.480
REMARK  Name = 
REMARK  18 active torsions:
REMARK  status: ('A' for Active; 'I' for Inactive)
REMARK    1  A    between atoms: C_1  and  C_2
REMARK    2  A    between atoms: C_2  and  C_3
REMARK    3  A    between atoms: C_3  and  C_4
REMARK    4  A    between atoms: C_4  and  C_5
REMARK    5  A    between atoms: C_5  and  C_6
REMARK    6  A    between atoms: C_6  and  C_7
REMARK    7  A    between atoms: C_7  and  C_8
REMARK    8  A    between atoms: C_8  and  C_9
REMARK    9  A    between atoms: C_9  and  C_10
REMARK   10  A    between atoms: C_10  and  C_11
REMARK   11  A    between atoms: C_11  and  C_12
REMARK   12  A    between atoms: C_12  and  C_13
REMARK   13  A    between atoms: C_13  and  C_14
REMARK   14  A    between atoms: C_14  and  C_16
REMARK   15  A    between atoms: C_16  and  C_17
REMARK   16  A    between atoms: C_17  and  C_18
REMARK   17  A    between atoms: C_18  and  C_19
REMARK   18  A    between atoms: C_19  and  O_21
REMARK                            x       y       z     vdW  Elec       q    Type
REMARK                         _______ _______ _______ _____ _____    ______ ____
ROOT
ATOM      1  C   UNL     1       4.668   4.486  18.406  0.00  0.00    +0.000 C 
ENDROOT
BRANCH   1   2
ATOM      2  C   UNL     1       3.318   4.716  17.764  0.00  0.00    +0.000 C 
BRANCH   2   3
ATOM      3  C   UNL     1       2.760   6.079  18.146  0.00  0.00    +0.000 C 
BRANCH   3   4
ATOM      4  C   UNL     1       2.087   5.997  19.485  0.00  0.00    +0.000 C 
ATOM      5  O   UNL     1       2.199   6.901  20.319  0.00  0.00    +0.000 OA
BRANCH   4   6
ATOM      6  C   UNL     1       1.262   4.769  19.817  0.00  0.00    +0.000 C 
BRANCH   6   7
ATOM      7  C   UNL     1       1.892   3.977  20.961  0.00  0.00    +0.000 C 
BRANCH   7   8
ATOM      8  C   UNL     1       1.584   2.486  20.848  0.00  0.00    +0.000 C 
BRANCH   8   9
ATOM      9  C   UNL     1       1.356   2.076  19.425  0.00  0.00    +0.000 C 
ATOM     10  O   UNL     1       0.268   2.250  18.890  0.00  0.00    +0.000 OA
BRANCH   9  11
ATOM     11  O   UNL     1       2.413   1.614  18.726  0.00  0.00    +0.000 OA
ATOM     12  H   UNL     1       2.233   0.985  17.992  0.00  0.00    +0.000 HD
ENDBRANCH   9  11
ENDBRANCH   8   9
ENDBRANCH   7   8
ENDBRANCH   6   7
ENDBRANCH   4   6
ENDBRANCH   3   4
ENDBRANCH   2   3
ENDBRANCH   1   2
BRANCH   1  13
ATOM     13  C   UNL     1       5.728   4.288  17.336  0.00  0.00    +0.000 C 
BRANCH  13  14
ATOM     14  C   UNL     1       5.162   4.658  15.976  0.00  0.00    +0.000 C 
BRANCH  14  15
ATOM     15  C   UNL     1       6.264   5.213  15.094  0.00  0.00    +0.000 C 
BRANCH  15  16
ATOM     16  C   UNL     1       6.615   4.205  14.016  0.00  0.00    +0.000 C 
BRANCH  16  17
ATOM     17  C   UNL     1       5.361   3.803  13.262  0.00  0.00    +0.000 C 
BRANCH  17  18
ATOM     18  C   UNL     1       5.738   3.221  11.913  0.00  0.00    +0.000 C 
BRANCH  18  19
ATOM     19  C   UNL     1       4.507   2.632  11.247  0.00  0.00    +0.000 C 
BRANCH  19  20
ATOM     20  C   UNL     1       3.503   3.735  10.955  0.00  0.00    +0.000 C 
BRANCH  20  22
ATOM     21  C   UNL     1       2.275   4.933   9.158  0.00  0.00    +0.000 C 
ATOM     22  C   UNL     1       3.163   3.746   9.473  0.00  0.00    +0.000 C 
ENDBRANCH  20  22
ENDBRANCH  19  20
ENDBRANCH  18  19
ENDBRANCH  17  18
ENDBRANCH  16  17
ENDBRANCH  15  16
ENDBRANCH  14  15
ENDBRANCH  13  14
ENDBRANCH   1  13
TORSDOF 17
ENDMDL
MODEL 9
REMARK VINA RESULT:      -5.0      2.261      4.212
REMARK  Name = 
REMARK  18 active torsions:
REMARK  status: ('A' for Active; 'I' for Inactive)
REMARK    1  A    between atoms: C_1  and  C_2
REMARK    2  A    between atoms: C_2  and  C_3
REMARK    3  A    between atoms: C_3  and  C_4
REMARK    4  A    between atoms: C_4  and  C_5
REMARK    5  A    between atoms: C_5  and  C_6
REMARK    6  A    between atoms: C_6  and  C_7
REMARK    7  A    between atoms: C_7  and  C_8
REMARK    8  A    between atoms: C_8  and  C_9
REMARK    9  A    between atoms: C_9  and  C_10
REMARK   10  A    between atoms: C_10  and  C_11
REMARK   11  A    between atoms: C_11  and  C_12
REMARK   12  A    between atoms: C_12  and  C_13
REMARK   13  A    between atoms: C_13  and  C_14
REMARK   14  A    between atoms: C_14  and  C_16
REMARK   15  A    between atoms: C_16  and  C_17
REMARK   16  A    between atoms: C_17  and  C_18
REMARK   17  A    between atoms: C_18  and  C_19
REMARK   18  A    between atoms: C_19  and  O_21
REMARK                            x       y       z     vdW  Elec       q    Type
REMARK                         _______ _______ _______ _____ _____    ______ ____
ROOT
ATOM      1  C   UNL     1       3.385   6.240  19.414  0.00  0.00    +0.000 C 
ENDROOT
BRANCH   1   2
ATOM      2  C   UNL     1       3.184   6.380  17.922  0.00  0.00    +0.000 C 
BRANCH   2   3
ATOM      3  C   UNL     1       4.272   7.247  17.305  0.00  0.00    +0.000 C 
BRANCH   3   4
ATOM      4  C   UNL     1       4.925   6.514  16.170  0.00  0.00    +0.000 C 
ATOM      5  O   UNL     1       5.082   7.043  15.065  0.00  0.00    +0.000 OA
BRANCH   4   6
ATOM      6  C   UNL     1       5.390   5.087  16.390  0.00  0.00    +0.000 C 
BRANCH   6   7
ATOM      7  C   UNL     1       6.915   5.000  16.383  0.00  0.00    +0.000 C 
BRANCH   7   8
ATOM      8  C   UNL     1       7.459   4.565  17.741  0.00  0.00    +0.000 C 
BRANCH   8   9
ATOM      9  C   UNL     1       7.410   5.683  18.738  0.00  0.00    +0.000 C 
ATOM     10  O   UNL     1       7.058   5.477  19.892  0.00  0.00    +0.000 OA
BRANCH   9  11
ATOM     11  O   UNL     1       7.868   6.892  18.351  0.00  0.00    +0.000 OA
ATOM     12  H   UNL     1       7.525   7.258  17.504  0.00  0.00    +0.000 HD
ENDBRANCH   9  11
ENDBRANCH   8   9
ENDBRANCH   7   8
ENDBRANCH   6   7
ENDBRANCH   4   6
ENDBRANCH   3   4
ENDBRANCH   2   3
ENDBRANCH   1   2
BRANCH   1  13
ATOM     13  C   UNL     1       2.056   6.383  20.135  0.00  0.00    +0.000 C 
BRANCH  13  14
ATOM     14  C   UNL     1       1.686   5.069  20.799  0.00  0.00    +0.000 C 
BRANCH  14  15
ATOM     15  C   UNL     1       0.898   4.207  19.831  0.00  0.00    +0.000 C 
BRANCH  15  16
ATOM     16  C   UNL     1       1.083   2.743  20.180  0.00  0.00    +0.000 C 
BRANCH  16  17
ATOM     17  C   UNL     1       1.335   1.941  18.917  0.00  0.00    +0.000 C 
BRANCH  17  18
ATOM     18  C   UNL     1       2.183   2.752  17.955  0.00  0.00    +0.000 C 
BRANCH  18  19
ATOM     19  C   UNL     1       3.630   2.298  18.040  0.00  0.00    +0.000 C 
BRANCH  19  20
ATOM     20  C   UNL     1       4.354   3.084  19.121  0.00  0.00    +0.000 C 
BRANCH  20  22
ATOM     21  C   UNL     1       4.720   0.714  19.772  0.00  0.00    +0.000 C 
ATOM     22  C   UNL     1       4.772   2.152  20.247  0.00  0.00    +0.000 C 
ENDBRANCH  20  22
ENDBRANCH  19  20
ENDBRANCH  18  19
ENDBRANCH  17  18
ENDBRANCH  16  17
ENDBRANCH  15  16
ENDBRANCH  14  15
ENDBRANCH  13  14
ENDBRANCH   1  13
TORSDOF 17
ENDMDL
