MODEL 1
REMARK VINA RESULT:      -9.3      0.000      0.000
REMARK  Name = 
REMARK  3 active torsions:
REMARK  status: ('A' for Active; 'I' for Inactive)
REMARK    1  A    between atoms: S_2  and  C_4
REMARK    2  A    between atoms: S_2  and  C_12
REMARK    3  A    between atoms: C_22  and  C_23
REMARK                            x       y       z     vdW  Elec       q    Type
REMARK                         _______ _______ _______ _____ _____    ______ ____
ROOT
ATOM      1  C   UNL     1       3.870   5.925  17.897  0.00  0.00    +0.000 A 
ATOM      2  C   UNL     1       4.219   6.987  17.078  0.00  0.00    +0.000 A 
ATOM      3  N   UNL     1       3.645   8.201  17.127  0.00  0.00    +0.000 NA
ATOM      4  C   UNL     1       2.705   8.418  18.044  0.00  0.00    +0.000 A 
ATOM      5  C   UNL     1       2.141   9.682  18.042  0.00  0.00    +0.000 A 
ATOM      6  C   UNL     1       1.166  10.030  18.960  0.00  0.00    +0.000 A 
ATOM      7  F   UNL     1       0.623  11.254  18.922  0.00  0.00    +0.000 F 
ATOM      8  C   UNL     1       0.759   9.128  19.922  0.00  0.00    +0.000 A 
ATOM      9  C   UNL     1       1.326   7.851  19.942  0.00  0.00    +0.000 A 
ATOM     10  C   UNL     1       2.284   7.429  18.974  0.00  0.00    +0.000 A 
ATOM     11  C   UNL     1       2.855   6.100  18.872  0.00  0.00    +0.000 A 
ENDROOT
BRANCH  11  12
ATOM     12  C   UNL     1       2.303   4.964  19.688  0.00  0.00    +0.000 A 
ATOM     13  C   UNL     1       2.684   4.721  21.019  0.00  0.00    +0.000 A 
ATOM     14  C   UNL     1       2.276   3.576  21.721  0.00  0.00    +0.000 A 
ATOM     15  C   UNL     1       1.361   2.704  21.153  0.00  0.00    +0.000 A 
ATOM     16  C   UNL     1       0.886   2.975  19.882  0.00  0.00    +0.000 A 
ATOM     17  F   UNL     1      -0.060   2.189  19.351  0.00  0.00    +0.000 F 
ATOM     18  C   UNL     1       1.375   4.053  19.142  0.00  0.00    +0.000 A 
ENDBRANCH  11  12
BRANCH   1  20
ATOM     19  O   UNL     1       3.723   3.365  17.413  0.00  0.00    +0.000 OA
ATOM     20  S   UNL     1       4.728   4.396  17.583  0.00  0.00    +0.000 S 
ATOM     21  O   UNL     1       5.773   4.285  18.579  0.00  0.00    +0.000 OA
BRANCH  20  22
ATOM     22  C   UNL     1       5.611   4.472  16.029  0.00  0.00    +0.000 A 
ATOM     23  C   UNL     1       6.912   5.005  16.008  0.00  0.00    +0.000 A 
ATOM     24  C   UNL     1       7.605   5.080  14.801  0.00  0.00    +0.000 A 
ATOM     25  C   UNL     1       7.004   4.612  13.637  0.00  0.00    +0.000 A 
ATOM     26  F   UNL     1       7.669   4.701  12.478  0.00  0.00    +0.000 F 
ATOM     27  C   UNL     1       5.727   4.056  13.673  0.00  0.00    +0.000 A 
ATOM     28  F   UNL     1       5.163   3.600  12.547  0.00  0.00    +0.000 F 
ATOM     29  C   UNL     1       5.020   3.971  14.867  0.00  0.00    +0.000 A 
ENDBRANCH  20  22
ENDBRANCH   1  20
TORSDOF 3
ENDMDL
MODEL 2
REMARK VINA RESULT:      -8.8      0.848      1.226
REMARK  Name = 
REMARK  3 active torsions:
REMARK  status: ('A' for Active; 'I' for Inactive)
REMARK    1  A    between atoms: S_2  and  C_4
REMARK    2  A    between atoms: S_2  and  C_12
REMARK    3  A    between atoms: C_22  and  C_23
REMARK                            x       y       z     vdW  Elec       q    Type
REMARK                         _______ _______ _______ _____ _____    ______ ____
ROOT
ATOM      1  C   UNL     1       3.910   5.870  17.671  0.00  0.00    +0.000 A 
ATOM      2  C   UNL     1       4.299   6.956  16.903  0.00  0.00    +0.000 A 
ATOM      3  N   UNL     1       3.744   8.177  16.983  0.00  0.00    +0.000 NA
ATOM      4  C   UNL     1       2.784   8.376  17.883  0.00  0.00    +0.000 A 
ATOM      5  C   UNL     1       2.242   9.650  17.915  0.00  0.00    +0.000 A 
ATOM      6  C   UNL     1       1.249   9.980  18.820  0.00  0.00    +0.000 A 
ATOM      7  F   UNL     1       0.728  11.213  18.814  0.00  0.00    +0.000 F 
ATOM      8  C   UNL     1       0.800   9.049  19.735  0.00  0.00    +0.000 A 
ATOM      9  C   UNL     1       1.345   7.762  19.720  0.00  0.00    +0.000 A 
ATOM     10  C   UNL     1       2.321   7.361  18.763  0.00  0.00    +0.000 A 
ATOM     11  C   UNL     1       2.872   6.026  18.624  0.00  0.00    +0.000 A 
ENDROOT
BRANCH  11  12
ATOM     12  C   UNL     1       2.279   4.870  19.382  0.00  0.00    +0.000 A 
ATOM     13  C   UNL     1       1.329   3.996  18.826  0.00  0.00    +0.000 A 
ATOM     14  C   UNL     1       0.675   3.014  19.586  0.00  0.00    +0.000 A 
ATOM     15  C   UNL     1       1.054   2.787  20.900  0.00  0.00    +0.000 A 
ATOM     16  C   UNL     1       2.064   3.562  21.442  0.00  0.00    +0.000 A 
ATOM     17  F   UNL     1       2.499   3.302  22.682  0.00  0.00    +0.000 F 
ATOM     18  C   UNL     1       2.637   4.611  20.721  0.00  0.00    +0.000 A 
ENDBRANCH  11  12
BRANCH   1  20
ATOM     19  O   UNL     1       3.734   3.324  17.129  0.00  0.00    +0.000 OA
ATOM     20  S   UNL     1       4.750   4.338  17.321  0.00  0.00    +0.000 S 
ATOM     21  O   UNL     1       5.795   4.193  18.312  0.00  0.00    +0.000 OA
BRANCH  20  22
ATOM     22  C   UNL     1       5.632   4.440  15.768  0.00  0.00    +0.000 A 
ATOM     23  C   UNL     1       6.909   5.027  15.745  0.00  0.00    +0.000 A 
ATOM     24  C   UNL     1       7.601   5.123  14.539  0.00  0.00    +0.000 A 
ATOM     25  C   UNL     1       7.022   4.620  13.377  0.00  0.00    +0.000 A 
ATOM     26  F   UNL     1       7.685   4.728  12.218  0.00  0.00    +0.000 F 
ATOM     27  C   UNL     1       5.770   4.010  13.415  0.00  0.00    +0.000 A 
ATOM     28  F   UNL     1       5.228   3.522  12.292  0.00  0.00    +0.000 F 
ATOM     29  C   UNL     1       5.065   3.905  14.609  0.00  0.00    +0.000 A 
ENDBRANCH  20  22
ENDBRANCH   1  20
TORSDOF 3
ENDMDL
MODEL 3
REMARK VINA RESULT:      -8.6      0.563      1.243
REMARK  Name = 
REMARK  3 active torsions:
REMARK  status: ('A' for Active; 'I' for Inactive)
REMARK    1  A    between atoms: S_2  and  C_4
REMARK    2  A    between atoms: S_2  and  C_12
REMARK    3  A    between atoms: C_22  and  C_23
REMARK                            x       y       z     vdW  Elec       q    Type
REMARK                         _______ _______ _______ _____ _____    ______ ____
ROOT
ATOM      1  C   UNL     1       4.058   5.816  17.722  0.00  0.00    +0.000 A 
ATOM      2  C   UNL     1       4.406   6.896  16.927  0.00  0.00    +0.000 A 
ATOM      3  N   UNL     1       3.817   8.103  16.990  0.00  0.00    +0.000 NA
ATOM      4  C   UNL     1       2.862   8.293  17.897  0.00  0.00    +0.000 A 
ATOM      5  C   UNL     1       2.284   9.551  17.909  0.00  0.00    +0.000 A 
ATOM      6  C   UNL     1       1.292   9.871  18.819  0.00  0.00    +0.000 A 
ATOM      7  F   UNL     1       0.736  11.089  18.795  0.00  0.00    +0.000 F 
ATOM      8  C   UNL     1       0.882   8.948  19.759  0.00  0.00    +0.000 A 
ATOM      9  C   UNL     1       1.463   7.676  19.764  0.00  0.00    +0.000 A 
ATOM     10  C   UNL     1       2.439   7.283  18.803  0.00  0.00    +0.000 A 
ATOM     11  C   UNL     1       3.027   5.962  18.685  0.00  0.00    +0.000 A 
ENDROOT
BRANCH  11  12
ATOM     12  C   UNL     1       2.477   4.805  19.473  0.00  0.00    +0.000 A 
ATOM     13  C   UNL     1       2.932   4.469  20.760  0.00  0.00    +0.000 A 
ATOM     14  C   UNL     1       2.517   3.304  21.423  0.00  0.00    +0.000 A 
ATOM     15  C   UNL     1       1.526   2.507  20.872  0.00  0.00    +0.000 A 
ATOM     16  C   UNL     1       0.982   2.872  19.653  0.00  0.00    +0.000 A 
ATOM     17  F   UNL     1      -0.033   2.161  19.145  0.00  0.00    +0.000 F 
ATOM     18  C   UNL     1       1.472   3.970  18.942  0.00  0.00    +0.000 A 
ENDBRANCH  11  12
BRANCH   1  20
ATOM     19  O   UNL     1       3.962   3.231  17.381  0.00  0.00    +0.000 OA
ATOM     20  S   UNL     1       4.937   4.302  17.393  0.00  0.00    +0.000 S 
ATOM     21  O   UNL     1       6.084   4.279  18.278  0.00  0.00    +0.000 OA
BRANCH  20  22
ATOM     22  C   UNL     1       5.651   4.327  15.754  0.00  0.00    +0.000 A 
ATOM     23  C   UNL     1       4.977   3.677  14.705  0.00  0.00    +0.000 A 
ATOM     24  C   UNL     1       5.530   3.680  13.425  0.00  0.00    +0.000 A 
ATOM     25  C   UNL     1       6.734   4.340  13.202  0.00  0.00    +0.000 A 
ATOM     26  F   UNL     1       7.268   4.327  11.974  0.00  0.00    +0.000 F 
ATOM     27  C   UNL     1       7.378   5.010  14.240  0.00  0.00    +0.000 A 
ATOM     28  F   UNL     1       8.532   5.651  14.011  0.00  0.00    +0.000 F 
ATOM     29  C   UNL     1       6.842   5.019  15.523  0.00  0.00    +0.000 A 
ENDBRANCH  20  22
ENDBRANCH   1  20
TORSDOF 3
ENDMDL
MODEL 4
REMARK VINA RESULT:      -8.4      1.109      1.786
REMARK  Name = 
REMARK  3 active torsions:
REMARK  status: ('A' for Active; 'I' for Inactive)
REMARK    1  A    between atoms: S_2  and  C_4
REMARK    2  A    between atoms: S_2  and  C_12
REMARK    3  A    between atoms: C_22  and  C_23
REMARK                            x       y       z     vdW  Elec       q    Type
REMARK                         _______ _______ _______ _____ _____    ______ ____
ROOT
ATOM      1  C   UNL     1       4.160   5.682  17.447  0.00  0.00    +0.000 A 
ATOM      2  C   UNL     1       4.551   6.805  16.735  0.00  0.00    +0.000 A 
ATOM      3  N   UNL     1       3.974   8.013  16.851  0.00  0.00    +0.000 NA
ATOM      4  C   UNL     1       2.988   8.160  17.732  0.00  0.00    +0.000 A 
ATOM      5  C   UNL     1       2.424   9.422  17.802  0.00  0.00    +0.000 A 
ATOM      6  C   UNL     1       1.402   9.699  18.692  0.00  0.00    +0.000 A 
ATOM      7  F   UNL     1       0.862  10.923  18.724  0.00  0.00    +0.000 F 
ATOM      8  C   UNL     1       0.945   8.724  19.556  0.00  0.00    +0.000 A 
ATOM      9  C   UNL     1       1.511   7.447  19.503  0.00  0.00    +0.000 A 
ATOM     10  C   UNL     1       2.519   7.101  18.556  0.00  0.00    +0.000 A 
ATOM     11  C   UNL     1       3.095   5.782  18.377  0.00  0.00    +0.000 A 
ENDROOT
BRANCH  11  12
ATOM     12  C   UNL     1       2.502   4.586  19.070  0.00  0.00    +0.000 A 
ATOM     13  C   UNL     1       1.378   3.896  18.581  0.00  0.00    +0.000 A 
ATOM     14  C   UNL     1       0.746   2.878  19.310  0.00  0.00    +0.000 A 
ATOM     15  C   UNL     1       1.303   2.424  20.495  0.00  0.00    +0.000 A 
ATOM     16  C   UNL     1       2.471   3.012  20.948  0.00  0.00    +0.000 A 
ATOM     17  F   UNL     1       3.067   2.532  22.046  0.00  0.00    +0.000 F 
ATOM     18  C   UNL     1       3.038   4.100  20.280  0.00  0.00    +0.000 A 
ENDBRANCH  11  12
BRANCH   1  20
ATOM     19  O   UNL     1       4.056   3.111  17.014  0.00  0.00    +0.000 OA
ATOM     20  S   UNL     1       5.034   4.179  17.056  0.00  0.00    +0.000 S 
ATOM     21  O   UNL     1       6.188   4.123  17.929  0.00  0.00    +0.000 OA
BRANCH  20  22
ATOM     22  C   UNL     1       5.733   4.262  15.412  0.00  0.00    +0.000 A 
ATOM     23  C   UNL     1       5.060   3.632  14.350  0.00  0.00    +0.000 A 
ATOM     24  C   UNL     1       5.601   3.679  13.067  0.00  0.00    +0.000 A 
ATOM     25  C   UNL     1       6.794   4.364  12.853  0.00  0.00    +0.000 A 
ATOM     26  F   UNL     1       7.318   4.393  11.621  0.00  0.00    +0.000 F 
ATOM     27  C   UNL     1       7.437   5.013  13.905  0.00  0.00    +0.000 A 
ATOM     28  F   UNL     1       8.580   5.676  13.685  0.00  0.00    +0.000 F 
ATOM     29  C   UNL     1       6.912   4.977  15.192  0.00  0.00    +0.000 A 
ENDBRANCH  20  22
ENDBRANCH   1  20
TORSDOF 3
ENDMDL
MODEL 5
REMARK VINA RESULT:      -7.8      2.241      6.621
REMARK  Name = 
REMARK  3 active torsions:
REMARK  status: ('A' for Active; 'I' for Inactive)
REMARK    1  A    between atoms: S_2  and  C_4
REMARK    2  A    between atoms: S_2  and  C_12
REMARK    3  A    between atoms: C_22  and  C_23
REMARK                            x       y       z     vdW  Elec       q    Type
REMARK                         _______ _______ _______ _____ _____    ______ ____
ROOT
ATOM      1  C   UNL     1       6.297   5.217  16.718  0.00  0.00    +0.000 A 
ATOM      2  C   UNL     1       7.428   5.711  16.087  0.00  0.00    +0.000 A 
ATOM      3  N   UNL     1       7.777   5.422  14.822  0.00  0.00    +0.000 NA
ATOM      4  C   UNL     1       6.971   4.639  14.109  0.00  0.00    +0.000 A 
ATOM      5  C   UNL     1       7.385   4.365  12.817  0.00  0.00    +0.000 A 
ATOM      6  C   UNL     1       6.621   3.577  11.975  0.00  0.00    +0.000 A 
ATOM      7  F   UNL     1       7.057   3.311  10.736  0.00  0.00    +0.000 F 
ATOM      8  C   UNL     1       5.409   3.072  12.399  0.00  0.00    +0.000 A 
ATOM      9  C   UNL     1       4.974   3.348  13.698  0.00  0.00    +0.000 A 
ATOM     10  C   UNL     1       5.760   4.100  14.620  0.00  0.00    +0.000 A 
ATOM     11  C   UNL     1       5.422   4.357  16.007  0.00  0.00    +0.000 A 
ENDROOT
BRANCH  11  12
ATOM     12  C   UNL     1       4.267   3.648  16.659  0.00  0.00    +0.000 A 
ATOM     13  C   UNL     1       2.950   4.136  16.624  0.00  0.00    +0.000 A 
ATOM     14  C   UNL     1       1.909   3.546  17.358  0.00  0.00    +0.000 A 
ATOM     15  C   UNL     1       2.129   2.363  18.045  0.00  0.00    +0.000 A 
ATOM     16  C   UNL     1       3.393   1.800  18.010  0.00  0.00    +0.000 A 
ATOM     17  F   UNL     1       3.602   0.615  18.598  0.00  0.00    +0.000 F 
ATOM     18  C   UNL     1       4.454   2.445  17.371  0.00  0.00    +0.000 A 
ENDBRANCH  11  12
BRANCH   1  20
ATOM     19  O   UNL     1       7.083   6.713  18.706  0.00  0.00    +0.000 OA
ATOM     20  S   UNL     1       6.097   5.689  18.424  0.00  0.00    +0.000 S 
ATOM     21  O   UNL     1       6.026   4.466  19.196  0.00  0.00    +0.000 OA
BRANCH  20  22
ATOM     22  C   UNL     1       4.507   6.464  18.685  0.00  0.00    +0.000 A 
ATOM     23  C   UNL     1       4.105   7.506  17.830  0.00  0.00    +0.000 A 
ATOM     24  C   UNL     1       2.873   8.125  18.031  0.00  0.00    +0.000 A 
ATOM     25  C   UNL     1       2.051   7.691  19.066  0.00  0.00    +0.000 A 
ATOM     26  F   UNL     1       0.874   8.299  19.265  0.00  0.00    +0.000 F 
ATOM     27  C   UNL     1       2.442   6.636  19.888  0.00  0.00    +0.000 A 
ATOM     28  F   UNL     1       1.638   6.221  20.876  0.00  0.00    +0.000 F 
ATOM     29  C   UNL     1       3.668   6.006  19.703  0.00  0.00    +0.000 A 
ENDBRANCH  20  22
ENDBRANCH   1  20
TORSDOF 3
ENDMDL
MODEL 6
REMARK VINA RESULT:      -7.7      2.892      3.377
REMARK  Name = 
REMARK  3 active torsions:
REMARK  status: ('A' for Active; 'I' for Inactive)
REMARK    1  A    between atoms: S_2  and  C_4
REMARK    2  A    between atoms: S_2  and  C_12
REMARK    3  A    between atoms: C_22  and  C_23
REMARK                            x       y       z     vdW  Elec       q    Type
REMARK                         _______ _______ _______ _____ _____    ______ ____
ROOT
ATOM      1  C   UNL     1       2.984   7.281  18.108  0.00  0.00    +0.000 A 
ATOM      2  C   UNL     1       2.882   8.592  17.673  0.00  0.00    +0.000 A 
ATOM      3  N   UNL     1       2.082   9.516  18.232  0.00  0.00    +0.000 NA
ATOM      4  C   UNL     1       1.365   9.168  19.298  0.00  0.00    +0.000 A 
ATOM      5  C   UNL     1       0.551  10.156  19.826  0.00  0.00    +0.000 A 
ATOM      6  C   UNL     1      -0.227   9.916  20.943  0.00  0.00    +0.000 A 
ATOM      7  F   UNL     1      -1.021  10.883  21.421  0.00  0.00    +0.000 F 
ATOM      8  C   UNL     1      -0.183   8.690  21.576  0.00  0.00    +0.000 A 
ATOM      9  C   UNL     1       0.641   7.686  21.059  0.00  0.00    +0.000 A 
ATOM     10  C   UNL     1       1.409   7.869  19.872  0.00  0.00    +0.000 A 
ATOM     11  C   UNL     1       2.219   6.855  19.223  0.00  0.00    +0.000 A 
ENDROOT
BRANCH  11  12
ATOM     12  C   UNL     1       2.144   5.419  19.662  0.00  0.00    +0.000 A 
ATOM     13  C   UNL     1       2.951   4.885  20.682  0.00  0.00    +0.000 A 
ATOM     14  C   UNL     1       2.977   3.515  20.980  0.00  0.00    +0.000 A 
ATOM     15  C   UNL     1       2.091   2.651  20.354  0.00  0.00    +0.000 A 
ATOM     16  C   UNL     1       1.210   3.166  19.421  0.00  0.00    +0.000 A 
ATOM     17  F   UNL     1       0.293   2.362  18.867  0.00  0.00    +0.000 F 
ATOM     18  C   UNL     1       1.259   4.510  19.044  0.00  0.00    +0.000 A 
ENDBRANCH  11  12
BRANCH   1  20
ATOM     19  O   UNL     1       4.416   6.961  15.951  0.00  0.00    +0.000 OA
ATOM     20  S   UNL     1       4.058   6.232  17.150  0.00  0.00    +0.000 S 
ATOM     21  O   UNL     1       3.432   4.927  17.091  0.00  0.00    +0.000 OA
BRANCH  20  22
ATOM     22  C   UNL     1       5.596   5.939  18.016  0.00  0.00    +0.000 A 
ATOM     23  C   UNL     1       5.773   4.725  18.703  0.00  0.00    +0.000 A 
ATOM     24  C   UNL     1       6.962   4.491  19.391  0.00  0.00    +0.000 A 
ATOM     25  C   UNL     1       7.963   5.458  19.375  0.00  0.00    +0.000 A 
ATOM     26  F   UNL     1       9.098   5.235  20.051  0.00  0.00    +0.000 F 
ATOM     27  C   UNL     1       7.792   6.644  18.664  0.00  0.00    +0.000 A 
ATOM     28  F   UNL     1       8.766   7.563  18.648  0.00  0.00    +0.000 F 
ATOM     29  C   UNL     1       6.612   6.895  17.971  0.00  0.00    +0.000 A 
ENDBRANCH  20  22
ENDBRANCH   1  20
TORSDOF 3
ENDMDL
MODEL 7
REMARK VINA RESULT:      -7.5      5.935      8.903
REMARK  Name = 
REMARK  3 active torsions:
REMARK  status: ('A' for Active; 'I' for Inactive)
REMARK    1  A    between atoms: S_2  and  C_4
REMARK    2  A    between atoms: S_2  and  C_12
REMARK    3  A    between atoms: C_22  and  C_23
REMARK                            x       y       z     vdW  Elec       q    Type
REMARK                         _______ _______ _______ _____ _____    ______ ____
ROOT
ATOM      1  C   UNL     1      -1.470  11.466  19.633  0.00  0.00    +0.000 A 
ATOM      2  C   UNL     1      -1.702  10.712  18.494  0.00  0.00    +0.000 A 
ATOM      3  N   UNL     1      -2.872  10.679  17.834  0.00  0.00    +0.000 NA
ATOM      4  C   UNL     1      -3.867  11.447  18.273  0.00  0.00    +0.000 A 
ATOM      5  C   UNL     1      -5.051  11.364  17.561  0.00  0.00    +0.000 A 
ATOM      6  C   UNL     1      -6.149  12.128  17.914  0.00  0.00    +0.000 A 
ATOM      7  F   UNL     1      -7.289  12.013  17.220  0.00  0.00    +0.000 F 
ATOM      8  C   UNL     1      -6.074  13.016  18.967  0.00  0.00    +0.000 A 
ATOM      9  C   UNL     1      -4.881  13.116  19.690  0.00  0.00    +0.000 A 
ATOM     10  C   UNL     1      -3.748  12.300  19.403  0.00  0.00    +0.000 A 
ATOM     11  C   UNL     1      -2.508  12.280  20.155  0.00  0.00    +0.000 A 
ENDROOT
BRANCH  11  12
ATOM     12  C   UNL     1      -2.396  13.001  21.469  0.00  0.00    +0.000 A 
ATOM     13  C   UNL     1      -1.600  14.146  21.651  0.00  0.00    +0.000 A 
ATOM     14  C   UNL     1      -1.389  14.722  22.912  0.00  0.00    +0.000 A 
ATOM     15  C   UNL     1      -2.080  14.248  24.017  0.00  0.00    +0.000 A 
ATOM     16  C   UNL     1      -2.954  13.189  23.848  0.00  0.00    +0.000 A 
ATOM     17  F   UNL     1      -3.691  12.772  24.885  0.00  0.00    +0.000 F 
ATOM     18  C   UNL     1      -3.080  12.545  22.615  0.00  0.00    +0.000 A 
ENDBRANCH  11  12
BRANCH   1  20
ATOM     19  O   UNL     1      -0.055  10.945  21.762  0.00  0.00    +0.000 OA
ATOM     20  S   UNL     1       0.143  11.278  20.366  0.00  0.00    +0.000 S 
ATOM     21  O   UNL     1       0.928  12.426  19.960  0.00  0.00    +0.000 OA
BRANCH  20  22
ATOM     22  C   UNL     1       1.005   9.884  19.652  0.00  0.00    +0.000 A 
ATOM     23  C   UNL     1       1.505   9.988  18.341  0.00  0.00    +0.000 A 
ATOM     24  C   UNL     1       2.168   8.903  17.770  0.00  0.00    +0.000 A 
ATOM     25  C   UNL     1       2.339   7.739  18.511  0.00  0.00    +0.000 A 
ATOM     26  F   UNL     1       2.964   6.694  17.952  0.00  0.00    +0.000 F 
ATOM     27  C   UNL     1       1.869   7.656  19.820  0.00  0.00    +0.000 A 
ATOM     28  F   UNL     1       2.048   6.533  20.527  0.00  0.00    +0.000 F 
ATOM     29  C   UNL     1       1.206   8.728  20.408  0.00  0.00    +0.000 A 
ENDBRANCH  20  22
ENDBRANCH   1  20
TORSDOF 3
ENDMDL
MODEL 8
REMARK VINA RESULT:      -7.4      5.407      8.572
REMARK  Name = 
REMARK  3 active torsions:
REMARK  status: ('A' for Active; 'I' for Inactive)
REMARK    1  A    between atoms: S_2  and  C_4
REMARK    2  A    between atoms: S_2  and  C_12
REMARK    3  A    between atoms: C_22  and  C_23
REMARK                            x       y       z     vdW  Elec       q    Type
REMARK                         _______ _______ _______ _____ _____    ______ ____
ROOT
ATOM      1  C   UNL     1      -0.941  11.211  19.104  0.00  0.00    +0.000 A 
ATOM      2  C   UNL     1      -1.333  10.371  18.074  0.00  0.00    +0.000 A 
ATOM      3  N   UNL     1      -2.599  10.244  17.640  0.00  0.00    +0.000 NA
ATOM      4  C   UNL     1      -3.538  10.999  18.205  0.00  0.00    +0.000 A 
ATOM      5  C   UNL     1      -4.825  10.819  17.726  0.00  0.00    +0.000 A 
ATOM      6  C   UNL     1      -5.881  11.560  18.225  0.00  0.00    +0.000 A 
ATOM      7  F   UNL     1      -7.119  11.351  17.758  0.00  0.00    +0.000 F 
ATOM      8  C   UNL     1      -5.666  12.520  19.193  0.00  0.00    +0.000 A 
ATOM      9  C   UNL     1      -4.371  12.718  19.679  0.00  0.00    +0.000 A 
ATOM     10  C   UNL     1      -3.266  11.932  19.241  0.00  0.00    +0.000 A 
ATOM     11  C   UNL     1      -1.911  12.014  19.756  0.00  0.00    +0.000 A 
ENDROOT
BRANCH  11  12
ATOM     12  C   UNL     1      -1.606  12.829  20.982  0.00  0.00    +0.000 A 
ATOM     13  C   UNL     1      -1.849  12.368  22.288  0.00  0.00    +0.000 A 
ATOM     14  C   UNL     1      -1.699  13.191  23.415  0.00  0.00    +0.000 A 
ATOM     15  C   UNL     1      -1.168  14.464  23.280  0.00  0.00    +0.000 A 
ATOM     16  C   UNL     1      -0.818  14.906  22.016  0.00  0.00    +0.000 A 
ATOM     17  F   UNL     1      -0.227  16.100  21.876  0.00  0.00    +0.000 F 
ATOM     18  C   UNL     1      -1.070  14.130  20.883  0.00  0.00    +0.000 A 
ENDBRANCH  11  12
BRANCH   1  20
ATOM     19  O   UNL     1       0.869  11.286  20.982  0.00  0.00    +0.000 OA
ATOM     20  S   UNL     1       0.783  11.140  19.543  0.00  0.00    +0.000 S 
ATOM     21  O   UNL     1       1.485  12.032  18.643  0.00  0.00    +0.000 OA
BRANCH  20  22
ATOM     22  C   UNL     1       1.464   9.527  19.178  0.00  0.00    +0.000 A 
ATOM     23  C   UNL     1       2.066   9.307  17.926  0.00  0.00    +0.000 A 
ATOM     24  C   UNL     1       2.590   8.050  17.626  0.00  0.00    +0.000 A 
ATOM     25  C   UNL     1       2.523   7.037  18.577  0.00  0.00    +0.000 A 
ATOM     26  F   UNL     1       3.013   5.827  18.277  0.00  0.00    +0.000 F 
ATOM     27  C   UNL     1       1.954   7.274  19.827  0.00  0.00    +0.000 A 
ATOM     28  F   UNL     1       1.904   6.292  20.737  0.00  0.00    +0.000 F 
ATOM     29  C   UNL     1       1.427   8.521  20.144  0.00  0.00    +0.000 A 
ENDBRANCH  20  22
ENDBRANCH   1  20
TORSDOF 3
ENDMDL
MODEL 9
REMARK VINA RESULT:      -7.3      6.001      9.031
REMARK  Name = 
REMARK  3 active torsions:
REMARK  status: ('A' for Active; 'I' for Inactive)
REMARK    1  A    between atoms: S_2  and  C_4
REMARK    2  A    between atoms: S_2  and  C_12
REMARK    3  A    between atoms: C_22  and  C_23
REMARK                            x       y       z     vdW  Elec       q    Type
REMARK                         _______ _______ _______ _____ _____    ______ ____
ROOT
ATOM      1  C   UNL     1      -1.480  11.552  19.907  0.00  0.00    +0.000 A 
ATOM      2  C   UNL     1      -1.674  10.793  18.764  0.00  0.00    +0.000 A 
ATOM      3  N   UNL     1      -2.819  10.762  18.060  0.00  0.00    +0.000 NA
ATOM      4  C   UNL     1      -3.825  11.537  18.459  0.00  0.00    +0.000 A 
ATOM      5  C   UNL     1      -4.983  11.456  17.704  0.00  0.00    +0.000 A 
ATOM      6  C   UNL     1      -6.090  12.227  18.012  0.00  0.00    +0.000 A 
ATOM      7  F   UNL     1      -7.203  12.114  17.277  0.00  0.00    +0.000 F 
ATOM      8  C   UNL     1      -6.049  13.119  19.063  0.00  0.00    +0.000 A 
ATOM      9  C   UNL     1      -4.884  13.217  19.829  0.00  0.00    +0.000 A 
ATOM     10  C   UNL     1      -3.745  12.395  19.588  0.00  0.00    +0.000 A 
ATOM     11  C   UNL     1      -2.533  12.373  20.386  0.00  0.00    +0.000 A 
ENDROOT
BRANCH  11  12
ATOM     12  C   UNL     1      -2.467  13.100  21.700  0.00  0.00    +0.000 A 
ATOM     13  C   UNL     1      -1.685  14.251  21.901  0.00  0.00    +0.000 A 
ATOM     14  C   UNL     1      -1.516  14.834  23.166  0.00  0.00    +0.000 A 
ATOM     15  C   UNL     1      -2.238  14.359  24.251  0.00  0.00    +0.000 A 
ATOM     16  C   UNL     1      -3.099  13.293  24.060  0.00  0.00    +0.000 A 
ATOM     17  F   UNL     1      -3.865  12.875  25.076  0.00  0.00    +0.000 F 
ATOM     18  C   UNL     1      -3.183  12.643  22.826  0.00  0.00    +0.000 A 
ENDBRANCH  11  12
BRANCH   1  20
ATOM     19  O   UNL     1      -0.144  11.168  22.115  0.00  0.00    +0.000 OA
ATOM     20  S   UNL     1       0.103  11.360  20.700  0.00  0.00    +0.000 S 
ATOM     21  O   UNL     1       0.952  12.428  20.213  0.00  0.00    +0.000 OA
BRANCH  20  22
ATOM     22  C   UNL     1       0.915   9.868  20.142  0.00  0.00    +0.000 A 
ATOM     23  C   UNL     1       0.993   8.766  21.013  0.00  0.00    +0.000 A 
ATOM     24  C   UNL     1       1.634   7.602  20.594  0.00  0.00    +0.000 A 
ATOM     25  C   UNL     1       2.173   7.542  19.312  0.00  0.00    +0.000 A 
ATOM     26  F   UNL     1       2.801   6.426  18.920  0.00  0.00    +0.000 F 
ATOM     27  C   UNL     1       2.062   8.626  18.445  0.00  0.00    +0.000 A 
ATOM     28  F   UNL     1       2.578   8.553  17.211  0.00  0.00    +0.000 F 
ATOM     29  C   UNL     1       1.426   9.796  18.845  0.00  0.00    +0.000 A 
ENDBRANCH  20  22
ENDBRANCH   1  20
TORSDOF 3
ENDMDL
