MODEL 1
REMARK VINA RESULT:      -5.9      0.000      0.000
REMARK  Name = 
REMARK  3 active torsions:
REMARK  status: ('A' for Active; 'I' for Inactive)
REMARK    1  A    between atoms: C_1  and  N_2
REMARK    2  A    between atoms: N_2  and  C_8
REMARK    3  A    between atoms: C_3  and  C_5
REMARK                            x       y       z     vdW  Elec       q    Type
REMARK                         _______ _______ _______ _____ _____    ______ ____
ROOT
ATOM      1  C   UNL     1       6.161   5.250  19.276  0.00  0.00    +0.000 C 
ATOM      2  N   UNL     1       5.647   5.015  17.936  0.00  0.00    +0.000 N 
ATOM      3  C   UNL     1       6.418   5.335  16.818  0.00  0.00    +0.000 C 
ATOM      4  O   UNL     1       7.555   5.790  16.898  0.00  0.00    +0.000 OA
ENDROOT
BRANCH   2   5
ATOM      5  C   UNL     1       4.311   4.575  17.845  0.00  0.00    +0.000 A 
ATOM      6  C   UNL     1       3.278   5.512  17.920  0.00  0.00    +0.000 A 
ATOM      7  C   UNL     1       1.953   5.078  17.904  0.00  0.00    +0.000 A 
ATOM      8  C   UNL     1       1.665   3.716  17.812  0.00  0.00    +0.000 A 
ATOM      9  C   UNL     1       2.700   2.783  17.726  0.00  0.00    +0.000 A 
ATOM     10  C   UNL     1       4.028   3.212  17.738  0.00  0.00    +0.000 A 
ENDBRANCH   2   5
BRANCH   3  11
ATOM     11  C   UNL     1       5.830   5.062  15.462  0.00  0.00    +0.000 C 
ATOM     12  C   UNL     1       6.705   4.953  14.236  0.00  0.00    +0.000 C 
ATOM     13  C   UNL     1       6.073   3.720  14.811  0.00  0.00    +0.000 C 
ENDBRANCH   3  11
TORSDOF 2
ENDMDL
MODEL 2
REMARK VINA RESULT:      -5.9      0.099      1.348
REMARK  Name = 
REMARK  3 active torsions:
REMARK  status: ('A' for Active; 'I' for Inactive)
REMARK    1  A    between atoms: C_1  and  N_2
REMARK    2  A    between atoms: N_2  and  C_8
REMARK    3  A    between atoms: C_3  and  C_5
REMARK                            x       y       z     vdW  Elec       q    Type
REMARK                         _______ _______ _______ _____ _____    ______ ____
ROOT
ATOM      1  C   UNL     1       6.270   5.333  19.287  0.00  0.00    +0.000 C 
ATOM      2  N   UNL     1       5.692   5.068  17.978  0.00  0.00    +0.000 N 
ATOM      3  C   UNL     1       6.414   5.353  16.818  0.00  0.00    +0.000 C 
ATOM      4  O   UNL     1       7.557   5.798  16.834  0.00  0.00    +0.000 OA
ENDROOT
BRANCH   2   5
ATOM      5  C   UNL     1       4.350   4.639  17.960  0.00  0.00    +0.000 A 
ATOM      6  C   UNL     1       4.073   3.274  17.848  0.00  0.00    +0.000 A 
ATOM      7  C   UNL     1       2.749   2.846  17.756  0.00  0.00    +0.000 A 
ATOM      8  C   UNL     1       1.711   3.778  17.779  0.00  0.00    +0.000 A 
ATOM      9  C   UNL     1       1.991   5.140  17.903  0.00  0.00    +0.000 A 
ATOM     10  C   UNL     1       3.314   5.574  17.999  0.00  0.00    +0.000 A 
ENDBRANCH   2   5
BRANCH   3  11
ATOM     11  C   UNL     1       5.762   5.050  15.498  0.00  0.00    +0.000 C 
ATOM     12  C   UNL     1       6.574   4.947  14.228  0.00  0.00    +0.000 C 
ATOM     13  C   UNL     1       6.002   3.706  14.850  0.00  0.00    +0.000 C 
ENDBRANCH   3  11
TORSDOF 2
ENDMDL
MODEL 3
REMARK VINA RESULT:      -5.8      1.486      2.120
REMARK  Name = 
REMARK  3 active torsions:
REMARK  status: ('A' for Active; 'I' for Inactive)
REMARK    1  A    between atoms: C_1  and  N_2
REMARK    2  A    between atoms: N_2  and  C_8
REMARK    3  A    between atoms: C_3  and  C_5
REMARK                            x       y       z     vdW  Elec       q    Type
REMARK                         _______ _______ _______ _____ _____    ______ ____
ROOT
ATOM      1  C   UNL     1       3.372   6.746  17.910  0.00  0.00    +0.000 C 
ATOM      2  N   UNL     1       4.089   5.614  17.343  0.00  0.00    +0.000 N 
ATOM      3  C   UNL     1       4.957   5.797  16.266  0.00  0.00    +0.000 C 
ATOM      4  O   UNL     1       5.185   6.896  15.770  0.00  0.00    +0.000 OA
ENDROOT
BRANCH   2   5
ATOM      5  C   UNL     1       3.761   4.344  17.857  0.00  0.00    +0.000 A 
ATOM      6  C   UNL     1       4.479   3.843  18.947  0.00  0.00    +0.000 A 
ATOM      7  C   UNL     1       4.211   2.558  19.416  0.00  0.00    +0.000 A 
ATOM      8  C   UNL     1       3.230   1.780  18.798  0.00  0.00    +0.000 A 
ATOM      9  C   UNL     1       2.507   2.288  17.718  0.00  0.00    +0.000 A 
ATOM     10  C   UNL     1       2.769   3.575  17.247  0.00  0.00    +0.000 A 
ENDBRANCH   2   5
BRANCH   3  11
ATOM     11  C   UNL     1       5.671   4.587  15.732  0.00  0.00    +0.000 C 
ATOM     12  C   UNL     1       6.794   4.719  14.730  0.00  0.00    +0.000 C 
ATOM     13  C   UNL     1       7.103   4.335  16.147  0.00  0.00    +0.000 C 
ENDBRANCH   3  11
TORSDOF 2
ENDMDL
MODEL 4
REMARK VINA RESULT:      -5.8      1.469      1.990
REMARK  Name = 
REMARK  3 active torsions:
REMARK  status: ('A' for Active; 'I' for Inactive)
REMARK    1  A    between atoms: C_1  and  N_2
REMARK    2  A    between atoms: N_2  and  C_8
REMARK    3  A    between atoms: C_3  and  C_5
REMARK                            x       y       z     vdW  Elec       q    Type
REMARK                         _______ _______ _______ _____ _____    ______ ____
ROOT
ATOM      1  C   UNL     1       3.620   6.716  17.875  0.00  0.00    +0.000 C 
ATOM      2  N   UNL     1       4.246   5.569  17.236  0.00  0.00    +0.000 N 
ATOM      3  C   UNL     1       5.053   5.742  16.111  0.00  0.00    +0.000 C 
ATOM      4  O   UNL     1       5.301   6.843  15.629  0.00  0.00    +0.000 OA
ENDROOT
BRANCH   2   5
ATOM      5  C   UNL     1       3.891   4.301  17.738  0.00  0.00    +0.000 A 
ATOM      6  C   UNL     1       2.802   3.627  17.180  0.00  0.00    +0.000 A 
ATOM      7  C   UNL     1       2.399   2.405  17.717  0.00  0.00    +0.000 A 
ATOM      8  C   UNL     1       3.084   1.862  18.805  0.00  0.00    +0.000 A 
ATOM      9  C   UNL     1       4.179   2.532  19.352  0.00  0.00    +0.000 A 
ATOM     10  C   UNL     1       4.589   3.753  18.816  0.00  0.00    +0.000 A 
ENDBRANCH   2   5
BRANCH   3  11
ATOM     11  C   UNL     1       5.675   4.516  15.503  0.00  0.00    +0.000 C 
ATOM     12  C   UNL     1       6.709   4.624  14.407  0.00  0.00    +0.000 C 
ATOM     13  C   UNL     1       7.127   4.209  15.787  0.00  0.00    +0.000 C 
ENDBRANCH   3  11
TORSDOF 2
ENDMDL
MODEL 5
REMARK VINA RESULT:      -5.6      1.964      2.960
REMARK  Name = 
REMARK  3 active torsions:
REMARK  status: ('A' for Active; 'I' for Inactive)
REMARK    1  A    between atoms: C_1  and  N_2
REMARK    2  A    between atoms: N_2  and  C_8
REMARK    3  A    between atoms: C_3  and  C_5
REMARK                            x       y       z     vdW  Elec       q    Type
REMARK                         _______ _______ _______ _____ _____    ______ ____
ROOT
ATOM      1  C   UNL     1       2.399   7.592  18.101  0.00  0.00    +0.000 C 
ATOM      2  N   UNL     1       3.063   6.298  18.091  0.00  0.00    +0.000 N 
ATOM      3  C   UNL     1       4.226   6.108  17.344  0.00  0.00    +0.000 C 
ATOM      4  O   UNL     1       4.759   7.004  16.697  0.00  0.00    +0.000 OA
ENDROOT
BRANCH   2   5
ATOM      5  C   UNL     1       2.404   5.249  18.763  0.00  0.00    +0.000 A 
ATOM      6  C   UNL     1       1.722   4.284  18.018  0.00  0.00    +0.000 A 
ATOM      7  C   UNL     1       1.007   3.285  18.677  0.00  0.00    +0.000 A 
ATOM      8  C   UNL     1       0.977   3.252  20.072  0.00  0.00    +0.000 A 
ATOM      9  C   UNL     1       1.669   4.211  20.813  0.00  0.00    +0.000 A 
ATOM     10  C   UNL     1       2.389   5.211  20.159  0.00  0.00    +0.000 A 
ENDBRANCH   2   5
BRANCH   3  11
ATOM     11  C   UNL     1       4.866   4.749  17.381  0.00  0.00    +0.000 C 
ATOM     12  C   UNL     1       6.266   4.526  16.857  0.00  0.00    +0.000 C 
ATOM     13  C   UNL     1       6.011   4.500  18.336  0.00  0.00    +0.000 C 
ENDBRANCH   3  11
TORSDOF 2
ENDMDL
MODEL 6
REMARK VINA RESULT:      -5.6      1.960      2.944
REMARK  Name = 
REMARK  3 active torsions:
REMARK  status: ('A' for Active; 'I' for Inactive)
REMARK    1  A    between atoms: C_1  and  N_2
REMARK    2  A    between atoms: N_2  and  C_8
REMARK    3  A    between atoms: C_3  and  C_5
REMARK                            x       y       z     vdW  Elec       q    Type
REMARK                         _______ _______ _______ _____ _____    ______ ____
ROOT
ATOM      1  C   UNL     1       2.303   7.633  18.173  0.00  0.00    +0.000 C 
ATOM      2  N   UNL     1       2.952   6.332  18.162  0.00  0.00    +0.000 N 
ATOM      3  C   UNL     1       4.152   6.149  17.474  0.00  0.00    +0.000 C 
ATOM      4  O   UNL     1       4.730   7.056  16.883  0.00  0.00    +0.000 OA
ENDROOT
BRANCH   2   5
ATOM      5  C   UNL     1       2.246   5.273  18.766  0.00  0.00    +0.000 A 
ATOM      6  C   UNL     1       2.194   5.196  20.160  0.00  0.00    +0.000 A 
ATOM      7  C   UNL     1       1.560   4.113  20.767  0.00  0.00    +0.000 A 
ATOM      8  C   UNL     1       0.980   3.115  19.983  0.00  0.00    +0.000 A 
ATOM      9  C   UNL     1       1.024   3.200  18.590  0.00  0.00    +0.000 A 
ATOM     10  C   UNL     1       1.654   4.284  17.978  0.00  0.00    +0.000 A 
ENDBRANCH   2   5
BRANCH   3  11
ATOM     11  C   UNL     1       4.774   4.781  17.507  0.00  0.00    +0.000 C 
ATOM     12  C   UNL     1       6.219   4.567  17.118  0.00  0.00    +0.000 C 
ATOM     13  C   UNL     1       5.813   4.470  18.559  0.00  0.00    +0.000 C 
ENDBRANCH   3  11
TORSDOF 2
ENDMDL
MODEL 7
REMARK VINA RESULT:      -5.6      3.028      4.813
REMARK  Name = 
REMARK  3 active torsions:
REMARK  status: ('A' for Active; 'I' for Inactive)
REMARK    1  A    between atoms: C_1  and  N_2
REMARK    2  A    between atoms: N_2  and  C_8
REMARK    3  A    between atoms: C_3  and  C_5
REMARK                            x       y       z     vdW  Elec       q    Type
REMARK                         _______ _______ _______ _____ _____    ______ ____
ROOT
ATOM      1  C   UNL     1       5.118   5.401  19.208  0.00  0.00    +0.000 C 
ATOM      2  N   UNL     1       3.677   5.247  19.095  0.00  0.00    +0.000 N 
ATOM      3  C   UNL     1       3.116   3.985  18.893  0.00  0.00    +0.000 C 
ATOM      4  O   UNL     1       3.784   2.958  18.833  0.00  0.00    +0.000 OA
ENDROOT
BRANCH   2   5
ATOM      5  C   UNL     1       2.918   6.435  19.077  0.00  0.00    +0.000 A 
ATOM      6  C   UNL     1       2.883   7.203  17.911  0.00  0.00    +0.000 A 
ATOM      7  C   UNL     1       2.195   8.416  17.906  0.00  0.00    +0.000 A 
ATOM      8  C   UNL     1       1.546   8.854  19.061  0.00  0.00    +0.000 A 
ATOM      9  C   UNL     1       1.573   8.078  20.221  0.00  0.00    +0.000 A 
ATOM     10  C   UNL     1       2.257   6.862  20.230  0.00  0.00    +0.000 A 
ENDBRANCH   2   5
BRANCH   3  11
ATOM     11  C   UNL     1       1.619   3.894  18.790  0.00  0.00    +0.000 C 
ATOM     12  C   UNL     1       0.914   2.558  18.775  0.00  0.00    +0.000 C 
ATOM     13  C   UNL     1       0.826   3.433  19.991  0.00  0.00    +0.000 C 
ENDBRANCH   3  11
TORSDOF 2
ENDMDL
MODEL 8
REMARK VINA RESULT:      -5.6      1.118      1.836
REMARK  Name = 
REMARK  3 active torsions:
REMARK  status: ('A' for Active; 'I' for Inactive)
REMARK    1  A    between atoms: C_1  and  N_2
REMARK    2  A    between atoms: N_2  and  C_8
REMARK    3  A    between atoms: C_3  and  C_5
REMARK                            x       y       z     vdW  Elec       q    Type
REMARK                         _______ _______ _______ _____ _____    ______ ____
ROOT
ATOM      1  C   UNL     1       7.072   5.556  19.159  0.00  0.00    +0.000 C 
ATOM      2  N   UNL     1       6.248   5.074  18.063  0.00  0.00    +0.000 N 
ATOM      3  C   UNL     1       6.840   4.538  16.918  0.00  0.00    +0.000 C 
ATOM      4  O   UNL     1       8.053   4.415  16.788  0.00  0.00    +0.000 OA
ENDROOT
BRANCH   2   5
ATOM      5  C   UNL     1       4.861   5.295  18.177  0.00  0.00    +0.000 A 
ATOM      6  C   UNL     1       4.028   4.231  18.535  0.00  0.00    +0.000 A 
ATOM      7  C   UNL     1       2.648   4.422  18.580  0.00  0.00    +0.000 A 
ATOM      8  C   UNL     1       2.106   5.670  18.270  0.00  0.00    +0.000 A 
ATOM      9  C   UNL     1       2.941   6.733  17.923  0.00  0.00    +0.000 A 
ATOM     10  C   UNL     1       4.323   6.549  17.881  0.00  0.00    +0.000 A 
ENDBRANCH   2   5
BRANCH   3  11
ATOM     11  C   UNL     1       5.930   4.053  15.824  0.00  0.00    +0.000 C 
ATOM     12  C   UNL     1       5.414   4.992  14.759  0.00  0.00    +0.000 C 
ATOM     13  C   UNL     1       6.458   3.972  14.410  0.00  0.00    +0.000 C 
ENDBRANCH   3  11
TORSDOF 2
ENDMDL
MODEL 9
REMARK VINA RESULT:      -5.6      1.047      1.174
REMARK  Name = 
REMARK  3 active torsions:
REMARK  status: ('A' for Active; 'I' for Inactive)
REMARK    1  A    between atoms: C_1  and  N_2
REMARK    2  A    between atoms: N_2  and  C_8
REMARK    3  A    between atoms: C_3  and  C_5
REMARK                            x       y       z     vdW  Elec       q    Type
REMARK                         _______ _______ _______ _____ _____    ______ ____
ROOT
ATOM      1  C   UNL     1       6.960   5.347  19.262  0.00  0.00    +0.000 C 
ATOM      2  N   UNL     1       6.189   4.869  18.126  0.00  0.00    +0.000 N 
ATOM      3  C   UNL     1       6.831   4.497  16.944  0.00  0.00    +0.000 C 
ATOM      4  O   UNL     1       8.050   4.520  16.809  0.00  0.00    +0.000 OA
ENDROOT
BRANCH   2   5
ATOM      5  C   UNL     1       4.786   4.924  18.253  0.00  0.00    +0.000 A 
ATOM      6  C   UNL     1       4.118   6.105  17.919  0.00  0.00    +0.000 A 
ATOM      7  C   UNL     1       2.740   6.193  18.110  0.00  0.00    +0.000 A 
ATOM      8  C   UNL     1       2.036   5.106  18.629  0.00  0.00    +0.000 A 
ATOM      9  C   UNL     1       2.705   3.924  18.950  0.00  0.00    +0.000 A 
ATOM     10  C   UNL     1       4.084   3.828  18.758  0.00  0.00    +0.000 A 
ENDBRANCH   2   5
BRANCH   3  11
ATOM     11  C   UNL     1       5.975   4.006  15.810  0.00  0.00    +0.000 C 
ATOM     12  C   UNL     1       5.403   4.961  14.789  0.00  0.00    +0.000 C 
ATOM     13  C   UNL     1       6.525   4.042  14.403  0.00  0.00    +0.000 C 
ENDBRANCH   3  11
TORSDOF 2
ENDMDL
