MODEL 1
REMARK VINA RESULT:      -7.6      0.000      0.000
REMARK  Name = 
REMARK  12 active torsions:
REMARK  status: ('A' for Active; 'I' for Inactive)
REMARK    1  A    between atoms: C_1  and  C_2
REMARK    2  A    between atoms: C_2  and  N_3
REMARK    3  A    between atoms: N_3  and  C_4
REMARK    4  A    between atoms: N_3  and  C_6
REMARK    5  A    between atoms: C_4  and  C_5
REMARK    6  A    between atoms: C_6  and  C_7
REMARK    7  A    between atoms: C_7  and  N_8
REMARK    8  A    between atoms: C_9  and  C_11
REMARK    9  A    between atoms: C_16  and  N_17
REMARK   10  A    between atoms: C_18  and  C_20
REMARK   11  A    between atoms: C_20  and  O_21
REMARK   12  A    between atoms: O_21  and  C_22
REMARK                            x       y       z     vdW  Elec       q    Type
REMARK                         _______ _______ _______ _____ _____    ______ ____
ROOT
ATOM      1  C   UNL     1       2.959   6.287  18.145  0.00  0.00    +0.000 A 
ATOM      2  C   UNL     1       1.963   5.321  17.941  0.00  0.00    +0.000 A 
ATOM      3  C   UNL     1       2.272   3.963  18.008  0.00  0.00    +0.000 A 
ATOM      4  C   UNL     1       3.588   3.553  18.244  0.00  0.00    +0.000 A 
ATOM      5 CL   UNL     1       3.915   1.868  18.377  0.00  0.00    +0.000 Cl
ATOM      6  C   UNL     1       4.592   4.517  18.408  0.00  0.00    +0.000 A 
ATOM      7  C   UNL     1       4.279   5.881  18.347  0.00  0.00    +0.000 A 
ENDROOT
BRANCH   1   9
ATOM      8  N   UNL     1       1.805   8.186  19.153  0.00  0.00    +0.000 N 
ATOM      9  C   UNL     1       2.575   7.721  18.106  0.00  0.00    +0.000 C 
ATOM     10  O   UNL     1       2.907   8.411  17.148  0.00  0.00    +0.000 OA
ATOM     11  H   UNL     1       1.577   7.612  19.953  0.00  0.00    +0.000 HD
BRANCH   8  12
ATOM     12  C   UNL     1       1.388   9.574  19.210  0.00  0.00    +0.000 C 
BRANCH  12  13
ATOM     13  C   UNL     1       0.096   9.787  20.033  0.00  0.00    +0.000 C 
BRANCH  13  14
ATOM     14  N   UNL     1      -0.282  11.197  20.302  0.00  0.00    +0.000 NA
BRANCH  14  16
ATOM     15  C   UNL     1       1.086  13.226  20.958  0.00  0.00    +0.000 C 
ATOM     16  C   UNL     1       0.814  12.116  19.945  0.00  0.00    +0.000 C 
ENDBRANCH  14  16
BRANCH  14  17
ATOM     17  C   UNL     1      -1.562  11.531  19.639  0.00  0.00    +0.000 C 
ATOM     18  C   UNL     1      -1.543  11.667  18.116  0.00  0.00    +0.000 C 
ENDBRANCH  14  17
ENDBRANCH  13  14
ENDBRANCH  12  13
ENDBRANCH   8  12
ENDBRANCH   1   9
BRANCH   6  19
ATOM     19  N   UNL     1       5.944   4.180  18.556  0.00  0.00    +0.000 N 
ATOM     20  C   UNL     1       7.001   4.749  17.875  0.00  0.00    +0.000 C 
ATOM     21  O   UNL     1       8.133   4.301  18.057  0.00  0.00    +0.000 OA
ATOM     22  H   UNL     1       6.217   3.600  19.343  0.00  0.00    +0.000 HD
BRANCH  20  23
ATOM     23  C   UNL     1       6.739   5.937  16.969  0.00  0.00    +0.000 C 
BRANCH  23  24
ATOM     24  O   UNL     1       7.441   5.665  15.757  0.00  0.00    +0.000 OA
BRANCH  24  25
ATOM     25  C   UNL     1       6.793   4.954  14.790  0.00  0.00    +0.000 A 
ATOM     26  C   UNL     1       5.526   4.385  14.898  0.00  0.00    +0.000 A 
ATOM     27  C   UNL     1       4.978   3.687  13.816  0.00  0.00    +0.000 A 
ATOM     28  C   UNL     1       5.700   3.560  12.630  0.00  0.00    +0.000 A 
ATOM     29 CL   UNL     1       5.019   2.700  11.304  0.00  0.00    +0.000 Cl
ATOM     30  C   UNL     1       6.968   4.119  12.516  0.00  0.00    +0.000 A 
ATOM     31  C   UNL     1       7.511   4.816  13.597  0.00  0.00    +0.000 A 
ENDBRANCH  24  25
ENDBRANCH  23  24
ENDBRANCH  20  23
ENDBRANCH   6  19
TORSDOF 10
ENDMDL
MODEL 2
REMARK VINA RESULT:      -7.5      1.062      1.185
REMARK  Name = 
REMARK  12 active torsions:
REMARK  status: ('A' for Active; 'I' for Inactive)
REMARK    1  A    between atoms: C_1  and  C_2
REMARK    2  A    between atoms: C_2  and  N_3
REMARK    3  A    between atoms: N_3  and  C_4
REMARK    4  A    between atoms: N_3  and  C_6
REMARK    5  A    between atoms: C_4  and  C_5
REMARK    6  A    between atoms: C_6  and  C_7
REMARK    7  A    between atoms: C_7  and  N_8
REMARK    8  A    between atoms: C_9  and  C_11
REMARK    9  A    between atoms: C_16  and  N_17
REMARK   10  A    between atoms: C_18  and  C_20
REMARK   11  A    between atoms: C_20  and  O_21
REMARK   12  A    between atoms: O_21  and  C_22
REMARK                            x       y       z     vdW  Elec       q    Type
REMARK                         _______ _______ _______ _____ _____    ______ ____
ROOT
ATOM      1  C   UNL     1       2.644   6.879  18.410  0.00  0.00    +0.000 A 
ATOM      2  C   UNL     1       1.925   5.833  17.814  0.00  0.00    +0.000 A 
ATOM      3  C   UNL     1       2.416   4.528  17.852  0.00  0.00    +0.000 A 
ATOM      4  C   UNL     1       3.648   4.258  18.456  0.00  0.00    +0.000 A 
ATOM      5 CL   UNL     1       4.188   2.625  18.533  0.00  0.00    +0.000 Cl
ATOM      6  C   UNL     1       4.386   5.310  19.017  0.00  0.00    +0.000 A 
ATOM      7  C   UNL     1       3.890   6.619  18.983  0.00  0.00    +0.000 A 
ENDROOT
BRANCH   1   9
ATOM      8  N   UNL     1       1.502   8.706  19.554  0.00  0.00    +0.000 N 
ATOM      9  C   UNL     1       2.061   8.245  18.381  0.00  0.00    +0.000 C 
ATOM     10  O   UNL     1       2.058   8.879  17.331  0.00  0.00    +0.000 OA
ATOM     11  H   UNL     1       1.551   8.185  20.419  0.00  0.00    +0.000 HD
BRANCH   8  12
ATOM     12  C   UNL     1       0.917  10.032  19.629  0.00  0.00    +0.000 C 
BRANCH  12  13
ATOM     13  C   UNL     1      -0.579  10.059  19.237  0.00  0.00    +0.000 C 
BRANCH  13  14
ATOM     14  N   UNL     1      -1.232  11.393  19.246  0.00  0.00    +0.000 NA
BRANCH  14  16
ATOM     15  C   UNL     1      -0.414  13.547  18.195  0.00  0.00    +0.000 C 
ATOM     16  C   UNL     1      -0.229  12.473  19.265  0.00  0.00    +0.000 C 
ENDBRANCH  14  16
BRANCH  14  17
ATOM     17  C   UNL     1      -2.195  11.510  18.128  0.00  0.00    +0.000 C 
ATOM     18  C   UNL     1      -2.165  10.412  17.065  0.00  0.00    +0.000 C 
ENDBRANCH  14  17
ENDBRANCH  13  14
ENDBRANCH  12  13
ENDBRANCH   8  12
ENDBRANCH   1   9
BRANCH   6  19
ATOM     19  N   UNL     1       5.667   5.128  19.554  0.00  0.00    +0.000 N 
ATOM     20  C   UNL     1       6.859   5.457  18.940  0.00  0.00    +0.000 C 
ATOM     21  O   UNL     1       7.915   5.174  19.506  0.00  0.00    +0.000 OA
ATOM     22  H   UNL     1       5.753   4.904  20.541  0.00  0.00    +0.000 HD
BRANCH  20  23
ATOM     23  C   UNL     1       6.825   6.199  17.618  0.00  0.00    +0.000 C 
BRANCH  23  24
ATOM     24  O   UNL     1       7.587   5.409  16.708  0.00  0.00    +0.000 OA
BRANCH  24  25
ATOM     25  C   UNL     1       6.936   4.852  15.646  0.00  0.00    +0.000 A 
ATOM     26  C   UNL     1       5.786   4.068  15.706  0.00  0.00    +0.000 A 
ATOM     27  C   UNL     1       5.217   3.569  14.529  0.00  0.00    +0.000 A 
ATOM     28  C   UNL     1       5.801   3.854  13.296  0.00  0.00    +0.000 A 
ATOM     29 CL   UNL     1       5.096   3.236  11.854  0.00  0.00    +0.000 Cl
ATOM     30  C   UNL     1       6.953   4.631  13.227  0.00  0.00    +0.000 A 
ATOM     31  C   UNL     1       7.517   5.129  14.403  0.00  0.00    +0.000 A 
ENDBRANCH  24  25
ENDBRANCH  23  24
ENDBRANCH  20  23
ENDBRANCH   6  19
TORSDOF 10
ENDMDL
MODEL 3
REMARK VINA RESULT:      -7.5      0.892      1.576
REMARK  Name = 
REMARK  12 active torsions:
REMARK  status: ('A' for Active; 'I' for Inactive)
REMARK    1  A    between atoms: C_1  and  C_2
REMARK    2  A    between atoms: C_2  and  N_3
REMARK    3  A    between atoms: N_3  and  C_4
REMARK    4  A    between atoms: N_3  and  C_6
REMARK    5  A    between atoms: C_4  and  C_5
REMARK    6  A    between atoms: C_6  and  C_7
REMARK    7  A    between atoms: C_7  and  N_8
REMARK    8  A    between atoms: C_9  and  C_11
REMARK    9  A    between atoms: C_16  and  N_17
REMARK   10  A    between atoms: C_18  and  C_20
REMARK   11  A    between atoms: C_20  and  O_21
REMARK   12  A    between atoms: O_21  and  C_22
REMARK                            x       y       z     vdW  Elec       q    Type
REMARK                         _______ _______ _______ _____ _____    ______ ____
ROOT
ATOM      1  C   UNL     1       2.878   6.536  18.201  0.00  0.00    +0.000 A 
ATOM      2  C   UNL     1       1.920   5.566  17.872  0.00  0.00    +0.000 A 
ATOM      3  C   UNL     1       2.251   4.211  17.894  0.00  0.00    +0.000 A 
ATOM      4  C   UNL     1       3.553   3.812  18.212  0.00  0.00    +0.000 A 
ATOM      5 CL   UNL     1       3.904   2.127  18.286  0.00  0.00    +0.000 Cl
ATOM      6  C   UNL     1       4.521   4.783  18.502  0.00  0.00    +0.000 A 
ATOM      7  C   UNL     1       4.186   6.143  18.485  0.00  0.00    +0.000 A 
ENDROOT
BRANCH   1   9
ATOM      8  N   UNL     1       1.480   8.324  19.098  0.00  0.00    +0.000 N 
ATOM      9  C   UNL     1       2.468   7.964  18.205  0.00  0.00    +0.000 C 
ATOM     10  O   UNL     1       2.975   8.740  17.403  0.00  0.00    +0.000 OA
ATOM     11  H   UNL     1       1.105   7.677  19.779  0.00  0.00    +0.000 HD
BRANCH   8  12
ATOM     12  C   UNL     1       1.020   9.697  19.184  0.00  0.00    +0.000 C 
BRANCH  12  13
ATOM     13  C   UNL     1       1.006  10.243  20.631  0.00  0.00    +0.000 C 
BRANCH  13  14
ATOM     14  N   UNL     1      -0.162  11.084  21.000  0.00  0.00    +0.000 NA
BRANCH  14  16
ATOM     15  C   UNL     1      -1.720  11.698  22.900  0.00  0.00    +0.000 C 
ATOM     16  C   UNL     1      -0.447  10.989  22.443  0.00  0.00    +0.000 C 
ENDBRANCH  14  16
BRANCH  14  17
ATOM     17  C   UNL     1       0.029  12.476  20.534  0.00  0.00    +0.000 C 
ATOM     18  C   UNL     1       1.391  13.119  20.799  0.00  0.00    +0.000 C 
ENDBRANCH  14  17
ENDBRANCH  13  14
ENDBRANCH  12  13
ENDBRANCH   8  12
ENDBRANCH   1   9
BRANCH   6  19
ATOM     19  N   UNL     1       5.864   4.461  18.738  0.00  0.00    +0.000 N 
ATOM     20  C   UNL     1       6.945   4.894  17.996  0.00  0.00    +0.000 C 
ATOM     21  O   UNL     1       8.066   4.471  18.279  0.00  0.00    +0.000 OA
ATOM     22  H   UNL     1       6.112   4.021  19.619  0.00  0.00    +0.000 HD
BRANCH  20  23
ATOM     23  C   UNL     1       6.721   5.912  16.894  0.00  0.00    +0.000 C 
BRANCH  23  24
ATOM     24  O   UNL     1       7.568   5.515  15.819  0.00  0.00    +0.000 OA
BRANCH  24  25
ATOM     25  C   UNL     1       6.988   4.940  14.726  0.00  0.00    +0.000 A 
ATOM     26  C   UNL     1       7.549   4.841  13.454  0.00  0.00    +0.000 A 
ATOM     27  C   UNL     1       6.840   4.213  12.424  0.00  0.00    +0.000 A 
ATOM     28  C   UNL     1       5.573   3.687  12.669  0.00  0.00    +0.000 A 
ATOM     29 CL   UNL     1       4.708   2.916  11.397  0.00  0.00    +0.000 Cl
ATOM     30  C   UNL     1       5.003   3.787  13.934  0.00  0.00    +0.000 A 
ATOM     31  C   UNL     1       5.713   4.413  14.960  0.00  0.00    +0.000 A 
ENDBRANCH  24  25
ENDBRANCH  23  24
ENDBRANCH  20  23
ENDBRANCH   6  19
TORSDOF 10
ENDMDL
MODEL 4
REMARK VINA RESULT:      -7.4      3.964      7.283
REMARK  Name = 
REMARK  12 active torsions:
REMARK  status: ('A' for Active; 'I' for Inactive)
REMARK    1  A    between atoms: C_1  and  C_2
REMARK    2  A    between atoms: C_2  and  N_3
REMARK    3  A    between atoms: N_3  and  C_4
REMARK    4  A    between atoms: N_3  and  C_6
REMARK    5  A    between atoms: C_4  and  C_5
REMARK    6  A    between atoms: C_6  and  C_7
REMARK    7  A    between atoms: C_7  and  N_8
REMARK    8  A    between atoms: C_9  and  C_11
REMARK    9  A    between atoms: C_16  and  N_17
REMARK   10  A    between atoms: C_18  and  C_20
REMARK   11  A    between atoms: C_20  and  O_21
REMARK   12  A    between atoms: O_21  and  C_22
REMARK                            x       y       z     vdW  Elec       q    Type
REMARK                         _______ _______ _______ _____ _____    ______ ____
ROOT
ATOM      1  C   UNL     1       6.098   5.446  17.328  0.00  0.00    +0.000 A 
ATOM      2  C   UNL     1       5.657   4.875  16.125  0.00  0.00    +0.000 A 
ATOM      3  C   UNL     1       4.589   3.979  16.119  0.00  0.00    +0.000 A 
ATOM      4  C   UNL     1       3.970   3.616  17.320  0.00  0.00    +0.000 A 
ATOM      5 CL   UNL     1       2.617   2.553  17.261  0.00  0.00    +0.000 Cl
ATOM      6  C   UNL     1       4.436   4.156  18.526  0.00  0.00    +0.000 A 
ATOM      7  C   UNL     1       5.506   5.060  18.531  0.00  0.00    +0.000 A 
ENDROOT
BRANCH   1   9
ATOM      8  N   UNL     1       7.484   7.116  18.444  0.00  0.00    +0.000 N 
ATOM      9  C   UNL     1       7.212   6.427  17.280  0.00  0.00    +0.000 C 
ATOM     10  O   UNL     1       7.805   6.619  16.223  0.00  0.00    +0.000 OA
ATOM     11  H   UNL     1       7.011   6.913  19.315  0.00  0.00    +0.000 HD
BRANCH   8  12
ATOM     12  C   UNL     1       8.559   8.087  18.500  0.00  0.00    +0.000 C 
BRANCH  12  13
ATOM     13  C   UNL     1       8.170   9.459  17.902  0.00  0.00    +0.000 C 
BRANCH  13  14
ATOM     14  N   UNL     1       8.533  10.651  18.711  0.00  0.00    +0.000 NA
BRANCH  14  16
ATOM     15  C   UNL     1       9.386  11.278  21.012  0.00  0.00    +0.000 C 
ATOM     16  C   UNL     1       9.373  10.274  19.862  0.00  0.00    +0.000 C 
ENDBRANCH  14  16
BRANCH  14  17
ATOM     17  C   UNL     1       9.146  11.694  17.858  0.00  0.00    +0.000 C 
ATOM     18  C   UNL     1      10.660  11.628  17.658  0.00  0.00    +0.000 C 
ENDBRANCH  14  17
ENDBRANCH  13  14
ENDBRANCH  12  13
ENDBRANCH   8  12
ENDBRANCH   1   9
BRANCH   6  19
ATOM     19  N   UNL     1       3.926   3.767  19.772  0.00  0.00    +0.000 N 
ATOM     20  C   UNL     1       2.839   4.325  20.414  0.00  0.00    +0.000 C 
ATOM     21  O   UNL     1       2.547   3.926  21.542  0.00  0.00    +0.000 OA
ATOM     22  H   UNL     1       4.249   2.894  20.179  0.00  0.00    +0.000 HD
BRANCH  20  23
ATOM     23  C   UNL     1       2.014   5.371  19.690  0.00  0.00    +0.000 C 
BRANCH  23  24
ATOM     24  O   UNL     1       2.726   6.598  19.833  0.00  0.00    +0.000 OA
BRANCH  24  25
ATOM     25  C   UNL     1       2.102   7.748  19.448  0.00  0.00    +0.000 A 
ATOM     26  C   UNL     1       2.130   8.312  18.174  0.00  0.00    +0.000 A 
ATOM     27  C   UNL     1       1.432   9.496  17.917  0.00  0.00    +0.000 A 
ATOM     28  C   UNL     1       0.707  10.114  18.936  0.00  0.00    +0.000 A 
ATOM     29 CL   UNL     1      -0.150  11.570  18.612  0.00  0.00    +0.000 Cl
ATOM     30  C   UNL     1       0.677   9.561  20.212  0.00  0.00    +0.000 A 
ATOM     31  C   UNL     1       1.375   8.378  20.464  0.00  0.00    +0.000 A 
ENDBRANCH  24  25
ENDBRANCH  23  24
ENDBRANCH  20  23
ENDBRANCH   6  19
TORSDOF 10
ENDMDL
MODEL 5
REMARK VINA RESULT:      -7.4      1.084      1.483
REMARK  Name = 
REMARK  12 active torsions:
REMARK  status: ('A' for Active; 'I' for Inactive)
REMARK    1  A    between atoms: C_1  and  C_2
REMARK    2  A    between atoms: C_2  and  N_3
REMARK    3  A    between atoms: N_3  and  C_4
REMARK    4  A    between atoms: N_3  and  C_6
REMARK    5  A    between atoms: C_4  and  C_5
REMARK    6  A    between atoms: C_6  and  C_7
REMARK    7  A    between atoms: C_7  and  N_8
REMARK    8  A    between atoms: C_9  and  C_11
REMARK    9  A    between atoms: C_16  and  N_17
REMARK   10  A    between atoms: C_18  and  C_20
REMARK   11  A    between atoms: C_20  and  O_21
REMARK   12  A    between atoms: O_21  and  C_22
REMARK                            x       y       z     vdW  Elec       q    Type
REMARK                         _______ _______ _______ _____ _____    ______ ____
ROOT
ATOM      1  C   UNL     1       2.875   5.975  18.581  0.00  0.00    +0.000 A 
ATOM      2  C   UNL     1       1.970   5.013  18.111  0.00  0.00    +0.000 A 
ATOM      3  C   UNL     1       2.399   3.714  17.839  0.00  0.00    +0.000 A 
ATOM      4  C   UNL     1       3.745   3.371  17.999  0.00  0.00    +0.000 A 
ATOM      5 CL   UNL     1       4.221   1.742  17.709  0.00  0.00    +0.000 Cl
ATOM      6  C   UNL     1       4.658   4.343  18.431  0.00  0.00    +0.000 A 
ATOM      7  C   UNL     1       4.225   5.646  18.709  0.00  0.00    +0.000 A 
ENDROOT
BRANCH   1   9
ATOM      8  N   UNL     1       2.213   8.203  17.837  0.00  0.00    +0.000 N 
ATOM      9  C   UNL     1       2.364   7.334  18.898  0.00  0.00    +0.000 C 
ATOM     10  O   UNL     1       2.145   7.641  20.064  0.00  0.00    +0.000 OA
ATOM     11  H   UNL     1       2.360   7.917  16.878  0.00  0.00    +0.000 HD
BRANCH   8  12
ATOM     12  C   UNL     1       1.711   9.548  18.043  0.00  0.00    +0.000 C 
BRANCH  12  13
ATOM     13  C   UNL     1       1.158   9.778  19.469  0.00  0.00    +0.000 C 
BRANCH  13  14
ATOM     14  N   UNL     1      -0.272  10.166  19.561  0.00  0.00    +0.000 NA
BRANCH  14  16
ATOM     15  C   UNL     1       0.137   9.877  22.044  0.00  0.00    +0.000 C 
ATOM     16  C   UNL     1      -0.618  10.595  20.928  0.00  0.00    +0.000 C 
ENDBRANCH  14  16
BRANCH  14  17
ATOM     17  C   UNL     1      -0.606  11.175  18.531  0.00  0.00    +0.000 C 
ATOM     18  C   UNL     1      -1.654  12.226  18.900  0.00  0.00    +0.000 C 
ENDBRANCH  14  17
ENDBRANCH  13  14
ENDBRANCH  12  13
ENDBRANCH   8  12
ENDBRANCH   1   9
BRANCH   6  19
ATOM     19  N   UNL     1       6.034   4.096  18.524  0.00  0.00    +0.000 N 
ATOM     20  C   UNL     1       7.021   4.704  17.775  0.00  0.00    +0.000 C 
ATOM     21  O   UNL     1       8.186   4.334  17.917  0.00  0.00    +0.000 OA
ATOM     22  H   UNL     1       6.380   3.563  19.317  0.00  0.00    +0.000 HD
BRANCH  20  23
ATOM     23  C   UNL     1       6.643   5.839  16.842  0.00  0.00    +0.000 C 
BRANCH  23  24
ATOM     24  O   UNL     1       7.482   5.699  15.698  0.00  0.00    +0.000 OA
BRANCH  24  25
ATOM     25  C   UNL     1       6.994   5.009  14.628  0.00  0.00    +0.000 A 
ATOM     26  C   UNL     1       7.653   4.794  13.419  0.00  0.00    +0.000 A 
ATOM     27  C   UNL     1       7.033   4.055  12.406  0.00  0.00    +0.000 A 
ATOM     28  C   UNL     1       5.756   3.533  12.604  0.00  0.00    +0.000 A 
ATOM     29 CL   UNL     1       5.000   2.625  11.354  0.00  0.00    +0.000 Cl
ATOM     30  C   UNL     1       5.088   3.748  13.806  0.00  0.00    +0.000 A 
ATOM     31  C   UNL     1       5.711   4.485  14.815  0.00  0.00    +0.000 A 
ENDBRANCH  24  25
ENDBRANCH  23  24
ENDBRANCH  20  23
ENDBRANCH   6  19
TORSDOF 10
ENDMDL
MODEL 6
REMARK VINA RESULT:      -7.4      1.079      1.631
REMARK  Name = 
REMARK  12 active torsions:
REMARK  status: ('A' for Active; 'I' for Inactive)
REMARK    1  A    between atoms: C_1  and  C_2
REMARK    2  A    between atoms: C_2  and  N_3
REMARK    3  A    between atoms: N_3  and  C_4
REMARK    4  A    between atoms: N_3  and  C_6
REMARK    5  A    between atoms: C_4  and  C_5
REMARK    6  A    between atoms: C_6  and  C_7
REMARK    7  A    between atoms: C_7  and  N_8
REMARK    8  A    between atoms: C_9  and  C_11
REMARK    9  A    between atoms: C_16  and  N_17
REMARK   10  A    between atoms: C_18  and  C_20
REMARK   11  A    between atoms: C_20  and  O_21
REMARK   12  A    between atoms: O_21  and  C_22
REMARK                            x       y       z     vdW  Elec       q    Type
REMARK                         _______ _______ _______ _____ _____    ______ ____
ROOT
ATOM      1  C   UNL     1       2.669   5.847  19.151  0.00  0.00    +0.000 A 
ATOM      2  C   UNL     1       1.844   5.018  18.377  0.00  0.00    +0.000 A 
ATOM      3  C   UNL     1       2.357   3.862  17.790  0.00  0.00    +0.000 A 
ATOM      4  C   UNL     1       3.709   3.539  17.939  0.00  0.00    +0.000 A 
ATOM      5 CL   UNL     1       4.287   2.072  17.248  0.00  0.00    +0.000 Cl
ATOM      6  C   UNL     1       4.543   4.388  18.679  0.00  0.00    +0.000 A 
ATOM      7  C   UNL     1       4.027   5.546  19.273  0.00  0.00    +0.000 A 
ENDROOT
BRANCH   1   9
ATOM      8  N   UNL     1       1.959   8.178  19.010  0.00  0.00    +0.000 N 
ATOM      9  C   UNL     1       2.069   7.046  19.791  0.00  0.00    +0.000 C 
ATOM     10  O   UNL     1       1.745   7.002  20.973  0.00  0.00    +0.000 OA
ATOM     11  H   UNL     1       2.194   8.181  18.026  0.00  0.00    +0.000 HD
BRANCH   8  12
ATOM     12  C   UNL     1       1.377   9.395  19.542  0.00  0.00    +0.000 C 
BRANCH  12  13
ATOM     13  C   UNL     1       0.744  10.292  18.453  0.00  0.00    +0.000 C 
BRANCH  13  14
ATOM     14  N   UNL     1       0.674  11.743  18.761  0.00  0.00    +0.000 NA
BRANCH  14  16
ATOM     15  C   UNL     1      -1.827  11.393  18.962  0.00  0.00    +0.000 C 
ATOM     16  C   UNL     1      -0.673  12.278  18.493  0.00  0.00    +0.000 C 
ENDBRANCH  14  16
BRANCH  14  17
ATOM     17  C   UNL     1       1.142  12.007  20.140  0.00  0.00    +0.000 C 
ATOM     18  C   UNL     1       0.966  13.428  20.676  0.00  0.00    +0.000 C 
ENDBRANCH  14  17
ENDBRANCH  13  14
ENDBRANCH  12  13
ENDBRANCH   8  12
ENDBRANCH   1   9
BRANCH   6  19
ATOM     19  N   UNL     1       5.924   4.176  18.792  0.00  0.00    +0.000 N 
ATOM     20  C   UNL     1       6.904   4.798  18.046  0.00  0.00    +0.000 C 
ATOM     21  O   UNL     1       8.077   4.459  18.208  0.00  0.00    +0.000 OA
ATOM     22  H   UNL     1       6.273   3.663  19.596  0.00  0.00    +0.000 HD
BRANCH  20  23
ATOM     23  C   UNL     1       6.510   5.910  17.093  0.00  0.00    +0.000 C 
BRANCH  23  24
ATOM     24  O   UNL     1       7.274   5.698  15.908  0.00  0.00    +0.000 OA
BRANCH  24  25
ATOM     25  C   UNL     1       6.702   4.981  14.899  0.00  0.00    +0.000 A 
ATOM     26  C   UNL     1       5.432   4.408  14.915  0.00  0.00    +0.000 A 
ATOM     27  C   UNL     1       4.968   3.703  13.799  0.00  0.00    +0.000 A 
ATOM     28  C   UNL     1       5.776   3.574  12.670  0.00  0.00    +0.000 A 
ATOM     29 CL   UNL     1       5.197   2.706  11.302  0.00  0.00    +0.000 Cl
ATOM     30  C   UNL     1       7.047   4.137  12.648  0.00  0.00    +0.000 A 
ATOM     31  C   UNL     1       7.507   4.841  13.762  0.00  0.00    +0.000 A 
ENDBRANCH  24  25
ENDBRANCH  23  24
ENDBRANCH  20  23
ENDBRANCH   6  19
TORSDOF 10
ENDMDL
MODEL 7
REMARK VINA RESULT:      -7.3      4.156      7.120
REMARK  Name = 
REMARK  12 active torsions:
REMARK  status: ('A' for Active; 'I' for Inactive)
REMARK    1  A    between atoms: C_1  and  C_2
REMARK    2  A    between atoms: C_2  and  N_3
REMARK    3  A    between atoms: N_3  and  C_4
REMARK    4  A    between atoms: N_3  and  C_6
REMARK    5  A    between atoms: C_4  and  C_5
REMARK    6  A    between atoms: C_6  and  C_7
REMARK    7  A    between atoms: C_7  and  N_8
REMARK    8  A    between atoms: C_9  and  C_11
REMARK    9  A    between atoms: C_16  and  N_17
REMARK   10  A    between atoms: C_18  and  C_20
REMARK   11  A    between atoms: C_20  and  O_21
REMARK   12  A    between atoms: O_21  and  C_22
REMARK                            x       y       z     vdW  Elec       q    Type
REMARK                         _______ _______ _______ _____ _____    ______ ____
ROOT
ATOM      1  C   UNL     1       6.357   5.905  17.797  0.00  0.00    +0.000 A 
ATOM      2  C   UNL     1       5.815   5.851  16.504  0.00  0.00    +0.000 A 
ATOM      3  C   UNL     1       4.748   4.998  16.222  0.00  0.00    +0.000 A 
ATOM      4  C   UNL     1       4.233   4.164  17.218  0.00  0.00    +0.000 A 
ATOM      5 CL   UNL     1       2.878   3.170  16.843  0.00  0.00    +0.000 Cl
ATOM      6  C   UNL     1       4.800   4.189  18.500  0.00  0.00    +0.000 A 
ATOM      7  C   UNL     1       5.868   5.049  18.785  0.00  0.00    +0.000 A 
ENDROOT
BRANCH   1   9
ATOM      8  N   UNL     1       7.469   8.025  17.323  0.00  0.00    +0.000 N 
ATOM      9  C   UNL     1       7.465   6.859  18.061  0.00  0.00    +0.000 C 
ATOM     10  O   UNL     1       8.337   6.563  18.870  0.00  0.00    +0.000 OA
ATOM     11  H   UNL     1       6.719   8.268  16.691  0.00  0.00    +0.000 HD
BRANCH   8  12
ATOM     12  C   UNL     1       8.504   9.023  17.517  0.00  0.00    +0.000 C 
BRANCH  12  13
ATOM     13  C   UNL     1       8.664   9.453  18.994  0.00  0.00    +0.000 C 
BRANCH  13  14
ATOM     14  N   UNL     1       8.870  10.904  19.233  0.00  0.00    +0.000 NA
BRANCH  14  16
ATOM     15  C   UNL     1      11.246  11.573  19.800  0.00  0.00    +0.000 C 
ATOM     16  C   UNL     1       9.870  11.130  20.292  0.00  0.00    +0.000 C 
ENDBRANCH  14  16
BRANCH  14  17
ATOM     17  C   UNL     1       9.194  11.601  17.968  0.00  0.00    +0.000 C 
ATOM     18  C   UNL     1       8.580  12.985  17.758  0.00  0.00    +0.000 C 
ENDBRANCH  14  17
ENDBRANCH  13  14
ENDBRANCH  12  13
ENDBRANCH   8  12
ENDBRANCH   1   9
BRANCH   6  19
ATOM     19  N   UNL     1       4.397   3.316  19.519  0.00  0.00    +0.000 N 
ATOM     20  C   UNL     1       3.242   3.421  20.267  0.00  0.00    +0.000 C 
ATOM     21  O   UNL     1       3.052   2.617  21.181  0.00  0.00    +0.000 OA
ATOM     22  H   UNL     1       4.881   2.429  19.621  0.00  0.00    +0.000 HD
BRANCH  20  23
ATOM     23  C   UNL     1       2.225   4.486  19.906  0.00  0.00    +0.000 C 
BRANCH  23  24
ATOM     24  O   UNL     1       2.629   5.663  20.601  0.00  0.00    +0.000 OA
BRANCH  24  25
ATOM     25  C   UNL     1       2.170   6.864  20.145  0.00  0.00    +0.000 A 
ATOM     26  C   UNL     1       1.426   7.790  20.873  0.00  0.00    +0.000 A 
ATOM     27  C   UNL     1       1.029   8.992  20.277  0.00  0.00    +0.000 A 
ATOM     28  C   UNL     1       1.377   9.264  18.955  0.00  0.00    +0.000 A 
ATOM     29 CL   UNL     1       0.885  10.746  18.230  0.00  0.00    +0.000 Cl
ATOM     30  C   UNL     1       2.115   8.344  18.219  0.00  0.00    +0.000 A 
ATOM     31  C   UNL     1       2.511   7.145  18.817  0.00  0.00    +0.000 A 
ENDBRANCH  24  25
ENDBRANCH  23  24
ENDBRANCH  20  23
ENDBRANCH   6  19
TORSDOF 10
ENDMDL
MODEL 8
REMARK VINA RESULT:      -7.3      1.125      1.601
REMARK  Name = 
REMARK  12 active torsions:
REMARK  status: ('A' for Active; 'I' for Inactive)
REMARK    1  A    between atoms: C_1  and  C_2
REMARK    2  A    between atoms: C_2  and  N_3
REMARK    3  A    between atoms: N_3  and  C_4
REMARK    4  A    between atoms: N_3  and  C_6
REMARK    5  A    between atoms: C_4  and  C_5
REMARK    6  A    between atoms: C_6  and  C_7
REMARK    7  A    between atoms: C_7  and  N_8
REMARK    8  A    between atoms: C_9  and  C_11
REMARK    9  A    between atoms: C_16  and  N_17
REMARK   10  A    between atoms: C_18  and  C_20
REMARK   11  A    between atoms: C_20  and  O_21
REMARK   12  A    between atoms: O_21  and  C_22
REMARK                            x       y       z     vdW  Elec       q    Type
REMARK                         _______ _______ _______ _____ _____    ______ ____
ROOT
ATOM      1  C   UNL     1       2.697   6.867  18.310  0.00  0.00    +0.000 A 
ATOM      2  C   UNL     1       1.908   5.796  17.864  0.00  0.00    +0.000 A 
ATOM      3  C   UNL     1       2.368   4.484  17.983  0.00  0.00    +0.000 A 
ATOM      4  C   UNL     1       3.635   4.229  18.516  0.00  0.00    +0.000 A 
ATOM      5 CL   UNL     1       4.138   2.593  18.700  0.00  0.00    +0.000 Cl
ATOM      6  C   UNL     1       4.440   5.302  18.925  0.00  0.00    +0.000 A 
ATOM      7  C   UNL     1       3.976   6.618  18.811  0.00  0.00    +0.000 A 
ENDROOT
BRANCH   1   9
ATOM      8  N   UNL     1       1.531   8.755  19.323  0.00  0.00    +0.000 N 
ATOM      9  C   UNL     1       2.149   8.243  18.201  0.00  0.00    +0.000 C 
ATOM     10  O   UNL     1       2.224   8.841  17.133  0.00  0.00    +0.000 OA
ATOM     11  H   UNL     1       1.517   8.262  20.206  0.00  0.00    +0.000 HD
BRANCH   8  12
ATOM     12  C   UNL     1       0.974  10.094  19.319  0.00  0.00    +0.000 C 
BRANCH  12  13
ATOM     13  C   UNL     1       0.009  10.355  20.500  0.00  0.00    +0.000 C 
BRANCH  13  14
ATOM     14  N   UNL     1      -0.453  11.756  20.668  0.00  0.00    +0.000 NA
BRANCH  14  16
ATOM     15  C   UNL     1      -0.599  13.921  19.362  0.00  0.00    +0.000 C 
ATOM     16  C   UNL     1      -0.688  12.397  19.362  0.00  0.00    +0.000 C 
ENDBRANCH  14  16
BRANCH  14  17
ATOM     17  C   UNL     1      -1.629  11.813  21.565  0.00  0.00    +0.000 C 
ATOM     18  C   UNL     1      -1.366  12.120  23.040  0.00  0.00    +0.000 C 
ENDBRANCH  14  17
ENDBRANCH  13  14
ENDBRANCH  12  13
ENDBRANCH   8  12
ENDBRANCH   1   9
BRANCH   6  19
ATOM     19  N   UNL     1       5.753   5.127  19.381  0.00  0.00    +0.000 N 
ATOM     20  C   UNL     1       6.903   5.391  18.665  0.00  0.00    +0.000 C 
ATOM     21  O   UNL     1       7.992   5.122  19.172  0.00  0.00    +0.000 OA
ATOM     22  H   UNL     1       5.906   4.962  20.372  0.00  0.00    +0.000 HD
BRANCH  20  23
ATOM     23  C   UNL     1       6.787   6.050  17.304  0.00  0.00    +0.000 C 
BRANCH  23  24
ATOM     24  O   UNL     1       7.577   5.259  16.419  0.00  0.00    +0.000 OA
BRANCH  24  25
ATOM     25  C   UNL     1       6.998   4.823  15.264  0.00  0.00    +0.000 A 
ATOM     26  C   UNL     1       7.554   4.892  13.988  0.00  0.00    +0.000 A 
ATOM     27  C   UNL     1       6.848   4.394  12.888  0.00  0.00    +0.000 A 
ATOM     28  C   UNL     1       5.586   3.829  13.067  0.00  0.00    +0.000 A 
ATOM     29 CL   UNL     1       4.724   3.219  11.708  0.00  0.00    +0.000 Cl
ATOM     30  C   UNL     1       5.021   3.761  14.335  0.00  0.00    +0.000 A 
ATOM     31  C   UNL     1       5.729   4.257  15.431  0.00  0.00    +0.000 A 
ENDBRANCH  24  25
ENDBRANCH  23  24
ENDBRANCH  20  23
ENDBRANCH   6  19
TORSDOF 10
ENDMDL
MODEL 9
REMARK VINA RESULT:      -7.3      3.206      4.063
REMARK  Name = 
REMARK  12 active torsions:
REMARK  status: ('A' for Active; 'I' for Inactive)
REMARK    1  A    between atoms: C_1  and  C_2
REMARK    2  A    between atoms: C_2  and  N_3
REMARK    3  A    between atoms: N_3  and  C_4
REMARK    4  A    between atoms: N_3  and  C_6
REMARK    5  A    between atoms: C_4  and  C_5
REMARK    6  A    between atoms: C_6  and  C_7
REMARK    7  A    between atoms: C_7  and  N_8
REMARK    8  A    between atoms: C_9  and  C_11
REMARK    9  A    between atoms: C_16  and  N_17
REMARK   10  A    between atoms: C_18  and  C_20
REMARK   11  A    between atoms: C_20  and  O_21
REMARK   12  A    between atoms: O_21  and  C_22
REMARK                            x       y       z     vdW  Elec       q    Type
REMARK                         _______ _______ _______ _____ _____    ______ ____
ROOT
ATOM      1  C   UNL     1       2.033   7.392  19.028  0.00  0.00    +0.000 A 
ATOM      2  C   UNL     1       1.602   7.363  20.363  0.00  0.00    +0.000 A 
ATOM      3  C   UNL     1       1.553   6.157  21.062  0.00  0.00    +0.000 A 
ATOM      4  C   UNL     1       1.900   4.961  20.426  0.00  0.00    +0.000 A 
ATOM      5 CL   UNL     1       1.882   3.504  21.343  0.00  0.00    +0.000 Cl
ATOM      6  C   UNL     1       2.293   4.985  19.080  0.00  0.00    +0.000 A 
ATOM      7  C   UNL     1       2.347   6.197  18.380  0.00  0.00    +0.000 A 
ENDROOT
BRANCH   1   9
ATOM      8  N   UNL     1       1.507   9.774  18.967  0.00  0.00    +0.000 N 
ATOM      9  C   UNL     1       2.109   8.705  18.337  0.00  0.00    +0.000 C 
ATOM     10  O   UNL     1       2.650   8.779  17.238  0.00  0.00    +0.000 OA
ATOM     11  H   UNL     1       1.103   9.700  19.891  0.00  0.00    +0.000 HD
BRANCH   8  12
ATOM     12  C   UNL     1       1.537  11.098  18.376  0.00  0.00    +0.000 C 
BRANCH  12  13
ATOM     13  C   UNL     1       1.221  12.223  19.390  0.00  0.00    +0.000 C 
BRANCH  13  14
ATOM     14  N   UNL     1       1.923  13.513  19.174  0.00  0.00    +0.000 NA
BRANCH  14  16
ATOM     15  C   UNL     1       4.071  14.455  18.216  0.00  0.00    +0.000 C 
ATOM     16  C   UNL     1       2.997  13.371  18.174  0.00  0.00    +0.000 C 
ENDBRANCH  14  16
BRANCH  14  17
ATOM     17  C   UNL     1       0.957  14.585  18.842  0.00  0.00    +0.000 C 
ATOM     18  C   UNL     1      -0.470  14.421  19.364  0.00  0.00    +0.000 C 
ENDBRANCH  14  17
ENDBRANCH  13  14
ENDBRANCH  12  13
ENDBRANCH   8  12
ENDBRANCH   1   9
BRANCH   6  19
ATOM     19  N   UNL     1       2.564   3.818  18.355  0.00  0.00    +0.000 N 
ATOM     20  C   UNL     1       3.777   3.160  18.299  0.00  0.00    +0.000 C 
ATOM     21  O   UNL     1       3.887   2.181  17.561  0.00  0.00    +0.000 OA
ATOM     22  H   UNL     1       1.786   3.291  17.971  0.00  0.00    +0.000 HD
BRANCH  20  23
ATOM     23  C   UNL     1       4.912   3.634  19.187  0.00  0.00    +0.000 C 
BRANCH  23  24
ATOM     24  O   UNL     1       6.028   3.828  18.321  0.00  0.00    +0.000 OA
BRANCH  24  25
ATOM     25  C   UNL     1       6.458   5.105  18.110  0.00  0.00    +0.000 A 
ATOM     26  C   UNL     1       5.863   6.043  17.269  0.00  0.00    +0.000 A 
ATOM     27  C   UNL     1       6.408   7.327  17.155  0.00  0.00    +0.000 A 
ATOM     28  C   UNL     1       7.548   7.667  17.882  0.00  0.00    +0.000 A 
ATOM     29 CL   UNL     1       8.212   9.248  17.736  0.00  0.00    +0.000 Cl
ATOM     30  C   UNL     1       8.152   6.735  18.719  0.00  0.00    +0.000 A 
ATOM     31  C   UNL     1       7.604   5.456  18.831  0.00  0.00    +0.000 A 
ENDBRANCH  24  25
ENDBRANCH  23  24
ENDBRANCH  20  23
ENDBRANCH   6  19
TORSDOF 10
ENDMDL
