MODEL 1
REMARK VINA RESULT:      -7.4      0.000      0.000
REMARK  Name = 
REMARK  9 active torsions:
REMARK  status: ('A' for Active; 'I' for Inactive)
REMARK    1  A    between atoms: C_2  and  C_3
REMARK    2  A    between atoms: C_3  and  C_4
REMARK    3  A    between atoms: C_4  and  C_5
REMARK    4  A    between atoms: C_5  and  C_6
REMARK    5  A    between atoms: N_11  and  C_12
REMARK    6  A    between atoms: C_12  and  C_13
REMARK    7  A    between atoms: C_15  and  C_16
REMARK    8  A    between atoms: C_16  and  O_17
REMARK    9  A    between atoms: O_17  and  C_18
REMARK                            x       y       z     vdW  Elec       q    Type
REMARK                         _______ _______ _______ _____ _____    ______ ____
ROOT
ATOM      1  C   UNL     1       7.603   5.988  17.897  0.00  0.00    +0.000 A 
ATOM      2  N   UNL     1       8.114   6.767  18.833  0.00  0.00    +0.000 NA
ATOM      3  C   UNL     1       8.271   7.971  18.175  0.00  0.00    +0.000 A 
ATOM      4  N   UNL     1       7.900   7.942  16.885  0.00  0.00    +0.000 NA
ATOM      5  O   UNL     1       7.452   6.629  16.699  0.00  0.00    +0.000 OA
ENDROOT
BRANCH   1   6
ATOM      6  C   UNL     1       7.057   4.588  18.034  0.00  0.00    +0.000 C 
BRANCH   6  11
ATOM      7  C   UNL     1       4.816   4.312  16.895  0.00  0.00    +0.000 C 
ATOM      8  C   UNL     1       4.504   5.782  16.557  0.00  0.00    +0.000 C 
ATOM      9  C   UNL     1       4.260   6.448  17.896  0.00  0.00    +0.000 C 
ATOM     10  C   UNL     1       5.014   5.597  18.907  0.00  0.00    +0.000 C 
ATOM     11  N   UNL     1       5.587   4.434  18.193  0.00  0.00    +0.000 NA
BRANCH   7  12
ATOM     12  C   UNL     1       5.585   3.650  15.699  0.00  0.00    +0.000 C 
BRANCH  12  14
ATOM     13  C   UNL     1       6.919   4.710  13.845  0.00  0.00    +0.000 C 
ATOM     14  C   UNL     1       5.745   4.490  14.454  0.00  0.00    +0.000 C 
ENDBRANCH  12  14
ENDBRANCH   7  12
BRANCH   7  15
ATOM     15  C   UNL     1       3.464   3.544  17.161  0.00  0.00    +0.000 C 
BRANCH  15  16
ATOM     16  C   UNL     1       3.574   2.263  17.954  0.00  0.00    +0.000 C 
ATOM     17  C   UNL     1       2.876   2.000  19.064  0.00  0.00    +0.000 C 
ENDBRANCH  15  16
ENDBRANCH   7  15
ENDBRANCH   6  11
ENDBRANCH   1   6
BRANCH   3  18
ATOM     18  C   UNL     1       8.633   9.250  18.879  0.00  0.00    +0.000 C 
BRANCH  18  19
ATOM     19  O   UNL     1       8.861  10.344  17.978  0.00  0.00    +0.000 OA
BRANCH  19  20
ATOM     20  C   UNL     1       9.664  11.356  18.441  0.00  0.00    +0.000 A 
ATOM     21  C   UNL     1      10.267  11.114  19.679  0.00  0.00    +0.000 A 
ATOM     22  C   UNL     1      11.127  12.053  20.258  0.00  0.00    +0.000 A 
ATOM     23  C   UNL     1      11.406  13.241  19.593  0.00  0.00    +0.000 A 
ATOM     24  C   UNL     1      10.828  13.484  18.344  0.00  0.00    +0.000 A 
ATOM     25  C   UNL     1       9.958  12.547  17.771  0.00  0.00    +0.000 A 
ENDBRANCH  19  20
ENDBRANCH  18  19
ENDBRANCH   3  18
TORSDOF 9
ENDMDL
MODEL 2
REMARK VINA RESULT:      -7.3      0.555      1.039
REMARK  Name = 
REMARK  9 active torsions:
REMARK  status: ('A' for Active; 'I' for Inactive)
REMARK    1  A    between atoms: C_2  and  C_3
REMARK    2  A    between atoms: C_3  and  C_4
REMARK    3  A    between atoms: C_4  and  C_5
REMARK    4  A    between atoms: C_5  and  C_6
REMARK    5  A    between atoms: N_11  and  C_12
REMARK    6  A    between atoms: C_12  and  C_13
REMARK    7  A    between atoms: C_15  and  C_16
REMARK    8  A    between atoms: C_16  and  O_17
REMARK    9  A    between atoms: O_17  and  C_18
REMARK                            x       y       z     vdW  Elec       q    Type
REMARK                         _______ _______ _______ _____ _____    ______ ____
ROOT
ATOM      1  C   UNL     1       7.525   6.022  17.892  0.00  0.00    +0.000 A 
ATOM      2  N   UNL     1       8.088   6.761  18.829  0.00  0.00    +0.000 NA
ATOM      3  C   UNL     1       8.213   7.991  18.214  0.00  0.00    +0.000 A 
ATOM      4  N   UNL     1       7.772   8.016  16.946  0.00  0.00    +0.000 NA
ATOM      5  O   UNL     1       7.310   6.712  16.731  0.00  0.00    +0.000 OA
ENDROOT
BRANCH   1   6
ATOM      6  C   UNL     1       6.983   4.618  18.000  0.00  0.00    +0.000 C 
BRANCH   6  11
ATOM      7  C   UNL     1       4.643   4.300  17.095  0.00  0.00    +0.000 C 
ATOM      8  C   UNL     1       4.286   5.759  16.755  0.00  0.00    +0.000 C 
ATOM      9  C   UNL     1       4.171   6.457  18.094  0.00  0.00    +0.000 C 
ATOM     10  C   UNL     1       5.028   5.636  19.046  0.00  0.00    +0.000 C 
ATOM     11  N   UNL     1       5.537   4.459  18.307  0.00  0.00    +0.000 NA
BRANCH   7  12
ATOM     12  C   UNL     1       5.296   3.613  15.845  0.00  0.00    +0.000 C 
BRANCH  12  14
ATOM     13  C   UNL     1       6.606   4.412  13.851  0.00  0.00    +0.000 C 
ATOM     14  C   UNL     1       5.525   4.491  14.637  0.00  0.00    +0.000 C 
ENDBRANCH  12  14
ENDBRANCH   7  12
BRANCH   7  15
ATOM     15  C   UNL     1       3.330   3.531  17.512  0.00  0.00    +0.000 C 
BRANCH  15  16
ATOM     16  C   UNL     1       3.480   2.519  18.624  0.00  0.00    +0.000 C 
ATOM     17  C   UNL     1       3.748   1.222  18.434  0.00  0.00    +0.000 C 
ENDBRANCH  15  16
ENDBRANCH   7  15
ENDBRANCH   6  11
ENDBRANCH   1   6
BRANCH   3  18
ATOM     18  C   UNL     1       8.617   9.240  18.949  0.00  0.00    +0.000 C 
BRANCH  18  19
ATOM     19  O   UNL     1       9.095  10.276  18.079  0.00  0.00    +0.000 OA
BRANCH  19  20
ATOM     20  C   UNL     1      10.081  11.087  18.584  0.00  0.00    +0.000 A 
ATOM     21  C   UNL     1      10.884  11.710  17.623  0.00  0.00    +0.000 A 
ATOM     22  C   UNL     1      11.914  12.579  17.999  0.00  0.00    +0.000 A 
ATOM     23  C   UNL     1      12.140  12.847  19.344  0.00  0.00    +0.000 A 
ATOM     24  C   UNL     1      11.329  12.249  20.312  0.00  0.00    +0.000 A 
ATOM     25  C   UNL     1      10.305  11.369  19.934  0.00  0.00    +0.000 A 
ENDBRANCH  19  20
ENDBRANCH  18  19
ENDBRANCH   3  18
TORSDOF 9
ENDMDL
MODEL 3
REMARK VINA RESULT:      -7.3      1.612      2.878
REMARK  Name = 
REMARK  9 active torsions:
REMARK  status: ('A' for Active; 'I' for Inactive)
REMARK    1  A    between atoms: C_2  and  C_3
REMARK    2  A    between atoms: C_3  and  C_4
REMARK    3  A    between atoms: C_4  and  C_5
REMARK    4  A    between atoms: C_5  and  C_6
REMARK    5  A    between atoms: N_11  and  C_12
REMARK    6  A    between atoms: C_12  and  C_13
REMARK    7  A    between atoms: C_15  and  C_16
REMARK    8  A    between atoms: C_16  and  O_17
REMARK    9  A    between atoms: O_17  and  C_18
REMARK                            x       y       z     vdW  Elec       q    Type
REMARK                         _______ _______ _______ _____ _____    ______ ____
ROOT
ATOM      1  C   UNL     1       6.057   6.519  16.788  0.00  0.00    +0.000 A 
ATOM      2  N   UNL     1       6.132   7.620  17.512  0.00  0.00    +0.000 NA
ATOM      3  C   UNL     1       7.453   7.993  17.364  0.00  0.00    +0.000 A 
ATOM      4  N   UNL     1       8.177   7.155  16.605  0.00  0.00    +0.000 NA
ATOM      5  O   UNL     1       7.252   6.178  16.217  0.00  0.00    +0.000 OA
ENDROOT
BRANCH   1   6
ATOM      6  C   UNL     1       4.833   5.719  16.417  0.00  0.00    +0.000 C 
BRANCH   6  11
ATOM      7  C   UNL     1       3.373   4.871  18.300  0.00  0.00    +0.000 C 
ATOM      8  C   UNL     1       4.173   5.386  19.512  0.00  0.00    +0.000 C 
ATOM      9  C   UNL     1       5.448   4.569  19.515  0.00  0.00    +0.000 C 
ATOM     10  C   UNL     1       5.636   4.118  18.074  0.00  0.00    +0.000 C 
ATOM     11  N   UNL     1       4.465   4.576  17.293  0.00  0.00    +0.000 NA
BRANCH   7  12
ATOM     12  C   UNL     1       2.317   5.949  17.871  0.00  0.00    +0.000 C 
BRANCH  12  14
ATOM     13  C   UNL     1       2.474   8.461  17.850  0.00  0.00    +0.000 C 
ATOM     14  C   UNL     1       2.433   7.305  18.526  0.00  0.00    +0.000 C 
ENDBRANCH  12  14
ENDBRANCH   7  12
BRANCH   7  15
ATOM     15  C   UNL     1       2.647   3.527  18.693  0.00  0.00    +0.000 C 
BRANCH  15  16
ATOM     16  C   UNL     1       1.277   3.671  19.315  0.00  0.00    +0.000 C 
ATOM     17  C   UNL     1       1.027   3.559  20.623  0.00  0.00    +0.000 C 
ENDBRANCH  15  16
ENDBRANCH   7  15
ENDBRANCH   6  11
ENDBRANCH   1   6
BRANCH   3  18
ATOM     18  C   UNL     1       7.991   9.316  17.838  0.00  0.00    +0.000 C 
BRANCH  18  19
ATOM     19  O   UNL     1       8.856   9.197  18.977  0.00  0.00    +0.000 OA
BRANCH  19  20
ATOM     20  C   UNL     1       9.429  10.359  19.430  0.00  0.00    +0.000 A 
ATOM     21  C   UNL     1      10.129  11.088  18.465  0.00  0.00    +0.000 A 
ATOM     22  C   UNL     1      10.744  12.304  18.785  0.00  0.00    +0.000 A 
ATOM     23  C   UNL     1      10.650  12.810  20.076  0.00  0.00    +0.000 A 
ATOM     24  C   UNL     1       9.932  12.102  21.044  0.00  0.00    +0.000 A 
ATOM     25  C   UNL     1       9.326  10.879  20.723  0.00  0.00    +0.000 A 
ENDBRANCH  19  20
ENDBRANCH  18  19
ENDBRANCH   3  18
TORSDOF 9
ENDMDL
MODEL 4
REMARK VINA RESULT:      -7.2      5.270      7.983
REMARK  Name = 
REMARK  9 active torsions:
REMARK  status: ('A' for Active; 'I' for Inactive)
REMARK    1  A    between atoms: C_2  and  C_3
REMARK    2  A    between atoms: C_3  and  C_4
REMARK    3  A    between atoms: C_4  and  C_5
REMARK    4  A    between atoms: C_5  and  C_6
REMARK    5  A    between atoms: N_11  and  C_12
REMARK    6  A    between atoms: C_12  and  C_13
REMARK    7  A    between atoms: C_15  and  C_16
REMARK    8  A    between atoms: C_16  and  O_17
REMARK    9  A    between atoms: O_17  and  C_18
REMARK                            x       y       z     vdW  Elec       q    Type
REMARK                         _______ _______ _______ _____ _____    ______ ____
ROOT
ATOM      1  C   UNL     1       2.769   7.664  18.280  0.00  0.00    +0.000 A 
ATOM      2  N   UNL     1       2.023   8.051  19.298  0.00  0.00    +0.000 NA
ATOM      3  C   UNL     1       1.429   9.201  18.820  0.00  0.00    +0.000 A 
ATOM      4  N   UNL     1       1.801   9.533  17.573  0.00  0.00    +0.000 NA
ATOM      5  O   UNL     1       2.687   8.512  17.210  0.00  0.00    +0.000 OA
ENDROOT
BRANCH   1   6
ATOM      6  C   UNL     1       3.545   6.380  18.117  0.00  0.00    +0.000 C 
BRANCH   6  11
ATOM      7  C   UNL     1       3.927   3.992  18.855  0.00  0.00    +0.000 C 
ATOM      8  C   UNL     1       3.824   3.271  17.497  0.00  0.00    +0.000 C 
ATOM      9  C   UNL     1       2.369   3.401  17.094  0.00  0.00    +0.000 C 
ATOM     10  C   UNL     1       1.863   4.637  17.823  0.00  0.00    +0.000 C 
ATOM     11  N   UNL     1       2.955   5.140  18.687  0.00  0.00    +0.000 NA
BRANCH   7  12
ATOM     12  C   UNL     1       5.419   4.389  19.127  0.00  0.00    +0.000 C 
BRANCH  12  14
ATOM     13  C   UNL     1       7.582   4.898  17.943  0.00  0.00    +0.000 C 
ATOM     14  C   UNL     1       6.348   4.374  17.936  0.00  0.00    +0.000 C 
ENDBRANCH  12  14
ENDBRANCH   7  12
BRANCH   7  15
ATOM     15  C   UNL     1       3.406   3.029  19.991  0.00  0.00    +0.000 C 
BRANCH  15  16
ATOM     16  C   UNL     1       2.402   3.621  20.953  0.00  0.00    +0.000 C 
ATOM     17  C   UNL     1       1.554   2.902  21.696  0.00  0.00    +0.000 C 
ENDBRANCH  15  16
ENDBRANCH   7  15
ENDBRANCH   6  11
ENDBRANCH   1   6
BRANCH   3  18
ATOM     18  C   UNL     1       0.317   9.912  19.543  0.00  0.00    +0.000 C 
BRANCH  18  19
ATOM     19  O   UNL     1      -0.186  11.048  18.825  0.00  0.00    +0.000 OA
BRANCH  19  20
ATOM     20  C   UNL     1      -1.510  11.004  18.467  0.00  0.00    +0.000 A 
ATOM     21  C   UNL     1      -1.845   9.995  17.560  0.00  0.00    +0.000 A 
ATOM     22  C   UNL     1      -3.164   9.823  17.126  0.00  0.00    +0.000 A 
ATOM     23  C   UNL     1      -4.168  10.654  17.611  0.00  0.00    +0.000 A 
ATOM     24  C   UNL     1      -3.849  11.651  18.537  0.00  0.00    +0.000 A 
ATOM     25  C   UNL     1      -2.525  11.829  18.961  0.00  0.00    +0.000 A 
ENDBRANCH  19  20
ENDBRANCH  18  19
ENDBRANCH   3  18
TORSDOF 9
ENDMDL
MODEL 5
REMARK VINA RESULT:      -7.1      0.978      1.380
REMARK  Name = 
REMARK  9 active torsions:
REMARK  status: ('A' for Active; 'I' for Inactive)
REMARK    1  A    between atoms: C_2  and  C_3
REMARK    2  A    between atoms: C_3  and  C_4
REMARK    3  A    between atoms: C_4  and  C_5
REMARK    4  A    between atoms: C_5  and  C_6
REMARK    5  A    between atoms: N_11  and  C_12
REMARK    6  A    between atoms: C_12  and  C_13
REMARK    7  A    between atoms: C_15  and  C_16
REMARK    8  A    between atoms: C_16  and  O_17
REMARK    9  A    between atoms: O_17  and  C_18
REMARK                            x       y       z     vdW  Elec       q    Type
REMARK                         _______ _______ _______ _____ _____    ______ ____
ROOT
ATOM      1  C   UNL     1       7.660   6.194  17.822  0.00  0.00    +0.000 A 
ATOM      2  N   UNL     1       8.197   7.096  18.622  0.00  0.00    +0.000 NA
ATOM      3  C   UNL     1       8.044   8.267  17.906  0.00  0.00    +0.000 A 
ATOM      4  N   UNL     1       7.462   8.103  16.706  0.00  0.00    +0.000 NA
ATOM      5  O   UNL     1       7.202   6.729  16.650  0.00  0.00    +0.000 OA
ENDROOT
BRANCH   1   6
ATOM      6  C   UNL     1       7.375   4.738  18.103  0.00  0.00    +0.000 C 
BRANCH   6  11
ATOM      7  C   UNL     1       5.066   4.083  17.307  0.00  0.00    +0.000 C 
ATOM      8  C   UNL     1       4.483   5.475  16.998  0.00  0.00    +0.000 C 
ATOM      9  C   UNL     1       4.332   6.145  18.349  0.00  0.00    +0.000 C 
ATOM     10  C   UNL     1       5.345   5.456  19.251  0.00  0.00    +0.000 C 
ATOM     11  N   UNL     1       5.985   4.369  18.477  0.00  0.00    +0.000 NA
BRANCH   7  12
ATOM     12  C   UNL     1       5.751   3.503  16.021  0.00  0.00    +0.000 C 
BRANCH  12  14
ATOM     13  C   UNL     1       5.698   3.808  13.523  0.00  0.00    +0.000 C 
ATOM     14  C   UNL     1       5.613   4.320  14.758  0.00  0.00    +0.000 C 
ENDBRANCH  12  14
ENDBRANCH   7  12
BRANCH   7  15
ATOM     15  C   UNL     1       3.901   3.129  17.778  0.00  0.00    +0.000 C 
BRANCH  15  16
ATOM     16  C   UNL     1       2.524   3.453  17.249  0.00  0.00    +0.000 C 
ATOM     17  C   UNL     1       1.461   3.710  18.018  0.00  0.00    +0.000 C 
ENDBRANCH  15  16
ENDBRANCH   7  15
ENDBRANCH   6  11
ENDBRANCH   1   6
BRANCH   3  18
ATOM     18  C   UNL     1       8.317   9.627  18.488  0.00  0.00    +0.000 C 
BRANCH  18  19
ATOM     19  O   UNL     1       9.371   9.622  19.462  0.00  0.00    +0.000 OA
BRANCH  19  20
ATOM     20  C   UNL     1       9.755  10.846  19.949  0.00  0.00    +0.000 A 
ATOM     21  C   UNL     1      10.768  11.480  19.224  0.00  0.00    +0.000 A 
ATOM     22  C   UNL     1      11.240  12.743  19.598  0.00  0.00    +0.000 A 
ATOM     23  C   UNL     1      10.689  13.393  20.696  0.00  0.00    +0.000 A 
ATOM     24  C   UNL     1       9.658  12.780  21.414  0.00  0.00    +0.000 A 
ATOM     25  C   UNL     1       9.195  11.509  21.044  0.00  0.00    +0.000 A 
ENDBRANCH  19  20
ENDBRANCH  18  19
ENDBRANCH   3  18
TORSDOF 9
ENDMDL
MODEL 6
REMARK VINA RESULT:      -7.1      5.208      8.204
REMARK  Name = 
REMARK  9 active torsions:
REMARK  status: ('A' for Active; 'I' for Inactive)
REMARK    1  A    between atoms: C_2  and  C_3
REMARK    2  A    between atoms: C_3  and  C_4
REMARK    3  A    between atoms: C_4  and  C_5
REMARK    4  A    between atoms: C_5  and  C_6
REMARK    5  A    between atoms: N_11  and  C_12
REMARK    6  A    between atoms: C_12  and  C_13
REMARK    7  A    between atoms: C_15  and  C_16
REMARK    8  A    between atoms: C_16  and  O_17
REMARK    9  A    between atoms: O_17  and  C_18
REMARK                            x       y       z     vdW  Elec       q    Type
REMARK                         _______ _______ _______ _____ _____    ______ ____
ROOT
ATOM      1  C   UNL     1       2.368   7.675  18.508  0.00  0.00    +0.000 A 
ATOM      2  N   UNL     1       1.631   8.433  19.299  0.00  0.00    +0.000 NA
ATOM      3  C   UNL     1       1.508   9.601  18.574  0.00  0.00    +0.000 A 
ATOM      4  N   UNL     1       2.155   9.586  17.397  0.00  0.00    +0.000 NA
ATOM      5  O   UNL     1       2.723   8.308  17.348  0.00  0.00    +0.000 OA
ENDROOT
BRANCH   1   6
ATOM      6  C   UNL     1       2.719   6.216  18.662  0.00  0.00    +0.000 C 
BRANCH   6  11
ATOM      7  C   UNL     1       3.855   4.220  17.604  0.00  0.00    +0.000 C 
ATOM      8  C   UNL     1       4.551   3.620  18.840  0.00  0.00    +0.000 C 
ATOM      9  C   UNL     1       5.627   4.621  19.208  0.00  0.00    +0.000 C 
ATOM     10  C   UNL     1       5.145   5.950  18.645  0.00  0.00    +0.000 C 
ATOM     11  N   UNL     1       3.889   5.704  17.901  0.00  0.00    +0.000 NA
BRANCH   7  12
ATOM     12  C   UNL     1       2.430   3.584  17.443  0.00  0.00    +0.000 C 
BRANCH  12  14
ATOM     13  C   UNL     1       0.768   2.310  18.838  0.00  0.00    +0.000 C 
ATOM     14  C   UNL     1       2.034   2.551  18.471  0.00  0.00    +0.000 C 
ENDBRANCH  12  14
ENDBRANCH   7  12
BRANCH   7  15
ATOM     15  C   UNL     1       4.729   3.923  16.324  0.00  0.00    +0.000 C 
BRANCH  15  16
ATOM     16  C   UNL     1       5.190   5.131  15.542  0.00  0.00    +0.000 C 
ATOM     17  C   UNL     1       6.298   5.169  14.795  0.00  0.00    +0.000 C 
ENDBRANCH  15  16
ENDBRANCH   7  15
ENDBRANCH   6  11
ENDBRANCH   1   6
BRANCH   3  18
ATOM     18  C   UNL     1       0.575  10.715  18.964  0.00  0.00    +0.000 C 
BRANCH  18  19
ATOM     19  O   UNL     1      -0.745  10.256  19.291  0.00  0.00    +0.000 OA
BRANCH  19  20
ATOM     20  C   UNL     1      -1.705  10.427  18.325  0.00  0.00    +0.000 A 
ATOM     21  C   UNL     1      -2.698  11.360  18.637  0.00  0.00    +0.000 A 
ATOM     22  C   UNL     1      -3.726  11.648  17.732  0.00  0.00    +0.000 A 
ATOM     23  C   UNL     1      -3.760  11.014  16.495  0.00  0.00    +0.000 A 
ATOM     24  C   UNL     1      -2.759  10.098  16.163  0.00  0.00    +0.000 A 
ATOM     25  C   UNL     1      -1.737   9.802  17.075  0.00  0.00    +0.000 A 
ENDBRANCH  19  20
ENDBRANCH  18  19
ENDBRANCH   3  18
TORSDOF 9
ENDMDL
MODEL 7
REMARK VINA RESULT:      -7.0      5.615      8.603
REMARK  Name = 
REMARK  9 active torsions:
REMARK  status: ('A' for Active; 'I' for Inactive)
REMARK    1  A    between atoms: C_2  and  C_3
REMARK    2  A    between atoms: C_3  and  C_4
REMARK    3  A    between atoms: C_4  and  C_5
REMARK    4  A    between atoms: C_5  and  C_6
REMARK    5  A    between atoms: N_11  and  C_12
REMARK    6  A    between atoms: C_12  and  C_13
REMARK    7  A    between atoms: C_15  and  C_16
REMARK    8  A    between atoms: C_16  and  O_17
REMARK    9  A    between atoms: O_17  and  C_18
REMARK                            x       y       z     vdW  Elec       q    Type
REMARK                         _______ _______ _______ _____ _____    ______ ____
ROOT
ATOM      1  C   UNL     1       2.033   8.340  18.996  0.00  0.00    +0.000 A 
ATOM      2  N   UNL     1       1.178   9.142  19.602  0.00  0.00    +0.000 NA
ATOM      3  C   UNL     1       0.997  10.150  18.675  0.00  0.00    +0.000 A 
ATOM      4  N   UNL     1       1.720   9.999  17.554  0.00  0.00    +0.000 NA
ATOM      5  O   UNL     1       2.405   8.796  17.762  0.00  0.00    +0.000 OA
ENDROOT
BRANCH   1   6
ATOM      6  C   UNL     1       2.506   6.972  19.425  0.00  0.00    +0.000 C 
BRANCH   6  11
ATOM      7  C   UNL     1       2.882   4.570  18.731  0.00  0.00    +0.000 C 
ATOM      8  C   UNL     1       4.256   4.316  19.378  0.00  0.00    +0.000 C 
ATOM      9  C   UNL     1       5.224   5.178  18.594  0.00  0.00    +0.000 C 
ATOM     10  C   UNL     1       4.376   6.298  18.010  0.00  0.00    +0.000 C 
ATOM     11  N   UNL     1       2.963   6.037  18.364  0.00  0.00    +0.000 NA
BRANCH   7  12
ATOM     12  C   UNL     1       1.746   4.176  19.738  0.00  0.00    +0.000 C 
BRANCH  12  14
ATOM     13  C   UNL     1       1.279   2.779  21.780  0.00  0.00    +0.000 C 
ATOM     14  C   UNL     1       2.109   3.167  20.802  0.00  0.00    +0.000 C 
ENDBRANCH  12  14
ENDBRANCH   7  12
BRANCH   7  15
ATOM     15  C   UNL     1       2.762   3.708  17.415  0.00  0.00    +0.000 C 
BRANCH  15  16
ATOM     16  C   UNL     1       2.584   2.220  17.612  0.00  0.00    +0.000 C 
ATOM     17  C   UNL     1       3.554   1.390  18.011  0.00  0.00    +0.000 C 
ENDBRANCH  15  16
ENDBRANCH   7  15
ENDBRANCH   6  11
ENDBRANCH   1   6
BRANCH   3  18
ATOM     18  C   UNL     1      -0.059  11.213  18.814  0.00  0.00    +0.000 C 
BRANCH  18  19
ATOM     19  O   UNL     1      -1.373  10.678  19.033  0.00  0.00    +0.000 OA
BRANCH  19  20
ATOM     20  C   UNL     1      -2.187  10.596  17.932  0.00  0.00    +0.000 A 
ATOM     21  C   UNL     1      -3.322  11.412  17.974  0.00  0.00    +0.000 A 
ATOM     22  C   UNL     1      -4.227  11.443  16.908  0.00  0.00    +0.000 A 
ATOM     23  C   UNL     1      -3.996  10.667  15.777  0.00  0.00    +0.000 A 
ATOM     24  C   UNL     1      -2.852   9.866  15.714  0.00  0.00    +0.000 A 
ATOM     25  C   UNL     1      -1.952   9.828  16.788  0.00  0.00    +0.000 A 
ENDBRANCH  19  20
ENDBRANCH  18  19
ENDBRANCH   3  18
TORSDOF 9
ENDMDL
MODEL 8
REMARK VINA RESULT:      -6.9      5.312      7.688
REMARK  Name = 
REMARK  9 active torsions:
REMARK  status: ('A' for Active; 'I' for Inactive)
REMARK    1  A    between atoms: C_2  and  C_3
REMARK    2  A    between atoms: C_3  and  C_4
REMARK    3  A    between atoms: C_4  and  C_5
REMARK    4  A    between atoms: C_5  and  C_6
REMARK    5  A    between atoms: N_11  and  C_12
REMARK    6  A    between atoms: C_12  and  C_13
REMARK    7  A    between atoms: C_15  and  C_16
REMARK    8  A    between atoms: C_16  and  O_17
REMARK    9  A    between atoms: O_17  and  C_18
REMARK                            x       y       z     vdW  Elec       q    Type
REMARK                         _______ _______ _______ _____ _____    ______ ____
ROOT
ATOM      1  C   UNL     1       2.315   7.498  18.274  0.00  0.00    +0.000 A 
ATOM      2  N   UNL     1       1.787   8.175  19.277  0.00  0.00    +0.000 NA
ATOM      3  C   UNL     1       1.689   9.453  18.764  0.00  0.00    +0.000 A 
ATOM      4  N   UNL     1       2.154   9.577  17.510  0.00  0.00    +0.000 NA
ATOM      5  O   UNL     1       2.566   8.280  17.181  0.00  0.00    +0.000 OA
ENDROOT
BRANCH   1   6
ATOM      6  C   UNL     1       2.523   6.008  18.152  0.00  0.00    +0.000 C 
BRANCH   6  11
ATOM      7  C   UNL     1       3.965   4.034  17.507  0.00  0.00    +0.000 C 
ATOM      8  C   UNL     1       4.485   3.616  18.896  0.00  0.00    +0.000 C 
ATOM      9  C   UNL     1       5.408   4.740  19.322  0.00  0.00    +0.000 C 
ATOM     10  C   UNL     1       4.930   5.962  18.551  0.00  0.00    +0.000 C 
ATOM     11  N   UNL     1       3.839   5.536  17.646  0.00  0.00    +0.000 NA
BRANCH   7  12
ATOM     12  C   UNL     1       2.638   3.259  17.188  0.00  0.00    +0.000 C 
BRANCH  12  14
ATOM     13  C   UNL     1       0.978   2.511  18.926  0.00  0.00    +0.000 C 
ATOM     14  C   UNL     1       2.128   2.328  18.263  0.00  0.00    +0.000 C 
ENDBRANCH  12  14
ENDBRANCH   7  12
BRANCH   7  15
ATOM     15  C   UNL     1       5.061   3.699  16.422  0.00  0.00    +0.000 C 
BRANCH  15  16
ATOM     16  C   UNL     1       5.168   4.668  15.268  0.00  0.00    +0.000 C 
ATOM     17  C   UNL     1       6.322   5.115  14.762  0.00  0.00    +0.000 C 
ENDBRANCH  15  16
ENDBRANCH   7  15
ENDBRANCH   6  11
ENDBRANCH   1   6
BRANCH   3  18
ATOM     18  C   UNL     1       0.949  10.563  19.460  0.00  0.00    +0.000 C 
BRANCH  18  19
ATOM     19  O   UNL     1       0.774  10.328  20.865  0.00  0.00    +0.000 OA
BRANCH  19  20
ATOM     20  C   UNL     1      -0.291  10.960  21.459  0.00  0.00    +0.000 A 
ATOM     21  C   UNL     1      -1.003  11.827  20.626  0.00  0.00    +0.000 A 
ATOM     22  C   UNL     1      -2.124  12.520  21.096  0.00  0.00    +0.000 A 
ATOM     23  C   UNL     1      -2.553  12.338  22.406  0.00  0.00    +0.000 A 
ATOM     24  C   UNL     1      -1.863  11.455  23.241  0.00  0.00    +0.000 A 
ATOM     25  C   UNL     1      -0.733  10.771  22.770  0.00  0.00    +0.000 A 
ENDBRANCH  19  20
ENDBRANCH  18  19
ENDBRANCH   3  18
TORSDOF 9
ENDMDL
MODEL 9
REMARK VINA RESULT:      -6.9      2.052      2.942
REMARK  Name = 
REMARK  9 active torsions:
REMARK  status: ('A' for Active; 'I' for Inactive)
REMARK    1  A    between atoms: C_2  and  C_3
REMARK    2  A    between atoms: C_3  and  C_4
REMARK    3  A    between atoms: C_4  and  C_5
REMARK    4  A    between atoms: C_5  and  C_6
REMARK    5  A    between atoms: N_11  and  C_12
REMARK    6  A    between atoms: C_12  and  C_13
REMARK    7  A    between atoms: C_15  and  C_16
REMARK    8  A    between atoms: C_16  and  O_17
REMARK    9  A    between atoms: O_17  and  C_18
REMARK                            x       y       z     vdW  Elec       q    Type
REMARK                         _______ _______ _______ _____ _____    ______ ____
ROOT
ATOM      1  C   UNL     1       6.514   5.929  18.455  0.00  0.00    +0.000 A 
ATOM      2  N   UNL     1       7.481   6.785  18.729  0.00  0.00    +0.000 NA
ATOM      3  C   UNL     1       7.563   7.532  17.571  0.00  0.00    +0.000 A 
ATOM      4  N   UNL     1       6.706   7.149  16.610  0.00  0.00    +0.000 NA
ATOM      5  O   UNL     1       6.006   6.088  17.196  0.00  0.00    +0.000 OA
ENDROOT
BRANCH   1   6
ATOM      6  C   UNL     1       5.840   4.944  19.380  0.00  0.00    +0.000 C 
BRANCH   6  11
ATOM      7  C   UNL     1       3.352   4.568  19.139  0.00  0.00    +0.000 C 
ATOM      8  C   UNL     1       3.060   3.841  20.466  0.00  0.00    +0.000 C 
ATOM      9  C   UNL     1       3.744   2.496  20.333  0.00  0.00    +0.000 C 
ATOM     10  C   UNL     1       4.856   2.712  19.318  0.00  0.00    +0.000 C 
ATOM     11  N   UNL     1       4.755   4.100  18.814  0.00  0.00    +0.000 NA
BRANCH   7  12
ATOM     12  C   UNL     1       3.171   6.114  19.336  0.00  0.00    +0.000 C 
BRANCH  12  14
ATOM     13  C   UNL     1       2.910   8.115  17.831  0.00  0.00    +0.000 C 
ATOM     14  C   UNL     1       2.554   6.872  18.183  0.00  0.00    +0.000 C 
ENDBRANCH  12  14
ENDBRANCH   7  12
BRANCH   7  15
ATOM     15  C   UNL     1       2.357   4.043  18.033  0.00  0.00    +0.000 C 
BRANCH  15  16
ATOM     16  C   UNL     1       1.008   3.570  18.525  0.00  0.00    +0.000 C 
ATOM     17  C   UNL     1       0.652   2.286  18.632  0.00  0.00    +0.000 C 
ENDBRANCH  15  16
ENDBRANCH   7  15
ENDBRANCH   6  11
ENDBRANCH   1   6
BRANCH   3  18
ATOM     18  C   UNL     1       8.388   8.785  17.458  0.00  0.00    +0.000 C 
BRANCH  18  19
ATOM     19  O   UNL     1       8.189   9.691  18.554  0.00  0.00    +0.000 OA
BRANCH  19  20
ATOM     20  C   UNL     1       9.265  10.467  18.904  0.00  0.00    +0.000 A 
ATOM     21  C   UNL     1      10.036  10.927  17.833  0.00  0.00    +0.000 A 
ATOM     22  C   UNL     1      11.150  11.746  18.046  0.00  0.00    +0.000 A 
ATOM     23  C   UNL     1      11.495  12.128  19.338  0.00  0.00    +0.000 A 
ATOM     24  C   UNL     1      10.717  11.693  20.415  0.00  0.00    +0.000 A 
ATOM     25  C   UNL     1       9.608  10.863  20.200  0.00  0.00    +0.000 A 
ENDBRANCH  19  20
ENDBRANCH  18  19
ENDBRANCH   3  18
TORSDOF 9
ENDMDL
