MODEL 1
REMARK VINA RESULT:      -7.0      0.000      0.000
REMARK  Name = 
REMARK  8 active torsions:
REMARK  status: ('A' for Active; 'I' for Inactive)
REMARK    1  A    between atoms: C_1  and  C_2
REMARK    2  A    between atoms: C_4  and  C_5
REMARK    3  A    between atoms: C_8  and  C_9
REMARK    4  A    between atoms: C_10  and  O_11
REMARK    5  A    between atoms: O_11  and  C_12
REMARK    6  A    between atoms: N_15  and  C_16
REMARK    7  A    between atoms: C_19  and  C_20
REMARK    8  A    between atoms: C_26  and  C_27
REMARK                            x       y       z     vdW  Elec       q    Type
REMARK                         _______ _______ _______ _____ _____    ______ ____
ROOT
ATOM      1  C   UNL     1       2.026  13.125  20.452  0.00  0.00    +0.000 A 
ATOM      2  N   UNL     1       2.960  14.024  20.841  0.00  0.00    +0.000 NA
ATOM      3  C   UNL     1       3.611  14.675  19.873  0.00  0.00    +0.000 A 
ATOM      4  N   UNL     1       4.722  15.424  20.246  0.00  0.00    +0.000 N 
ATOM      5  N   UNL     1       3.289  14.576  18.579  0.00  0.00    +0.000 NA
ATOM      6  C   UNL     1       2.262  13.775  18.255  0.00  0.00    +0.000 A 
ATOM      7  C   UNL     1       1.559  12.988  19.145  0.00  0.00    +0.000 A 
ATOM      8  H   UNL     1       4.816  15.463  21.250  0.00  0.00    +0.000 HD
ENDROOT
BRANCH   7   9
ATOM      9  C   UNL     1       0.426  12.159  18.676  0.00  0.00    +0.000 A 
ATOM     10  C   UNL     1      -0.873  12.701  18.564  0.00  0.00    +0.000 A 
ATOM     11  C   UNL     1      -1.981  11.900  18.265  0.00  0.00    +0.000 A 
ATOM     12  C   UNL     1      -1.809  10.539  18.048  0.00  0.00    +0.000 A 
ATOM     13 CL   UNL     1      -3.171   9.547  17.707  0.00  0.00    +0.000 Cl
ATOM     14  C   UNL     1      -0.538   9.978  18.122  0.00  0.00    +0.000 A 
ATOM     15  C   UNL     1       0.567  10.782  18.437  0.00  0.00    +0.000 A 
ENDBRANCH   7   9
BRANCH   4  16
ATOM     16  C   UNL     1       5.874  15.693  19.493  0.00  0.00    +0.000 A 
ATOM     17  C   UNL     1       6.775  14.654  19.235  0.00  0.00    +0.000 A 
ATOM     18  C   UNL     1       8.007  14.911  18.623  0.00  0.00    +0.000 A 
ATOM     19  C   UNL     1       8.347  16.210  18.238  0.00  0.00    +0.000 A 
ATOM     20  C   UNL     1       7.434  17.249  18.443  0.00  0.00    +0.000 A 
ATOM     21  C   UNL     1       6.213  16.987  19.066  0.00  0.00    +0.000 A 
BRANCH  19  22
ATOM     22  C   UNL     1       9.634  16.489  17.672  0.00  0.00    +0.000 C 
ATOM     23  N   UNL     1      10.671  16.730  17.217  0.00  0.00    +0.000 NA
ENDBRANCH  19  22
ENDBRANCH   4  16
BRANCH   1  24
ATOM     24  O   UNL     1       1.524  12.257  21.411  0.00  0.00    +0.000 OA
BRANCH  24  32
ATOM     25  C   UNL     1       0.082  14.969  21.939  0.00  0.00    +0.000 C 
ATOM     26  C   UNL     1      -0.435  13.582  22.215  0.00  0.00    +0.000 A 
ATOM     27  C   UNL     1      -1.692  13.517  22.853  0.00  0.00    +0.000 A 
ATOM     28  C   UNL     1      -2.281  12.300  23.190  0.00  0.00    +0.000 A 
ATOM     29  C   UNL     1      -1.631  11.113  22.866  0.00  0.00    +0.000 A 
ATOM     30  C   UNL     1      -0.386  11.136  22.212  0.00  0.00    +0.000 A 
ATOM     31  C   UNL     1       0.278   9.822  21.894  0.00  0.00    +0.000 C 
ATOM     32  C   UNL     1       0.225  12.374  21.885  0.00  0.00    +0.000 A 
BRANCH  28  33
ATOM     33  C   UNL     1      -3.540  12.280  23.880  0.00  0.00    +0.000 C 
ATOM     34  N   UNL     1      -4.555  12.277  24.436  0.00  0.00    +0.000 NA
ENDBRANCH  28  33
ENDBRANCH  24  32
ENDBRANCH   1  24
TORSDOF 6
ENDMDL
MODEL 2
REMARK VINA RESULT:      -6.8      2.812      4.727
REMARK  Name = 
REMARK  8 active torsions:
REMARK  status: ('A' for Active; 'I' for Inactive)
REMARK    1  A    between atoms: C_1  and  C_2
REMARK    2  A    between atoms: C_4  and  C_5
REMARK    3  A    between atoms: C_8  and  C_9
REMARK    4  A    between atoms: C_10  and  O_11
REMARK    5  A    between atoms: O_11  and  C_12
REMARK    6  A    between atoms: N_15  and  C_16
REMARK    7  A    between atoms: C_19  and  C_20
REMARK    8  A    between atoms: C_26  and  C_27
REMARK                            x       y       z     vdW  Elec       q    Type
REMARK                         _______ _______ _______ _____ _____    ______ ____
ROOT
ATOM      1  C   UNL     1      -0.078  11.675  20.409  0.00  0.00    +0.000 A 
ATOM      2  N   UNL     1       1.108  12.030  20.956  0.00  0.00    +0.000 NA
ATOM      3  C   UNL     1       1.497  13.295  20.785  0.00  0.00    +0.000 A 
ATOM      4  N   UNL     1       2.805  13.612  21.138  0.00  0.00    +0.000 N 
ATOM      5  N   UNL     1       0.721  14.232  20.230  0.00  0.00    +0.000 NA
ATOM      6  C   UNL     1      -0.504  13.862  19.826  0.00  0.00    +0.000 A 
ATOM      7  C   UNL     1      -0.999  12.574  19.872  0.00  0.00    +0.000 A 
ATOM      8  H   UNL     1       3.257  12.836  21.598  0.00  0.00    +0.000 HD
ENDROOT
BRANCH   7   9
ATOM      9  C   UNL     1      -2.378  12.287  19.418  0.00  0.00    +0.000 A 
ATOM     10  C   UNL     1      -2.619  11.680  18.166  0.00  0.00    +0.000 A 
ATOM     11  C   UNL     1      -3.914  11.535  17.655  0.00  0.00    +0.000 A 
ATOM     12  C   UNL     1      -5.000  11.975  18.399  0.00  0.00    +0.000 A 
ATOM     13 CL   UNL     1      -6.591  11.823  17.764  0.00  0.00    +0.000 Cl
ATOM     14  C   UNL     1      -4.801  12.551  19.649  0.00  0.00    +0.000 A 
ATOM     15  C   UNL     1      -3.501  12.708  20.150  0.00  0.00    +0.000 A 
ENDBRANCH   7   9
BRANCH   4  16
ATOM     16  C   UNL     1       3.641  14.584  20.571  0.00  0.00    +0.000 A 
ATOM     17  C   UNL     1       4.036  14.445  19.236  0.00  0.00    +0.000 A 
ATOM     18  C   UNL     1       4.989  15.305  18.679  0.00  0.00    +0.000 A 
ATOM     19  C   UNL     1       5.545  16.334  19.443  0.00  0.00    +0.000 A 
ATOM     20  C   UNL     1       5.120  16.516  20.763  0.00  0.00    +0.000 A 
ATOM     21  C   UNL     1       4.179  15.646  21.315  0.00  0.00    +0.000 A 
BRANCH  19  22
ATOM     22  C   UNL     1       6.570  17.175  18.898  0.00  0.00    +0.000 C 
ATOM     23  N   UNL     1       7.396  17.846  18.443  0.00  0.00    +0.000 NA
ENDBRANCH  19  22
ENDBRANCH   4  16
BRANCH   1  24
ATOM     24  O   UNL     1      -0.384  10.323  20.345  0.00  0.00    +0.000 OA
BRANCH  24  32
ATOM     25  C   UNL     1       1.334  10.109  17.753  0.00  0.00    +0.000 C 
ATOM     26  C   UNL     1       1.343   9.186  18.943  0.00  0.00    +0.000 A 
ATOM     27  C   UNL     1       2.180   8.056  18.830  0.00  0.00    +0.000 A 
ATOM     28  C   UNL     1       2.269   7.105  19.845  0.00  0.00    +0.000 A 
ATOM     29  C   UNL     1       1.538   7.284  21.015  0.00  0.00    +0.000 A 
ATOM     30  C   UNL     1       0.708   8.408  21.174  0.00  0.00    +0.000 A 
ATOM     31  C   UNL     1      -0.069   8.547  22.457  0.00  0.00    +0.000 C 
ATOM     32  C   UNL     1       0.601   9.368  20.135  0.00  0.00    +0.000 A 
BRANCH  28  33
ATOM     33  C   UNL     1       3.097   5.945  19.669  0.00  0.00    +0.000 C 
ATOM     34  N   UNL     1       3.773   5.018  19.520  0.00  0.00    +0.000 NA
ENDBRANCH  28  33
ENDBRANCH  24  32
ENDBRANCH   1  24
TORSDOF 6
ENDMDL
MODEL 3
REMARK VINA RESULT:      -6.6      4.037      7.534
REMARK  Name = 
REMARK  8 active torsions:
REMARK  status: ('A' for Active; 'I' for Inactive)
REMARK    1  A    between atoms: C_1  and  C_2
REMARK    2  A    between atoms: C_4  and  C_5
REMARK    3  A    between atoms: C_8  and  C_9
REMARK    4  A    between atoms: C_10  and  O_11
REMARK    5  A    between atoms: O_11  and  C_12
REMARK    6  A    between atoms: N_15  and  C_16
REMARK    7  A    between atoms: C_19  and  C_20
REMARK    8  A    between atoms: C_26  and  C_27
REMARK                            x       y       z     vdW  Elec       q    Type
REMARK                         _______ _______ _______ _____ _____    ______ ____
ROOT
ATOM      1  C   UNL     1      -0.276  11.948  19.225  0.00  0.00    +0.000 A 
ATOM      2  N   UNL     1       0.176  11.014  18.356  0.00  0.00    +0.000 NA
ATOM      3  C   UNL     1       0.550   9.841  18.873  0.00  0.00    +0.000 A 
ATOM      4  N   UNL     1       1.225   8.962  18.032  0.00  0.00    +0.000 N 
ATOM      5  N   UNL     1       0.373   9.516  20.157  0.00  0.00    +0.000 NA
ATOM      6  C   UNL     1      -0.206  10.428  20.954  0.00  0.00    +0.000 A 
ATOM      7  C   UNL     1      -0.568  11.703  20.566  0.00  0.00    +0.000 A 
ATOM      8  H   UNL     1       1.236   9.301  17.081  0.00  0.00    +0.000 HD
ENDROOT
BRANCH   7   9
ATOM      9  C   UNL     1      -1.222  12.618  21.527  0.00  0.00    +0.000 A 
ATOM     10  C   UNL     1      -0.461  13.363  22.455  0.00  0.00    +0.000 A 
ATOM     11  C   UNL     1      -1.066  14.118  23.466  0.00  0.00    +0.000 A 
ATOM     12  C   UNL     1      -2.452  14.163  23.556  0.00  0.00    +0.000 A 
ATOM     13 CL   UNL     1      -3.199  15.068  24.813  0.00  0.00    +0.000 Cl
ATOM     14  C   UNL     1      -3.232  13.464  22.641  0.00  0.00    +0.000 A 
ATOM     15  C   UNL     1      -2.621  12.697  21.639  0.00  0.00    +0.000 A 
ENDBRANCH   7   9
BRANCH   4  16
ATOM     16  C   UNL     1       2.201   8.016  18.375  0.00  0.00    +0.000 A 
ATOM     17  C   UNL     1       3.275   7.801  17.504  0.00  0.00    +0.000 A 
ATOM     18  C   UNL     1       4.184   6.762  17.732  0.00  0.00    +0.000 A 
ATOM     19  C   UNL     1       4.047   5.936  18.850  0.00  0.00    +0.000 A 
ATOM     20  C   UNL     1       3.009   6.174  19.756  0.00  0.00    +0.000 A 
ATOM     21  C   UNL     1       2.098   7.203  19.514  0.00  0.00    +0.000 A 
BRANCH  19  22
ATOM     22  C   UNL     1       4.936   4.830  19.052  0.00  0.00    +0.000 C 
ATOM     23  N   UNL     1       5.641   3.926  19.212  0.00  0.00    +0.000 NA
ENDBRANCH  19  22
ENDBRANCH   4  16
BRANCH   1  24
ATOM     24  O   UNL     1      -0.424  13.247  18.760  0.00  0.00    +0.000 OA
BRANCH  24  32
ATOM     25  C   UNL     1       2.574  12.737  18.077  0.00  0.00    +0.000 C 
ATOM     26  C   UNL     1       1.966  13.971  18.689  0.00  0.00    +0.000 A 
ATOM     27  C   UNL     1       2.879  14.981  19.057  0.00  0.00    +0.000 A 
ATOM     28  C   UNL     1       2.459  16.168  19.655  0.00  0.00    +0.000 A 
ATOM     29  C   UNL     1       1.101  16.380  19.871  0.00  0.00    +0.000 A 
ATOM     30  C   UNL     1       0.157  15.406  19.499  0.00  0.00    +0.000 A 
ATOM     31  C   UNL     1      -1.299  15.684  19.767  0.00  0.00    +0.000 C 
ATOM     32  C   UNL     1       0.584  14.189  18.908  0.00  0.00    +0.000 A 
BRANCH  28  33
ATOM     33  C   UNL     1       3.426  17.150  20.057  0.00  0.00    +0.000 C 
ATOM     34  N   UNL     1       4.197  17.948  20.387  0.00  0.00    +0.000 NA
ENDBRANCH  28  33
ENDBRANCH  24  32
ENDBRANCH   1  24
TORSDOF 6
ENDMDL
MODEL 4
REMARK VINA RESULT:      -6.5      0.970      1.361
REMARK  Name = 
REMARK  8 active torsions:
REMARK  status: ('A' for Active; 'I' for Inactive)
REMARK    1  A    between atoms: C_1  and  C_2
REMARK    2  A    between atoms: C_4  and  C_5
REMARK    3  A    between atoms: C_8  and  C_9
REMARK    4  A    between atoms: C_10  and  O_11
REMARK    5  A    between atoms: O_11  and  C_12
REMARK    6  A    between atoms: N_15  and  C_16
REMARK    7  A    between atoms: C_19  and  C_20
REMARK    8  A    between atoms: C_26  and  C_27
REMARK                            x       y       z     vdW  Elec       q    Type
REMARK                         _______ _______ _______ _____ _____    ______ ____
ROOT
ATOM      1  C   UNL     1       1.888  13.355  20.540  0.00  0.00    +0.000 A 
ATOM      2  N   UNL     1       2.891  14.221  20.821  0.00  0.00    +0.000 NA
ATOM      3  C   UNL     1       3.751  14.487  19.836  0.00  0.00    +0.000 A 
ATOM      4  N   UNL     1       4.906  15.187  20.172  0.00  0.00    +0.000 N 
ATOM      5  N   UNL     1       3.587  14.053  18.582  0.00  0.00    +0.000 NA
ATOM      6  C   UNL     1       2.501  13.310  18.320  0.00  0.00    +0.000 A 
ATOM      7  C   UNL     1       1.578  12.897  19.260  0.00  0.00    +0.000 A 
ATOM      8  H   UNL     1       4.875  15.505  21.129  0.00  0.00    +0.000 HD
ENDROOT
BRANCH   7   9
ATOM      9  C   UNL     1       0.403  12.096  18.851  0.00  0.00    +0.000 A 
ATOM     10  C   UNL     1       0.479  10.689  18.758  0.00  0.00    +0.000 A 
ATOM     11  C   UNL     1      -0.571   9.928  18.233  0.00  0.00    +0.000 A 
ATOM     12  C   UNL     1      -1.734  10.558  17.810  0.00  0.00    +0.000 A 
ATOM     13 CL   UNL     1      -3.017   9.630  17.140  0.00  0.00    +0.000 Cl
ATOM     14  C   UNL     1      -1.855  11.940  17.915  0.00  0.00    +0.000 A 
ATOM     15  C   UNL     1      -0.794  12.700  18.428  0.00  0.00    +0.000 A 
ENDBRANCH   7   9
BRANCH   4  16
ATOM     16  C   UNL     1       6.173  15.099  19.577  0.00  0.00    +0.000 A 
ATOM     17  C   UNL     1       7.218  14.504  20.291  0.00  0.00    +0.000 A 
ATOM     18  C   UNL     1       8.528  14.533  19.800  0.00  0.00    +0.000 A 
ATOM     19  C   UNL     1       8.809  15.139  18.572  0.00  0.00    +0.000 A 
ATOM     20  C   UNL     1       7.764  15.691  17.824  0.00  0.00    +0.000 A 
ATOM     21  C   UNL     1       6.463  15.669  18.328  0.00  0.00    +0.000 A 
BRANCH  19  22
ATOM     22  C   UNL     1      10.157  15.231  18.096  0.00  0.00    +0.000 C 
ATOM     23  N   UNL     1      11.250  15.291  17.718  0.00  0.00    +0.000 NA
ENDBRANCH  19  22
ENDBRANCH   4  16
BRANCH   1  24
ATOM     24  O   UNL     1       1.142  12.863  21.600  0.00  0.00    +0.000 OA
BRANCH  24  32
ATOM     25  C   UNL     1      -0.096  15.693  21.187  0.00  0.00    +0.000 C 
ATOM     26  C   UNL     1      -0.797  14.439  21.634  0.00  0.00    +0.000 A 
ATOM     27  C   UNL     1      -2.159  14.589  21.971  0.00  0.00    +0.000 A 
ATOM     28  C   UNL     1      -2.925  13.517  22.423  0.00  0.00    +0.000 A 
ATOM     29  C   UNL     1      -2.346  12.256  22.520  0.00  0.00    +0.000 A 
ATOM     30  C   UNL     1      -0.997  12.060  22.174  0.00  0.00    +0.000 A 
ATOM     31  C   UNL     1      -0.418  10.676  22.309  0.00  0.00    +0.000 C 
ATOM     32  C   UNL     1      -0.209  13.154  21.732  0.00  0.00    +0.000 A 
BRANCH  28  33
ATOM     33  C   UNL     1      -4.295  13.725  22.800  0.00  0.00    +0.000 C 
ATOM     34  N   UNL     1      -5.398  13.883  23.113  0.00  0.00    +0.000 NA
ENDBRANCH  28  33
ENDBRANCH  24  32
ENDBRANCH   1  24
TORSDOF 6
ENDMDL
MODEL 5
REMARK VINA RESULT:      -6.4      5.183      6.637
REMARK  Name = 
REMARK  8 active torsions:
REMARK  status: ('A' for Active; 'I' for Inactive)
REMARK    1  A    between atoms: C_1  and  C_2
REMARK    2  A    between atoms: C_4  and  C_5
REMARK    3  A    between atoms: C_8  and  C_9
REMARK    4  A    between atoms: C_10  and  O_11
REMARK    5  A    between atoms: O_11  and  C_12
REMARK    6  A    between atoms: N_15  and  C_16
REMARK    7  A    between atoms: C_19  and  C_20
REMARK    8  A    between atoms: C_26  and  C_27
REMARK                            x       y       z     vdW  Elec       q    Type
REMARK                         _______ _______ _______ _____ _____    ______ ____
ROOT
ATOM      1  C   UNL     1      -0.581  11.678  18.850  0.00  0.00    +0.000 A 
ATOM      2  N   UNL     1       0.702  11.256  18.758  0.00  0.00    +0.000 NA
ATOM      3  C   UNL     1       0.902  10.044  18.235  0.00  0.00    +0.000 A 
ATOM      4  N   UNL     1       2.181   9.508  18.344  0.00  0.00    +0.000 N 
ATOM      5  N   UNL     1      -0.074   9.311  17.689  0.00  0.00    +0.000 NA
ATOM      6  C   UNL     1      -1.311   9.833  17.681  0.00  0.00    +0.000 A 
ATOM      7  C   UNL     1      -1.667  11.036  18.256  0.00  0.00    +0.000 A 
ATOM      8  H   UNL     1       2.830  10.184  18.717  0.00  0.00    +0.000 HD
ENDROOT
BRANCH   7   9
ATOM      9  C   UNL     1      -3.062  11.523  18.165  0.00  0.00    +0.000 A 
ATOM     10  C   UNL     1      -3.826  11.761  19.329  0.00  0.00    +0.000 A 
ATOM     11  C   UNL     1      -5.187  12.079  19.263  0.00  0.00    +0.000 A 
ATOM     12  C   UNL     1      -5.809  12.189  18.027  0.00  0.00    +0.000 A 
ATOM     13 CL   UNL     1      -7.488  12.553  17.942  0.00  0.00    +0.000 Cl
ATOM     14  C   UNL     1      -5.080  11.990  16.860  0.00  0.00    +0.000 A 
ATOM     15  C   UNL     1      -3.719  11.657  16.931  0.00  0.00    +0.000 A 
ENDBRANCH   7   9
BRANCH   4  16
ATOM     16  C   UNL     1       2.545   8.158  18.451  0.00  0.00    +0.000 A 
ATOM     17  C   UNL     1       2.142   7.433  19.578  0.00  0.00    +0.000 A 
ATOM     18  C   UNL     1       2.611   6.134  19.799  0.00  0.00    +0.000 A 
ATOM     19  C   UNL     1       3.472   5.528  18.881  0.00  0.00    +0.000 A 
ATOM     20  C   UNL     1       3.840   6.222  17.724  0.00  0.00    +0.000 A 
ATOM     21  C   UNL     1       3.379   7.523  17.518  0.00  0.00    +0.000 A 
BRANCH  19  22
ATOM     22  C   UNL     1       4.008   4.224  19.135  0.00  0.00    +0.000 C 
ATOM     23  N   UNL     1       4.429   3.167  19.350  0.00  0.00    +0.000 NA
ENDBRANCH  19  22
ENDBRANCH   4  16
BRANCH   1  24
ATOM     24  O   UNL     1      -0.839  12.806  19.616  0.00  0.00    +0.000 OA
BRANCH  24  32
ATOM     25  C   UNL     1      -0.389  10.412  21.560  0.00  0.00    +0.000 C 
ATOM     26  C   UNL     1      -1.287  11.603  21.759  0.00  0.00    +0.000 A 
ATOM     27  C   UNL     1      -2.065  11.589  22.936  0.00  0.00    +0.000 A 
ATOM     28  C   UNL     1      -2.958  12.615  23.238  0.00  0.00    +0.000 A 
ATOM     29  C   UNL     1      -3.069  13.700  22.374  0.00  0.00    +0.000 A 
ATOM     30  C   UNL     1      -2.295  13.762  21.201  0.00  0.00    +0.000 A 
ATOM     31  C   UNL     1      -2.463  14.954  20.296  0.00  0.00    +0.000 C 
ATOM     32  C   UNL     1      -1.399  12.709  20.882  0.00  0.00    +0.000 A 
BRANCH  28  33
ATOM     33  C   UNL     1      -3.765  12.538  24.423  0.00  0.00    +0.000 C 
ATOM     34  N   UNL     1      -4.404  12.475  25.386  0.00  0.00    +0.000 NA
ENDBRANCH  28  33
ENDBRANCH  24  32
ENDBRANCH   1  24
TORSDOF 6
ENDMDL
MODEL 6
REMARK VINA RESULT:      -6.3      4.789      7.084
REMARK  Name = 
REMARK  8 active torsions:
REMARK  status: ('A' for Active; 'I' for Inactive)
REMARK    1  A    between atoms: C_1  and  C_2
REMARK    2  A    between atoms: C_4  and  C_5
REMARK    3  A    between atoms: C_8  and  C_9
REMARK    4  A    between atoms: C_10  and  O_11
REMARK    5  A    between atoms: O_11  and  C_12
REMARK    6  A    between atoms: N_15  and  C_16
REMARK    7  A    between atoms: C_19  and  C_20
REMARK    8  A    between atoms: C_26  and  C_27
REMARK                            x       y       z     vdW  Elec       q    Type
REMARK                         _______ _______ _______ _____ _____    ______ ____
ROOT
ATOM      1  C   UNL     1      -1.184  12.117  18.579  0.00  0.00    +0.000 A 
ATOM      2  N   UNL     1       0.097  11.702  18.438  0.00  0.00    +0.000 NA
ATOM      3  C   UNL     1       0.290  10.394  18.258  0.00  0.00    +0.000 A 
ATOM      4  N   UNL     1       1.598   9.927  18.341  0.00  0.00    +0.000 N 
ATOM      5  N   UNL     1      -0.708   9.523  18.080  0.00  0.00    +0.000 NA
ATOM      6  C   UNL     1      -1.961  10.004  18.090  0.00  0.00    +0.000 A 
ATOM      7  C   UNL     1      -2.303  11.318  18.344  0.00  0.00    +0.000 A 
ATOM      8  H   UNL     1       2.255  10.690  18.416  0.00  0.00    +0.000 HD
ENDROOT
BRANCH   7   9
ATOM      9  C   UNL     1      -3.720  11.741  18.307  0.00  0.00    +0.000 A 
ATOM     10  C   UNL     1      -4.446  11.745  17.095  0.00  0.00    +0.000 A 
ATOM     11  C   UNL     1      -5.737  12.279  17.012  0.00  0.00    +0.000 A 
ATOM     12  C   UNL     1      -6.340  12.800  18.148  0.00  0.00    +0.000 A 
ATOM     13 CL   UNL     1      -7.916  13.481  18.045  0.00  0.00    +0.000 Cl
ATOM     14  C   UNL     1      -5.666  12.786  19.364  0.00  0.00    +0.000 A 
ATOM     15  C   UNL     1      -4.366  12.263  19.440  0.00  0.00    +0.000 A 
ENDBRANCH   7   9
BRANCH   4  16
ATOM     16  C   UNL     1       2.040   8.670  18.777  0.00  0.00    +0.000 A 
ATOM     17  C   UNL     1       2.718   7.839  17.877  0.00  0.00    +0.000 A 
ATOM     18  C   UNL     1       3.040   6.522  18.222  0.00  0.00    +0.000 A 
ATOM     19  C   UNL     1       2.709   6.021  19.484  0.00  0.00    +0.000 A 
ATOM     20  C   UNL     1       2.078   6.858  20.410  0.00  0.00    +0.000 A 
ATOM     21  C   UNL     1       1.748   8.166  20.054  0.00  0.00    +0.000 A 
BRANCH  19  22
ATOM     22  C   UNL     1       2.975   4.654  19.818  0.00  0.00    +0.000 C 
ATOM     23  N   UNL     1       3.190   3.545  20.072  0.00  0.00    +0.000 NA
ENDBRANCH  19  22
ENDBRANCH   4  16
BRANCH   1  24
ATOM     24  O   UNL     1      -1.400  13.414  19.022  0.00  0.00    +0.000 OA
BRANCH  24  32
ATOM     25  C   UNL     1      -1.481  12.233  21.905  0.00  0.00    +0.000 C 
ATOM     26  C   UNL     1      -0.777  13.480  21.440  0.00  0.00    +0.000 A 
ATOM     27  C   UNL     1      -0.141  14.232  22.450  0.00  0.00    +0.000 A 
ATOM     28  C   UNL     1       0.529  15.421  22.168  0.00  0.00    +0.000 A 
ATOM     29  C   UNL     1       0.600  15.869  20.853  0.00  0.00    +0.000 A 
ATOM     30  C   UNL     1      -0.003  15.137  19.814  0.00  0.00    +0.000 A 
ATOM     31  C   UNL     1       0.096  15.673  18.410  0.00  0.00    +0.000 C 
ATOM     32  C   UNL     1      -0.702  13.936  20.102  0.00  0.00    +0.000 A 
BRANCH  28  33
ATOM     33  C   UNL     1       1.122  16.180  23.233  0.00  0.00    +0.000 C 
ATOM     34  N   UNL     1       1.605  16.780  24.097  0.00  0.00    +0.000 NA
ENDBRANCH  28  33
ENDBRANCH  24  32
ENDBRANCH   1  24
TORSDOF 6
ENDMDL
MODEL 7
REMARK VINA RESULT:      -6.3      5.324      6.626
REMARK  Name = 
REMARK  8 active torsions:
REMARK  status: ('A' for Active; 'I' for Inactive)
REMARK    1  A    between atoms: C_1  and  C_2
REMARK    2  A    between atoms: C_4  and  C_5
REMARK    3  A    between atoms: C_8  and  C_9
REMARK    4  A    between atoms: C_10  and  O_11
REMARK    5  A    between atoms: O_11  and  C_12
REMARK    6  A    between atoms: N_15  and  C_16
REMARK    7  A    between atoms: C_19  and  C_20
REMARK    8  A    between atoms: C_26  and  C_27
REMARK                            x       y       z     vdW  Elec       q    Type
REMARK                         _______ _______ _______ _____ _____    ______ ____
ROOT
ATOM      1  C   UNL     1      -1.166  11.839  18.858  0.00  0.00    +0.000 A 
ATOM      2  N   UNL     1       0.142  11.514  18.731  0.00  0.00    +0.000 NA
ATOM      3  C   UNL     1       0.417  10.306  18.234  0.00  0.00    +0.000 A 
ATOM      4  N   UNL     1       1.736   9.872  18.312  0.00  0.00    +0.000 N 
ATOM      5  N   UNL     1      -0.517   9.484  17.745  0.00  0.00    +0.000 NA
ATOM      6  C   UNL     1      -1.790   9.909  17.767  0.00  0.00    +0.000 A 
ATOM      7  C   UNL     1      -2.219  11.099  18.322  0.00  0.00    +0.000 A 
ATOM      8  H   UNL     1       2.344  10.607  18.642  0.00  0.00    +0.000 HD
ENDROOT
BRANCH   7   9
ATOM      9  C   UNL     1      -3.649  11.475  18.268  0.00  0.00    +0.000 A 
ATOM     10  C   UNL     1      -4.248  11.878  17.054  0.00  0.00    +0.000 A 
ATOM     11  C   UNL     1      -5.555  12.378  17.009  0.00  0.00    +0.000 A 
ATOM     12  C   UNL     1      -6.300  12.462  18.177  0.00  0.00    +0.000 A 
ATOM     13 CL   UNL     1      -7.896  13.100  18.131  0.00  0.00    +0.000 Cl
ATOM     14  C   UNL     1      -5.751  12.046  19.385  0.00  0.00    +0.000 A 
ATOM     15  C   UNL     1      -4.436  11.560  19.428  0.00  0.00    +0.000 A 
ENDBRANCH   7   9
BRANCH   4  16
ATOM     16  C   UNL     1       2.207   8.557  18.442  0.00  0.00    +0.000 A 
ATOM     17  C   UNL     1       1.889   7.834  19.597  0.00  0.00    +0.000 A 
ATOM     18  C   UNL     1       2.463   6.581  19.837  0.00  0.00    +0.000 A 
ATOM     19  C   UNL     1       3.347   6.020  18.912  0.00  0.00    +0.000 A 
ATOM     20  C   UNL     1       3.632   6.710  17.729  0.00  0.00    +0.000 A 
ATOM     21  C   UNL     1       3.066   7.965  17.504  0.00  0.00    +0.000 A 
BRANCH  19  22
ATOM     22  C   UNL     1       3.989   4.768  19.184  0.00  0.00    +0.000 C 
ATOM     23  N   UNL     1       4.500   3.755  19.418  0.00  0.00    +0.000 NA
ENDBRANCH  19  22
ENDBRANCH   4  16
BRANCH   1  24
ATOM     24  O   UNL     1      -1.483  12.967  19.602  0.00  0.00    +0.000 OA
BRANCH  24  32
ATOM     25  C   UNL     1      -0.531  10.803  21.634  0.00  0.00    +0.000 C 
ATOM     26  C   UNL     1      -1.593  11.852  21.835  0.00  0.00    +0.000 A 
ATOM     27  C   UNL     1      -2.279  11.794  23.066  0.00  0.00    +0.000 A 
ATOM     28  C   UNL     1      -3.302  12.688  23.378  0.00  0.00    +0.000 A 
ATOM     29  C   UNL     1      -3.641  13.683  22.468  0.00  0.00    +0.000 A 
ATOM     30  C   UNL     1      -2.966  13.787  21.238  0.00  0.00    +0.000 A 
ATOM     31  C   UNL     1      -3.380  14.877  20.285  0.00  0.00    +0.000 C 
ATOM     32  C   UNL     1      -1.937  12.867  20.910  0.00  0.00    +0.000 A 
BRANCH  28  33
ATOM     33  C   UNL     1      -4.007  12.564  24.623  0.00  0.00    +0.000 C 
ATOM     34  N   UNL     1      -4.585  12.470  25.621  0.00  0.00    +0.000 NA
ENDBRANCH  28  33
ENDBRANCH  24  32
ENDBRANCH   1  24
TORSDOF 6
ENDMDL
MODEL 8
REMARK VINA RESULT:      -6.3      4.004      8.146
REMARK  Name = 
REMARK  8 active torsions:
REMARK  status: ('A' for Active; 'I' for Inactive)
REMARK    1  A    between atoms: C_1  and  C_2
REMARK    2  A    between atoms: C_4  and  C_5
REMARK    3  A    between atoms: C_8  and  C_9
REMARK    4  A    between atoms: C_10  and  O_11
REMARK    5  A    between atoms: O_11  and  C_12
REMARK    6  A    between atoms: N_15  and  C_16
REMARK    7  A    between atoms: C_19  and  C_20
REMARK    8  A    between atoms: C_26  and  C_27
REMARK                            x       y       z     vdW  Elec       q    Type
REMARK                         _______ _______ _______ _____ _____    ______ ____
ROOT
ATOM      1  C   UNL     1       0.775  11.981  21.132  0.00  0.00    +0.000 A 
ATOM      2  N   UNL     1       1.405  11.244  20.187  0.00  0.00    +0.000 NA
ATOM      3  C   UNL     1       1.003   9.979  20.041  0.00  0.00    +0.000 A 
ATOM      4  N   UNL     1       1.786   9.151  19.244  0.00  0.00    +0.000 N 
ATOM      5  N   UNL     1      -0.057   9.470  20.676  0.00  0.00    +0.000 NA
ATOM      6  C   UNL     1      -0.736  10.282  21.501  0.00  0.00    +0.000 A 
ATOM      7  C   UNL     1      -0.381  11.582  21.802  0.00  0.00    +0.000 A 
ATOM      8  H   UNL     1       2.514   9.672  18.779  0.00  0.00    +0.000 HD
ENDROOT
BRANCH   7   9
ATOM      9  C   UNL     1      -1.220  12.394  22.711  0.00  0.00    +0.000 A 
ATOM     10  C   UNL     1      -2.528  11.984  23.052  0.00  0.00    +0.000 A 
ATOM     11  C   UNL     1      -3.388  12.806  23.789  0.00  0.00    +0.000 A 
ATOM     12  C   UNL     1      -2.948  14.050  24.222  0.00  0.00    +0.000 A 
ATOM     13 CL   UNL     1      -4.011  15.074  25.105  0.00  0.00    +0.000 Cl
ATOM     14  C   UNL     1      -1.656  14.472  23.929  0.00  0.00    +0.000 A 
ATOM     15  C   UNL     1      -0.803  13.651  23.178  0.00  0.00    +0.000 A 
ENDBRANCH   7   9
BRANCH   4  16
ATOM     16  C   UNL     1       1.981   7.767  19.366  0.00  0.00    +0.000 A 
ATOM     17  C   UNL     1       2.361   7.033  18.238  0.00  0.00    +0.000 A 
ATOM     18  C   UNL     1       2.417   5.635  18.279  0.00  0.00    +0.000 A 
ATOM     19  C   UNL     1       2.115   4.951  19.459  0.00  0.00    +0.000 A 
ATOM     20  C   UNL     1       1.784   5.676  20.608  0.00  0.00    +0.000 A 
ATOM     21  C   UNL     1       1.718   7.069  20.555  0.00  0.00    +0.000 A 
BRANCH  19  22
ATOM     22  C   UNL     1       2.105   3.518  19.488  0.00  0.00    +0.000 C 
ATOM     23  N   UNL     1       2.097   2.361  19.528  0.00  0.00    +0.000 NA
ENDBRANCH  19  22
ENDBRANCH   4  16
BRANCH   1  24
ATOM     24  O   UNL     1       1.337  13.200  21.483  0.00  0.00    +0.000 OA
BRANCH  24  32
ATOM     25  C   UNL     1      -0.971  14.312  19.708  0.00  0.00    +0.000 C 
ATOM     26  C   UNL     1       0.484  14.698  19.675  0.00  0.00    +0.000 A 
ATOM     27  C   UNL     1       0.846  15.622  18.672  0.00  0.00    +0.000 A 
ATOM     28  C   UNL     1       2.163  16.051  18.510  0.00  0.00    +0.000 A 
ATOM     29  C   UNL     1       3.145  15.581  19.376  0.00  0.00    +0.000 A 
ATOM     30  C   UNL     1       2.820  14.676  20.403  0.00  0.00    +0.000 A 
ATOM     31  C   UNL     1       3.925  14.192  21.305  0.00  0.00    +0.000 C 
ATOM     32  C   UNL     1       1.485  14.223  20.557  0.00  0.00    +0.000 A 
BRANCH  28  33
ATOM     33  C   UNL     1       2.496  16.955  17.447  0.00  0.00    +0.000 C 
ATOM     34  N   UNL     1       2.752  17.682  16.583  0.00  0.00    +0.000 NA
ENDBRANCH  28  33
ENDBRANCH  24  32
ENDBRANCH   1  24
TORSDOF 6
ENDMDL
MODEL 9
REMARK VINA RESULT:      -6.2      4.461      7.294
REMARK  Name = 
REMARK  8 active torsions:
REMARK  status: ('A' for Active; 'I' for Inactive)
REMARK    1  A    between atoms: C_1  and  C_2
REMARK    2  A    between atoms: C_4  and  C_5
REMARK    3  A    between atoms: C_8  and  C_9
REMARK    4  A    between atoms: C_10  and  O_11
REMARK    5  A    between atoms: O_11  and  C_12
REMARK    6  A    between atoms: N_15  and  C_16
REMARK    7  A    between atoms: C_19  and  C_20
REMARK    8  A    between atoms: C_26  and  C_27
REMARK                            x       y       z     vdW  Elec       q    Type
REMARK                         _______ _______ _______ _____ _____    ______ ____
ROOT
ATOM      1  C   UNL     1       0.172  10.615  19.215  0.00  0.00    +0.000 A 
ATOM      2  N   UNL     1       0.586   9.641  18.370  0.00  0.00    +0.000 NA
ATOM      3  C   UNL     1       1.371   8.691  18.884  0.00  0.00    +0.000 A 
ATOM      4  N   UNL     1       1.986   7.822  17.989  0.00  0.00    +0.000 N 
ATOM      5  N   UNL     1       1.643   8.591  20.189  0.00  0.00    +0.000 NA
ATOM      6  C   UNL     1       1.096   9.503  21.008  0.00  0.00    +0.000 A 
ATOM      7  C   UNL     1       0.333  10.579  20.599  0.00  0.00    +0.000 A 
ATOM      8  H   UNL     1       1.650   7.966  17.048  0.00  0.00    +0.000 HD
ENDROOT
BRANCH   7   9
ATOM      9  C   UNL     1      -0.240  11.510  21.597  0.00  0.00    +0.000 A 
ATOM     10  C   UNL     1      -1.459  11.217  22.247  0.00  0.00    +0.000 A 
ATOM     11  C   UNL     1      -2.091  12.148  23.080  0.00  0.00    +0.000 A 
ATOM     12  C   UNL     1      -1.501  13.386  23.300  0.00  0.00    +0.000 A 
ATOM     13 CL   UNL     1      -2.287  14.542  24.301  0.00  0.00    +0.000 Cl
ATOM     14  C   UNL     1      -0.286  13.695  22.699  0.00  0.00    +0.000 A 
ATOM     15  C   UNL     1       0.335  12.766  21.853  0.00  0.00    +0.000 A 
ENDBRANCH   7   9
BRANCH   4  16
ATOM     16  C   UNL     1       3.225   7.177  18.123  0.00  0.00    +0.000 A 
ATOM     17  C   UNL     1       4.278   7.548  17.280  0.00  0.00    +0.000 A 
ATOM     18  C   UNL     1       5.478   6.829  17.275  0.00  0.00    +0.000 A 
ATOM     19  C   UNL     1       5.652   5.740  18.134  0.00  0.00    +0.000 A 
ATOM     20  C   UNL     1       4.627   5.393  19.019  0.00  0.00    +0.000 A 
ATOM     21  C   UNL     1       3.428   6.107  19.007  0.00  0.00    +0.000 A 
BRANCH  19  22
ATOM     22  C   UNL     1       6.853   4.959  18.086  0.00  0.00    +0.000 C 
ATOM     23  N   UNL     1       7.831   4.340  18.055  0.00  0.00    +0.000 NA
ENDBRANCH  19  22
ENDBRANCH   4  16
BRANCH   1  24
ATOM     24  O   UNL     1      -0.420  11.741  18.663  0.00  0.00    +0.000 OA
BRANCH  24  32
ATOM     25  C   UNL     1       2.571  12.095  17.864  0.00  0.00    +0.000 C 
ATOM     26  C   UNL     1       1.616  13.154  18.346  0.00  0.00    +0.000 A 
ATOM     27  C   UNL     1       2.170  14.440  18.521  0.00  0.00    +0.000 A 
ATOM     28  C   UNL     1       1.407  15.510  18.985  0.00  0.00    +0.000 A 
ATOM     29  C   UNL     1       0.056  15.319  19.258  0.00  0.00    +0.000 A 
ATOM     30  C   UNL     1      -0.538  14.057  19.076  0.00  0.00    +0.000 A 
ATOM     31  C   UNL     1      -2.002  13.904  19.397  0.00  0.00    +0.000 C 
ATOM     32  C   UNL     1       0.241  12.961  18.623  0.00  0.00    +0.000 A 
BRANCH  28  33
ATOM     33  C   UNL     1       2.022  16.791  19.193  0.00  0.00    +0.000 C 
ATOM     34  N   UNL     1       2.528  17.817  19.367  0.00  0.00    +0.000 NA
ENDBRANCH  28  33
ENDBRANCH  24  32
ENDBRANCH   1  24
TORSDOF 6
ENDMDL
