MODEL 1
REMARK VINA RESULT:      -8.0      0.000      0.000
REMARK  Name = 
REMARK  3 active torsions:
REMARK  status: ('A' for Active; 'I' for Inactive)
REMARK    1  A    between atoms: C_3  and  C_4
REMARK    2  A    between atoms: N_12  and  C_13
REMARK    3  A    between atoms: C_17  and  N_18
REMARK                            x       y       z     vdW  Elec       q    Type
REMARK                         _______ _______ _______ _____ _____    ______ ____
ROOT
ATOM      1  O   UNL     1       3.614   3.891  16.356  0.00  0.00    +0.000 OA
ATOM      2  C   UNL     1       4.697   4.084  16.886  0.00  0.00    +0.000 A 
ATOM      3  C   UNL     1       4.920   4.162  18.365  0.00  0.00    +0.000 A 
ATOM      4  C   UNL     1       6.236   4.398  18.482  0.00  0.00    +0.000 A 
ATOM      5  N   UNL     1       6.925   4.406  17.288  0.00  0.00    +0.000 N 
ATOM      6  N   UNL     1       5.950   4.268  16.292  0.00  0.00    +0.000 N 
ATOM      7  H   UNL     1       7.498   5.245  17.181  0.00  0.00    +0.000 HD
ENDROOT
BRANCH   3   8
ATOM      8  C   UNL     1       3.918   4.013  19.416  0.00  0.00    +0.000 A 
ATOM      9  C   UNL     1       3.738   2.795  20.084  0.00  0.00    +0.000 A 
ATOM     10  C   UNL     1       2.758   2.660  21.072  0.00  0.00    +0.000 A 
ATOM     11  C   UNL     1       1.946   3.743  21.404  0.00  0.00    +0.000 A 
ATOM     12  C   UNL     1       2.120   4.962  20.756  0.00  0.00    +0.000 A 
ATOM     13  C   UNL     1       3.100   5.097  19.772  0.00  0.00    +0.000 A 
ENDBRANCH   3   8
BRANCH   6  14
ATOM     14  C   UNL     1       6.292   4.281  14.929  0.00  0.00    +0.000 A 
ATOM     15  C   UNL     1       7.316   5.116  14.459  0.00  0.00    +0.000 A 
ATOM     16  C   UNL     1       7.684   5.121  13.112  0.00  0.00    +0.000 A 
ATOM     17  C   UNL     1       7.007   4.315  12.201  0.00  0.00    +0.000 A 
ATOM     18  C   UNL     1       5.963   3.496  12.654  0.00  0.00    +0.000 A 
ATOM     19  C   UNL     1       5.617   3.461  14.015  0.00  0.00    +0.000 A 
BRANCH  18  20
ATOM     20  N   UNL     1       5.212   2.685  11.692  0.00  0.00    +0.000 N 
ATOM     21  O   UNL     1       4.147   3.144  11.257  0.00  0.00    +0.000 OA
ATOM     22  O   UNL     1       5.686   1.586  11.370  0.00  0.00    +0.000 OA
ENDBRANCH  18  20
ENDBRANCH   6  14
TORSDOF 3
ENDMDL
MODEL 2
REMARK VINA RESULT:      -8.0      0.055      1.252
REMARK  Name = 
REMARK  3 active torsions:
REMARK  status: ('A' for Active; 'I' for Inactive)
REMARK    1  A    between atoms: C_3  and  C_4
REMARK    2  A    between atoms: N_12  and  C_13
REMARK    3  A    between atoms: C_17  and  N_18
REMARK                            x       y       z     vdW  Elec       q    Type
REMARK                         _______ _______ _______ _____ _____    ______ ____
ROOT
ATOM      1  O   UNL     1       3.648   3.881  16.343  0.00  0.00    +0.000 OA
ATOM      2  C   UNL     1       4.725   4.101  16.874  0.00  0.00    +0.000 A 
ATOM      3  C   UNL     1       4.940   4.206  18.354  0.00  0.00    +0.000 A 
ATOM      4  C   UNL     1       6.250   4.468  18.473  0.00  0.00    +0.000 A 
ATOM      5  N   UNL     1       6.944   4.471  17.282  0.00  0.00    +0.000 N 
ATOM      6  N   UNL     1       5.977   4.300  16.284  0.00  0.00    +0.000 N 
ATOM      7  H   UNL     1       7.503   5.318  17.164  0.00  0.00    +0.000 HD
ENDROOT
BRANCH   3   8
ATOM      8  C   UNL     1       3.935   4.054  19.401  0.00  0.00    +0.000 A 
ATOM      9  C   UNL     1       3.122   5.127  19.793  0.00  0.00    +0.000 A 
ATOM     10  C   UNL     1       2.179   4.972  20.813  0.00  0.00    +0.000 A 
ATOM     11  C   UNL     1       2.038   3.744  21.455  0.00  0.00    +0.000 A 
ATOM     12  C   UNL     1       2.831   2.667  21.071  0.00  0.00    +0.000 A 
ATOM     13  C   UNL     1       3.770   2.821  20.050  0.00  0.00    +0.000 A 
ENDBRANCH   3   8
BRANCH   6  14
ATOM     14  C   UNL     1       6.325   4.298  14.922  0.00  0.00    +0.000 A 
ATOM     15  C   UNL     1       7.366   5.113  14.452  0.00  0.00    +0.000 A 
ATOM     16  C   UNL     1       7.741   5.103  13.106  0.00  0.00    +0.000 A 
ATOM     17  C   UNL     1       7.053   4.303  12.197  0.00  0.00    +0.000 A 
ATOM     18  C   UNL     1       5.993   3.506  12.650  0.00  0.00    +0.000 A 
ATOM     19  C   UNL     1       5.640   3.485  14.009  0.00  0.00    +0.000 A 
BRANCH  18  20
ATOM     20  N   UNL     1       5.231   2.702  11.690  0.00  0.00    +0.000 N 
ATOM     21  O   UNL     1       5.710   1.615  11.340  0.00  0.00    +0.000 OA
ATOM     22  O   UNL     1       4.152   3.158  11.285  0.00  0.00    +0.000 OA
ENDBRANCH  18  20
ENDBRANCH   6  14
TORSDOF 3
ENDMDL
MODEL 3
REMARK VINA RESULT:      -7.8      4.257      6.057
REMARK  Name = 
REMARK  3 active torsions:
REMARK  status: ('A' for Active; 'I' for Inactive)
REMARK    1  A    between atoms: C_3  and  C_4
REMARK    2  A    between atoms: N_12  and  C_13
REMARK    3  A    between atoms: C_17  and  N_18
REMARK                            x       y       z     vdW  Elec       q    Type
REMARK                         _______ _______ _______ _____ _____    ______ ____
ROOT
ATOM      1  O   UNL     1       2.159   6.659  20.493  0.00  0.00    +0.000 OA
ATOM      2  C   UNL     1       2.159   7.447  19.561  0.00  0.00    +0.000 A 
ATOM      3  C   UNL     1       1.479   8.782  19.574  0.00  0.00    +0.000 A 
ATOM      4  C   UNL     1       1.726   9.283  18.355  0.00  0.00    +0.000 A 
ATOM      5  N   UNL     1       2.542   8.499  17.568  0.00  0.00    +0.000 N 
ATOM      6  N   UNL     1       2.760   7.328  18.304  0.00  0.00    +0.000 N 
ATOM      7  H   UNL     1       2.138   8.328  16.645  0.00  0.00    +0.000 HD
ENDROOT
BRANCH   3   8
ATOM      8  C   UNL     1       0.726   9.376  20.675  0.00  0.00    +0.000 A 
ATOM      9  C   UNL     1      -0.143  10.455  20.466  0.00  0.00    +0.000 A 
ATOM     10  C   UNL     1      -0.840  11.028  21.534  0.00  0.00    +0.000 A 
ATOM     11  C   UNL     1      -0.676  10.528  22.824  0.00  0.00    +0.000 A 
ATOM     12  C   UNL     1       0.176   9.451  23.046  0.00  0.00    +0.000 A 
ATOM     13  C   UNL     1       0.869   8.878  21.979  0.00  0.00    +0.000 A 
ENDBRANCH   3   8
BRANCH   6  14
ATOM     14  C   UNL     1       3.523   6.269  17.783  0.00  0.00    +0.000 A 
ATOM     15  C   UNL     1       2.997   4.970  17.731  0.00  0.00    +0.000 A 
ATOM     16  C   UNL     1       3.733   3.912  17.193  0.00  0.00    +0.000 A 
ATOM     17  C   UNL     1       5.028   4.129  16.729  0.00  0.00    +0.000 A 
ATOM     18  C   UNL     1       5.575   5.418  16.801  0.00  0.00    +0.000 A 
ATOM     19  C   UNL     1       4.822   6.490  17.306  0.00  0.00    +0.000 A 
BRANCH  18  20
ATOM     20  N   UNL     1       6.956   5.642  16.364  0.00  0.00    +0.000 N 
ATOM     21  O   UNL     1       7.530   4.719  15.769  0.00  0.00    +0.000 OA
ATOM     22  O   UNL     1       7.468   6.743  16.614  0.00  0.00    +0.000 OA
ENDBRANCH  18  20
ENDBRANCH   6  14
TORSDOF 3
ENDMDL
MODEL 4
REMARK VINA RESULT:      -7.8      4.133      6.067
REMARK  Name = 
REMARK  3 active torsions:
REMARK  status: ('A' for Active; 'I' for Inactive)
REMARK    1  A    between atoms: C_3  and  C_4
REMARK    2  A    between atoms: N_12  and  C_13
REMARK    3  A    between atoms: C_17  and  N_18
REMARK                            x       y       z     vdW  Elec       q    Type
REMARK                         _______ _______ _______ _____ _____    ______ ____
ROOT
ATOM      1  O   UNL     1       1.946   6.403  20.673  0.00  0.00    +0.000 OA
ATOM      2  C   UNL     1       2.086   7.182  19.743  0.00  0.00    +0.000 A 
ATOM      3  C   UNL     1       1.554   8.582  19.717  0.00  0.00    +0.000 A 
ATOM      4  C   UNL     1       1.926   9.047  18.515  0.00  0.00    +0.000 A 
ATOM      5  N   UNL     1       2.699   8.176  17.777  0.00  0.00    +0.000 N 
ATOM      6  N   UNL     1       2.745   6.992  18.524  0.00  0.00    +0.000 N 
ATOM      7  H   UNL     1       2.334   8.045  16.832  0.00  0.00    +0.000 HD
ENDROOT
BRANCH   3   8
ATOM      8  C   UNL     1       0.805   9.259  20.772  0.00  0.00    +0.000 A 
ATOM      9  C   UNL     1       0.918   8.866  22.112  0.00  0.00    +0.000 A 
ATOM     10  C   UNL     1       0.178   9.509  23.109  0.00  0.00    +0.000 A 
ATOM     11  C   UNL     1      -0.684  10.552  22.777  0.00  0.00    +0.000 A 
ATOM     12  C   UNL     1      -0.800  10.959  21.452  0.00  0.00    +0.000 A 
ATOM     13  C   UNL     1      -0.059  10.319  20.457  0.00  0.00    +0.000 A 
ENDBRANCH   3   8
BRANCH   6  14
ATOM     14  C   UNL     1       3.420   5.855  18.049  0.00  0.00    +0.000 A 
ATOM     15  C   UNL     1       2.705   4.708  17.671  0.00  0.00    +0.000 A 
ATOM     16  C   UNL     1       3.359   3.579  17.172  0.00  0.00    +0.000 A 
ATOM     17  C   UNL     1       4.748   3.564  17.077  0.00  0.00    +0.000 A 
ATOM     18  C   UNL     1       5.475   4.694  17.477  0.00  0.00    +0.000 A 
ATOM     19  C   UNL     1       4.817   5.844  17.942  0.00  0.00    +0.000 A 
BRANCH  18  20
ATOM     20  N   UNL     1       6.940   4.665  17.429  0.00  0.00    +0.000 N 
ATOM     21  O   UNL     1       7.552   4.624  18.505  0.00  0.00    +0.000 OA
ATOM     22  O   UNL     1       7.481   4.682  16.314  0.00  0.00    +0.000 OA
ENDBRANCH  18  20
ENDBRANCH   6  14
TORSDOF 3
ENDMDL
MODEL 5
REMARK VINA RESULT:      -7.8      4.709      6.483
REMARK  Name = 
REMARK  3 active torsions:
REMARK  status: ('A' for Active; 'I' for Inactive)
REMARK    1  A    between atoms: C_3  and  C_4
REMARK    2  A    between atoms: N_12  and  C_13
REMARK    3  A    between atoms: C_17  and  N_18
REMARK                            x       y       z     vdW  Elec       q    Type
REMARK                         _______ _______ _______ _____ _____    ______ ____
ROOT
ATOM      1  O   UNL     1       2.313   8.628  17.169  0.00  0.00    +0.000 OA
ATOM      2  C   UNL     1       2.226   8.152  18.290  0.00  0.00    +0.000 A 
ATOM      3  C   UNL     1       1.484   8.783  19.429  0.00  0.00    +0.000 A 
ATOM      4  C   UNL     1       1.671   7.932  20.448  0.00  0.00    +0.000 A 
ATOM      5  N   UNL     1       2.366   6.787  20.119  0.00  0.00    +0.000 N 
ATOM      6  N   UNL     1       2.759   6.959  18.786  0.00  0.00    +0.000 N 
ATOM      7  H   UNL     1       3.148   6.616  20.754  0.00  0.00    +0.000 HD
ENDROOT
BRANCH   3   8
ATOM      8  C   UNL     1       0.738  10.038  19.406  0.00  0.00    +0.000 A 
ATOM      9  C   UNL     1      -0.335  10.231  18.527  0.00  0.00    +0.000 A 
ATOM     10  C   UNL     1      -1.026  11.446  18.500  0.00  0.00    +0.000 A 
ATOM     11  C   UNL     1      -0.652  12.483  19.352  0.00  0.00    +0.000 A 
ATOM     12  C   UNL     1       0.406  12.302  20.238  0.00  0.00    +0.000 A 
ATOM     13  C   UNL     1       1.094  11.088  20.266  0.00  0.00    +0.000 A 
ENDBRANCH   3   8
BRANCH   6  14
ATOM     14  C   UNL     1       3.537   5.993  18.125  0.00  0.00    +0.000 A 
ATOM     15  C   UNL     1       2.969   4.774  17.724  0.00  0.00    +0.000 A 
ATOM     16  C   UNL     1       3.722   3.814  17.043  0.00  0.00    +0.000 A 
ATOM     17  C   UNL     1       5.071   4.043  16.782  0.00  0.00    +0.000 A 
ATOM     18  C   UNL     1       5.656   5.246  17.203  0.00  0.00    +0.000 A 
ATOM     19  C   UNL     1       4.891   6.227  17.852  0.00  0.00    +0.000 A 
BRANCH  18  20
ATOM     20  N   UNL     1       7.087   5.470  16.978  0.00  0.00    +0.000 N 
ATOM     21  O   UNL     1       7.869   4.562  17.290  0.00  0.00    +0.000 OA
ATOM     22  O   UNL     1       7.431   6.556  16.489  0.00  0.00    +0.000 OA
ENDBRANCH  18  20
ENDBRANCH   6  14
TORSDOF 3
ENDMDL
MODEL 6
REMARK VINA RESULT:      -7.8      4.828      6.559
REMARK  Name = 
REMARK  3 active torsions:
REMARK  status: ('A' for Active; 'I' for Inactive)
REMARK    1  A    between atoms: C_3  and  C_4
REMARK    2  A    between atoms: N_12  and  C_13
REMARK    3  A    between atoms: C_17  and  N_18
REMARK                            x       y       z     vdW  Elec       q    Type
REMARK                         _______ _______ _______ _____ _____    ______ ____
ROOT
ATOM      1  O   UNL     1       2.125   8.863  17.278  0.00  0.00    +0.000 OA
ATOM      2  C   UNL     1       2.070   8.353  18.386  0.00  0.00    +0.000 A 
ATOM      3  C   UNL     1       1.345   8.939  19.559  0.00  0.00    +0.000 A 
ATOM      4  C   UNL     1       1.567   8.061  20.548  0.00  0.00    +0.000 A 
ATOM      5  N   UNL     1       2.270   6.937  20.170  0.00  0.00    +0.000 N 
ATOM      6  N   UNL     1       2.632   7.154  18.834  0.00  0.00    +0.000 N 
ATOM      7  H   UNL     1       3.069   6.758  20.782  0.00  0.00    +0.000 HD
ENDROOT
BRANCH   3   8
ATOM      8  C   UNL     1       0.581  10.183  19.589  0.00  0.00    +0.000 A 
ATOM      9  C   UNL     1       1.025  11.293  20.319  0.00  0.00    +0.000 A 
ATOM     10  C   UNL     1       0.272  12.470  20.357  0.00  0.00    +0.000 A 
ATOM     11  C   UNL     1      -0.935  12.551  19.666  0.00  0.00    +0.000 A 
ATOM     12  C   UNL     1      -1.385  11.459  18.929  0.00  0.00    +0.000 A 
ATOM     13  C   UNL     1      -0.631  10.285  18.889  0.00  0.00    +0.000 A 
ENDBRANCH   3   8
BRANCH   6  14
ATOM     14  C   UNL     1       3.407   6.219  18.127  0.00  0.00    +0.000 A 
ATOM     15  C   UNL     1       2.897   4.946  17.833  0.00  0.00    +0.000 A 
ATOM     16  C   UNL     1       3.647   4.015  17.109  0.00  0.00    +0.000 A 
ATOM     17  C   UNL     1       4.939   4.330  16.697  0.00  0.00    +0.000 A 
ATOM     18  C   UNL     1       5.470   5.590  17.009  0.00  0.00    +0.000 A 
ATOM     19  C   UNL     1       4.704   6.540  17.702  0.00  0.00    +0.000 A 
BRANCH  18  20
ATOM     20  N   UNL     1       6.848   5.909  16.624  0.00  0.00    +0.000 N 
ATOM     21  O   UNL     1       7.209   7.091  16.700  0.00  0.00    +0.000 OA
ATOM     22  O   UNL     1       7.571   4.976  16.245  0.00  0.00    +0.000 OA
ENDBRANCH  18  20
ENDBRANCH   6  14
TORSDOF 3
ENDMDL
MODEL 7
REMARK VINA RESULT:      -7.7      2.595      7.460
REMARK  Name = 
REMARK  3 active torsions:
REMARK  status: ('A' for Active; 'I' for Inactive)
REMARK    1  A    between atoms: C_3  and  C_4
REMARK    2  A    between atoms: N_12  and  C_13
REMARK    3  A    between atoms: C_17  and  N_18
REMARK                            x       y       z     vdW  Elec       q    Type
REMARK                         _______ _______ _______ _____ _____    ______ ____
ROOT
ATOM      1  O   UNL     1       4.433   3.367  16.662  0.00  0.00    +0.000 OA
ATOM      2  C   UNL     1       4.563   4.581  16.661  0.00  0.00    +0.000 A 
ATOM      3  C   UNL     1       5.285   5.359  15.602  0.00  0.00    +0.000 A 
ATOM      4  C   UNL     1       5.191   6.632  16.016  0.00  0.00    +0.000 A 
ATOM      5  N   UNL     1       4.440   6.809  17.158  0.00  0.00    +0.000 N 
ATOM      6  N   UNL     1       4.101   5.520  17.588  0.00  0.00    +0.000 N 
ATOM      7  H   UNL     1       4.937   7.355  17.865  0.00  0.00    +0.000 HD
ENDROOT
BRANCH   3   8
ATOM      8  C   UNL     1       5.931   4.828  14.406  0.00  0.00    +0.000 A 
ATOM      9  C   UNL     1       7.213   5.245  14.024  0.00  0.00    +0.000 A 
ATOM     10  C   UNL     1       7.810   4.744  12.864  0.00  0.00    +0.000 A 
ATOM     11  C   UNL     1       7.133   3.819  12.071  0.00  0.00    +0.000 A 
ATOM     12  C   UNL     1       5.863   3.388  12.443  0.00  0.00    +0.000 A 
ATOM     13  C   UNL     1       5.268   3.887  13.603  0.00  0.00    +0.000 A 
ENDBRANCH   3   8
BRANCH   6  14
ATOM     14  C   UNL     1       3.364   5.314  18.766  0.00  0.00    +0.000 A 
ATOM     15  C   UNL     1       2.530   6.323  19.271  0.00  0.00    +0.000 A 
ATOM     16  C   UNL     1       1.772   6.123  20.427  0.00  0.00    +0.000 A 
ATOM     17  C   UNL     1       1.862   4.920  21.122  0.00  0.00    +0.000 A 
ATOM     18  C   UNL     1       2.713   3.914  20.641  0.00  0.00    +0.000 A 
ATOM     19  C   UNL     1       3.446   4.098  19.458  0.00  0.00    +0.000 A 
BRANCH  18  20
ATOM     20  N   UNL     1       2.853   2.665  21.396  0.00  0.00    +0.000 N 
ATOM     21  O   UNL     1       1.871   2.264  22.036  0.00  0.00    +0.000 OA
ATOM     22  O   UNL     1       3.946   2.082  21.349  0.00  0.00    +0.000 OA
ENDBRANCH  18  20
ENDBRANCH   6  14
TORSDOF 3
ENDMDL
MODEL 8
REMARK VINA RESULT:      -7.7      1.043      1.127
REMARK  Name = 
REMARK  3 active torsions:
REMARK  status: ('A' for Active; 'I' for Inactive)
REMARK    1  A    between atoms: C_3  and  C_4
REMARK    2  A    between atoms: N_12  and  C_13
REMARK    3  A    between atoms: C_17  and  N_18
REMARK                            x       y       z     vdW  Elec       q    Type
REMARK                         _______ _______ _______ _____ _____    ______ ____
ROOT
ATOM      1  O   UNL     1       4.209   2.677  16.758  0.00  0.00    +0.000 OA
ATOM      2  C   UNL     1       4.337   3.884  16.891  0.00  0.00    +0.000 A 
ATOM      3  C   UNL     1       3.792   4.678  18.039  0.00  0.00    +0.000 A 
ATOM      4  C   UNL     1       4.154   5.939  17.761  0.00  0.00    +0.000 A 
ATOM      5  N   UNL     1       4.932   6.076  16.631  0.00  0.00    +0.000 N 
ATOM      6  N   UNL     1       4.993   4.798  16.061  0.00  0.00    +0.000 N 
ATOM      7  H   UNL     1       4.564   6.787  15.995  0.00  0.00    +0.000 HD
ENDROOT
BRANCH   3   8
ATOM      8  C   UNL     1       3.041   4.169  19.183  0.00  0.00    +0.000 A 
ATOM      9  C   UNL     1       3.601   3.234  20.064  0.00  0.00    +0.000 A 
ATOM     10  C   UNL     1       2.862   2.738  21.142  0.00  0.00    +0.000 A 
ATOM     11  C   UNL     1       1.555   3.173  21.353  0.00  0.00    +0.000 A 
ATOM     12  C   UNL     1       0.989   4.109  20.493  0.00  0.00    +0.000 A 
ATOM     13  C   UNL     1       1.728   4.605  19.418  0.00  0.00    +0.000 A 
ENDBRANCH   3   8
BRANCH   6  14
ATOM     14  C   UNL     1       5.676   4.569  14.854  0.00  0.00    +0.000 A 
ATOM     15  C   UNL     1       6.913   5.184  14.607  0.00  0.00    +0.000 A 
ATOM     16  C   UNL     1       7.615   4.946  13.424  0.00  0.00    +0.000 A 
ATOM     17  C   UNL     1       7.074   4.115  12.447  0.00  0.00    +0.000 A 
ATOM     18  C   UNL     1       5.825   3.517  12.671  0.00  0.00    +0.000 A 
ATOM     19  C   UNL     1       5.136   3.724  13.876  0.00  0.00    +0.000 A 
BRANCH  18  20
ATOM     20  N   UNL     1       5.226   2.683  11.625  0.00  0.00    +0.000 N 
ATOM     21  O   UNL     1       4.154   3.060  11.131  0.00  0.00    +0.000 OA
ATOM     22  O   UNL     1       5.827   1.651  11.295  0.00  0.00    +0.000 OA
ENDBRANCH  18  20
ENDBRANCH   6  14
TORSDOF 3
ENDMDL
MODEL 9
REMARK VINA RESULT:      -7.6      2.514      7.413
REMARK  Name = 
REMARK  3 active torsions:
REMARK  status: ('A' for Active; 'I' for Inactive)
REMARK    1  A    between atoms: C_3  and  C_4
REMARK    2  A    between atoms: N_12  and  C_13
REMARK    3  A    between atoms: C_17  and  N_18
REMARK                            x       y       z     vdW  Elec       q    Type
REMARK                         _______ _______ _______ _____ _____    ______ ____
ROOT
ATOM      1  O   UNL     1       3.818   4.040  16.048  0.00  0.00    +0.000 OA
ATOM      2  C   UNL     1       4.722   4.661  16.584  0.00  0.00    +0.000 A 
ATOM      3  C   UNL     1       6.016   5.025  15.922  0.00  0.00    +0.000 A 
ATOM      4  C   UNL     1       6.697   5.675  16.877  0.00  0.00    +0.000 A 
ATOM      5  N   UNL     1       6.000   5.861  18.052  0.00  0.00    +0.000 N 
ATOM      6  N   UNL     1       4.791   5.174  17.883  0.00  0.00    +0.000 N 
ATOM      7  H   UNL     1       6.532   5.551  18.868  0.00  0.00    +0.000 HD
ENDROOT
BRANCH   3   8
ATOM      8  C   UNL     1       6.417   4.727  14.550  0.00  0.00    +0.000 A 
ATOM      9  C   UNL     1       5.761   3.745  13.796  0.00  0.00    +0.000 A 
ATOM     10  C   UNL     1       6.170   3.455  12.491  0.00  0.00    +0.000 A 
ATOM     11  C   UNL     1       7.241   4.143  11.925  0.00  0.00    +0.000 A 
ATOM     12  C   UNL     1       7.897   5.127  12.658  0.00  0.00    +0.000 A 
ATOM     13  C   UNL     1       7.486   5.418  13.960  0.00  0.00    +0.000 A 
ENDBRANCH   3   8
BRANCH   6  14
ATOM     14  C   UNL     1       3.838   5.111  18.913  0.00  0.00    +0.000 A 
ATOM     15  C   UNL     1       3.015   6.212  19.193  0.00  0.00    +0.000 A 
ATOM     16  C   UNL     1       2.046   6.155  20.197  0.00  0.00    +0.000 A 
ATOM     17  C   UNL     1       1.906   5.003  20.966  0.00  0.00    +0.000 A 
ATOM     18  C   UNL     1       2.741   3.905  20.714  0.00  0.00    +0.000 A 
ATOM     19  C   UNL     1       3.689   3.947  19.680  0.00  0.00    +0.000 A 
BRANCH  18  20
ATOM     20  N   UNL     1       2.634   2.709  21.554  0.00  0.00    +0.000 N 
ATOM     21  O   UNL     1       1.542   2.475  22.090  0.00  0.00    +0.000 OA
ATOM     22  O   UNL     1       3.644   2.001  21.680  0.00  0.00    +0.000 OA
ENDBRANCH  18  20
ENDBRANCH   6  14
TORSDOF 3
ENDMDL
