MODEL 1
REMARK VINA RESULT:      -7.0      0.000      0.000
REMARK  Name = 
REMARK  12 active torsions:
REMARK  status: ('A' for Active; 'I' for Inactive)
REMARK    1  A    between atoms: C_1  and  C_2
REMARK    2  A    between atoms: C_2  and  C_3
REMARK    3  A    between atoms: C_2  and  C_4
REMARK    4  A    between atoms: C_4  and  C_5
REMARK    5  A    between atoms: C_6  and  C_7
REMARK    6  A    between atoms: C_7  and  C_9
REMARK    7  A    between atoms: C_13  and  O_14
REMARK    8  A    between atoms: O_14  and  C_15
REMARK    9  A    between atoms: C_15  and  C_16
REMARK   10  A    between atoms: C_16  and  O_18
REMARK   11  A    between atoms: N_27  and  C_28
REMARK   12  A    between atoms: C_28  and  C_29
REMARK                            x       y       z     vdW  Elec       q    Type
REMARK                         _______ _______ _______ _____ _____    ______ ____
ROOT
ATOM      1  C   UNL     1      -2.067  12.308  21.142  0.00  0.00    +0.000 A 
ATOM      2  C   UNL     1      -0.977  11.531  20.753  0.00  0.00    +0.000 A 
ATOM      3  C   UNL     1      -1.249  11.030  19.434  0.00  0.00    +0.000 A 
ATOM      4  C   UNL     1      -0.532  10.167  18.554  0.00  0.00    +0.000 A 
ATOM      5  C   UNL     1      -1.031   9.916  17.277  0.00  0.00    +0.000 A 
ATOM      6  C   UNL     1      -2.245  10.433  16.852  0.00  0.00    +0.000 A 
ATOM      7  C   UNL     1      -2.689  10.108  15.560  0.00  0.00    +0.000 A 
ATOM      8  C   UNL     1      -3.918  10.550  15.088  0.00  0.00    +0.000 A 
ATOM      9  C   UNL     1      -4.726  11.312  15.915  0.00  0.00    +0.000 A 
ATOM     10  C   UNL     1      -4.299  11.646  17.205  0.00  0.00    +0.000 A 
ATOM     11  C   UNL     1      -3.040  11.236  17.709  0.00  0.00    +0.000 A 
ATOM     12  C   UNL     1      -2.504  11.550  19.021  0.00  0.00    +0.000 A 
ATOM     13  N   UNL     1      -2.987  12.318  20.093  0.00  0.00    +0.000 N 
ENDROOT
BRANCH   2  14
ATOM     14  C   UNL     1       0.207  11.302  21.599  0.00  0.00    +0.000 C 
ATOM     15  O   UNL     1       1.174  12.068  21.609  0.00  0.00    +0.000 OA
BRANCH  14  16
ATOM     16  C   UNL     1       0.364  10.105  22.538  0.00  0.00    +0.000 C 
ATOM     17  N   UNL     1       1.039   9.042  21.975  0.00  0.00    +0.000 N 
ATOM     18  O   UNL     1      -0.136  10.067  23.649  0.00  0.00    +0.000 OA
ATOM     19  H   UNL     1       1.163   9.056  20.966  0.00  0.00    +0.000 HD
ATOM     20  H   UNL     1       0.937   8.143  22.423  0.00  0.00    +0.000 HD
ENDBRANCH  14  16
ENDBRANCH   2  14
BRANCH   1  21
ATOM     21  C   UNL     1      -2.223  13.095  22.428  0.00  0.00    +0.000 C 
BRANCH  21  23
ATOM     22  C   UNL     1      -1.945  15.465  21.640  0.00  0.00    +0.000 C 
ATOM     23  C   UNL     1      -1.355  14.365  22.525  0.00  0.00    +0.000 C 
ATOM     24  C   UNL     1      -1.177  14.894  23.942  0.00  0.00    +0.000 C 
ENDBRANCH  21  23
ENDBRANCH   1  21
BRANCH   4  25
ATOM     25  O   UNL     1       0.600   9.521  19.025  0.00  0.00    +0.000 OA
BRANCH  25  26
ATOM     26  C   UNL     1       1.616   9.197  18.067  0.00  0.00    +0.000 C 
BRANCH  26  27
ATOM     27  C   UNL     1       2.444   7.967  18.440  0.00  0.00    +0.000 C 
ATOM     28  O   UNL     1       3.316   7.489  17.731  0.00  0.00    +0.000 OA
BRANCH  27  29
ATOM     29  O   UNL     1       2.136   7.466  19.659  0.00  0.00    +0.000 OA
ATOM     30  H   UNL     1       1.396   6.824  19.597  0.00  0.00    +0.000 HD
ENDBRANCH  27  29
ENDBRANCH  26  27
ENDBRANCH  25  26
ENDBRANCH   4  25
BRANCH  13  31
ATOM     31  C   UNL     1      -4.201  13.155  20.075  0.00  0.00    +0.000 C 
BRANCH  31  32
ATOM     32  C   UNL     1      -5.431  12.554  20.737  0.00  0.00    +0.000 A 
ATOM     33  C   UNL     1      -6.186  11.599  20.024  0.00  0.00    +0.000 A 
ATOM     34  C   UNL     1      -7.389  11.097  20.533  0.00  0.00    +0.000 A 
ATOM     35  C   UNL     1      -7.847  11.516  21.777  0.00  0.00    +0.000 A 
ATOM     36  C   UNL     1      -7.070  12.392  22.534  0.00  0.00    +0.000 A 
ATOM     37  C   UNL     1      -5.866  12.893  22.027  0.00  0.00    +0.000 A 
ENDBRANCH  31  32
ENDBRANCH  13  31
TORSDOF 10
ENDMDL
MODEL 2
REMARK VINA RESULT:      -6.7      0.413      1.119
REMARK  Name = 
REMARK  12 active torsions:
REMARK  status: ('A' for Active; 'I' for Inactive)
REMARK    1  A    between atoms: C_1  and  C_2
REMARK    2  A    between atoms: C_2  and  C_3
REMARK    3  A    between atoms: C_2  and  C_4
REMARK    4  A    between atoms: C_4  and  C_5
REMARK    5  A    between atoms: C_6  and  C_7
REMARK    6  A    between atoms: C_7  and  C_9
REMARK    7  A    between atoms: C_13  and  O_14
REMARK    8  A    between atoms: O_14  and  C_15
REMARK    9  A    between atoms: C_15  and  C_16
REMARK   10  A    between atoms: C_16  and  O_18
REMARK   11  A    between atoms: N_27  and  C_28
REMARK   12  A    between atoms: C_28  and  C_29
REMARK                            x       y       z     vdW  Elec       q    Type
REMARK                         _______ _______ _______ _____ _____    ______ ____
ROOT
ATOM      1  C   UNL     1      -2.183  12.355  21.082  0.00  0.00    +0.000 A 
ATOM      2  C   UNL     1      -1.077  11.579  20.740  0.00  0.00    +0.000 A 
ATOM      3  C   UNL     1      -1.307  11.048  19.425  0.00  0.00    +0.000 A 
ATOM      4  C   UNL     1      -0.557  10.173  18.585  0.00  0.00    +0.000 A 
ATOM      5  C   UNL     1      -1.017   9.891  17.300  0.00  0.00    +0.000 A 
ATOM      6  C   UNL     1      -2.222  10.389  16.828  0.00  0.00    +0.000 A 
ATOM      7  C   UNL     1      -2.625  10.034  15.531  0.00  0.00    +0.000 A 
ATOM      8  C   UNL     1      -3.844  10.456  15.014  0.00  0.00    +0.000 A 
ATOM      9  C   UNL     1      -4.681  11.229  15.801  0.00  0.00    +0.000 A 
ATOM     10  C   UNL     1      -4.294  11.594  17.096  0.00  0.00    +0.000 A 
ATOM     11  C   UNL     1      -3.048  11.203  17.645  0.00  0.00    +0.000 A 
ATOM     12  C   UNL     1      -2.553  11.549  18.965  0.00  0.00    +0.000 A 
ATOM     13  N   UNL     1      -3.072  12.336  20.006  0.00  0.00    +0.000 N 
ENDROOT
BRANCH   2  14
ATOM     14  C   UNL     1       0.083  11.376  21.625  0.00  0.00    +0.000 C 
ATOM     15  O   UNL     1       1.011  12.187  21.700  0.00  0.00    +0.000 OA
BRANCH  14  16
ATOM     16  C   UNL     1       0.264  10.156  22.529  0.00  0.00    +0.000 C 
ATOM     17  N   UNL     1       0.932   9.112  21.925  0.00  0.00    +0.000 N 
ATOM     18  O   UNL     1      -0.216  10.086  23.648  0.00  0.00    +0.000 OA
ATOM     19  H   UNL     1       1.037   9.153  20.916  0.00  0.00    +0.000 HD
ATOM     20  H   UNL     1       0.843   8.201  22.351  0.00  0.00    +0.000 HD
ENDBRANCH  14  16
ENDBRANCH   2  14
BRANCH   1  21
ATOM     21  C   UNL     1      -2.383  13.167  22.346  0.00  0.00    +0.000 C 
BRANCH  21  23
ATOM     22  C   UNL     1      -1.189  14.874  20.940  0.00  0.00    +0.000 C 
ATOM     23  C   UNL     1      -1.944  14.641  22.250  0.00  0.00    +0.000 C 
ATOM     24  C   UNL     1      -3.087  15.642  22.362  0.00  0.00    +0.000 C 
ENDBRANCH  21  23
ENDBRANCH   1  21
BRANCH   4  25
ATOM     25  O   UNL     1       0.564   9.546  19.102  0.00  0.00    +0.000 OA
BRANCH  25  26
ATOM     26  C   UNL     1       1.587   9.161  18.173  0.00  0.00    +0.000 C 
BRANCH  26  27
ATOM     27  C   UNL     1       2.416   7.961  18.632  0.00  0.00    +0.000 C 
ATOM     28  O   UNL     1       2.252   7.383  19.696  0.00  0.00    +0.000 OA
BRANCH  27  29
ATOM     29  O   UNL     1       3.347   7.577  17.727  0.00  0.00    +0.000 OA
ATOM     30  H   UNL     1       2.953   6.987  17.049  0.00  0.00    +0.000 HD
ENDBRANCH  27  29
ENDBRANCH  26  27
ENDBRANCH  25  26
ENDBRANCH   4  25
BRANCH  13  31
ATOM     31  C   UNL     1      -4.291  13.162  19.935  0.00  0.00    +0.000 C 
BRANCH  31  32
ATOM     32  C   UNL     1      -5.552  12.537  20.512  0.00  0.00    +0.000 A 
ATOM     33  C   UNL     1      -6.034  13.006  21.753  0.00  0.00    +0.000 A 
ATOM     34  C   UNL     1      -7.120  12.394  22.388  0.00  0.00    +0.000 A 
ATOM     35  C   UNL     1      -7.765  11.320  21.784  0.00  0.00    +0.000 A 
ATOM     36  C   UNL     1      -7.358  10.900  20.518  0.00  0.00    +0.000 A 
ATOM     37  C   UNL     1      -6.274  11.513  19.881  0.00  0.00    +0.000 A 
ENDBRANCH  31  32
ENDBRANCH  13  31
TORSDOF 10
ENDMDL
MODEL 3
REMARK VINA RESULT:      -6.7      3.397      7.381
REMARK  Name = 
REMARK  12 active torsions:
REMARK  status: ('A' for Active; 'I' for Inactive)
REMARK    1  A    between atoms: C_1  and  C_2
REMARK    2  A    between atoms: C_2  and  C_3
REMARK    3  A    between atoms: C_2  and  C_4
REMARK    4  A    between atoms: C_4  and  C_5
REMARK    5  A    between atoms: C_6  and  C_7
REMARK    6  A    between atoms: C_7  and  C_9
REMARK    7  A    between atoms: C_13  and  O_14
REMARK    8  A    between atoms: O_14  and  C_15
REMARK    9  A    between atoms: C_15  and  C_16
REMARK   10  A    between atoms: C_16  and  O_18
REMARK   11  A    between atoms: N_27  and  C_28
REMARK   12  A    between atoms: C_28  and  C_29
REMARK                            x       y       z     vdW  Elec       q    Type
REMARK                         _______ _______ _______ _____ _____    ______ ____
ROOT
ATOM      1  C   UNL     1      -1.683  12.037  19.273  0.00  0.00    +0.000 A 
ATOM      2  C   UNL     1      -3.017  11.735  19.002  0.00  0.00    +0.000 A 
ATOM      3  C   UNL     1      -3.821  12.390  19.995  0.00  0.00    +0.000 A 
ATOM      4  C   UNL     1      -5.224  12.417  20.248  0.00  0.00    +0.000 A 
ATOM      5  C   UNL     1      -5.725  13.224  21.268  0.00  0.00    +0.000 A 
ATOM      6  C   UNL     1      -4.891  13.963  22.093  0.00  0.00    +0.000 A 
ATOM      7  C   UNL     1      -5.476  14.728  23.114  0.00  0.00    +0.000 A 
ATOM      8  C   UNL     1      -4.696  15.452  24.008  0.00  0.00    +0.000 A 
ATOM      9  C   UNL     1      -3.317  15.404  23.897  0.00  0.00    +0.000 A 
ATOM     10  C   UNL     1      -2.718  14.646  22.883  0.00  0.00    +0.000 A 
ATOM     11  C   UNL     1      -3.482  13.918  21.939  0.00  0.00    +0.000 A 
ATOM     12  C   UNL     1      -2.952  13.125  20.844  0.00  0.00    +0.000 A 
ATOM     13  N   UNL     1      -1.648  12.878  20.385  0.00  0.00    +0.000 N 
ENDROOT
BRANCH   2  14
ATOM     14  C   UNL     1      -3.450  10.880  17.884  0.00  0.00    +0.000 C 
ATOM     15  O   UNL     1      -3.380   9.648  17.925  0.00  0.00    +0.000 OA
BRANCH  14  16
ATOM     16  C   UNL     1      -4.019  11.416  16.570  0.00  0.00    +0.000 C 
ATOM     17  N   UNL     1      -3.173  11.256  15.492  0.00  0.00    +0.000 N 
ATOM     18  O   UNL     1      -5.083  12.007  16.503  0.00  0.00    +0.000 OA
ATOM     19  H   UNL     1      -2.207  11.018  15.695  0.00  0.00    +0.000 HD
ATOM     20  H   UNL     1      -3.357  11.821  14.676  0.00  0.00    +0.000 HD
ENDBRANCH  14  16
ENDBRANCH   2  14
BRANCH   1  21
ATOM     21  C   UNL     1      -0.465  11.624  18.470  0.00  0.00    +0.000 C 
BRANCH  21  23
ATOM     22  C   UNL     1       1.397   9.982  18.077  0.00  0.00    +0.000 C 
ATOM     23  C   UNL     1       0.023  10.183  18.721  0.00  0.00    +0.000 C 
ATOM     24  C   UNL     1       0.089   9.792  20.191  0.00  0.00    +0.000 C 
ENDBRANCH  21  23
ENDBRANCH   1  21
BRANCH   4  25
ATOM     25  O   UNL     1      -6.049  11.564  19.534  0.00  0.00    +0.000 OA
BRANCH  25  26
ATOM     26  C   UNL     1      -7.306  11.216  20.129  0.00  0.00    +0.000 C 
BRANCH  26  27
ATOM     27  C   UNL     1      -7.489   9.715  20.351  0.00  0.00    +0.000 C 
ATOM     28  O   UNL     1      -7.597   9.194  21.451  0.00  0.00    +0.000 OA
BRANCH  27  29
ATOM     29  O   UNL     1      -7.546   9.007  19.199  0.00  0.00    +0.000 OA
ATOM     30  H   UNL     1      -7.818   8.080  19.370  0.00  0.00    +0.000 HD
ENDBRANCH  27  29
ENDBRANCH  26  27
ENDBRANCH  25  26
ENDBRANCH   4  25
BRANCH  13  31
ATOM     31  C   UNL     1      -0.422  13.530  20.883  0.00  0.00    +0.000 C 
BRANCH  31  32
ATOM     32  C   UNL     1       0.094  14.694  20.051  0.00  0.00    +0.000 A 
ATOM     33  C   UNL     1      -0.802  15.726  19.699  0.00  0.00    +0.000 A 
ATOM     34  C   UNL     1      -0.416  16.762  18.842  0.00  0.00    +0.000 A 
ATOM     35  C   UNL     1       0.882  16.806  18.343  0.00  0.00    +0.000 A 
ATOM     36  C   UNL     1       1.805  15.844  18.750  0.00  0.00    +0.000 A 
ATOM     37  C   UNL     1       1.421  14.809  19.609  0.00  0.00    +0.000 A 
ENDBRANCH  31  32
ENDBRANCH  13  31
TORSDOF 10
ENDMDL
MODEL 4
REMARK VINA RESULT:      -6.6      3.614      6.042
REMARK  Name = 
REMARK  12 active torsions:
REMARK  status: ('A' for Active; 'I' for Inactive)
REMARK    1  A    between atoms: C_1  and  C_2
REMARK    2  A    between atoms: C_2  and  C_3
REMARK    3  A    between atoms: C_2  and  C_4
REMARK    4  A    between atoms: C_4  and  C_5
REMARK    5  A    between atoms: C_6  and  C_7
REMARK    6  A    between atoms: C_7  and  C_9
REMARK    7  A    between atoms: C_13  and  O_14
REMARK    8  A    between atoms: O_14  and  C_15
REMARK    9  A    between atoms: C_15  and  C_16
REMARK   10  A    between atoms: C_16  and  O_18
REMARK   11  A    between atoms: N_27  and  C_28
REMARK   12  A    between atoms: C_28  and  C_29
REMARK                            x       y       z     vdW  Elec       q    Type
REMARK                         _______ _______ _______ _____ _____    ______ ____
ROOT
ATOM      1  C   UNL     1      -1.805  13.359  21.659  0.00  0.00    +0.000 A 
ATOM      2  C   UNL     1      -3.192  13.503  21.684  0.00  0.00    +0.000 A 
ATOM      3  C   UNL     1      -3.713  12.903  20.488  0.00  0.00    +0.000 A 
ATOM      4  C   UNL     1      -5.030  12.779  19.956  0.00  0.00    +0.000 A 
ATOM      5  C   UNL     1      -5.234  12.060  18.780  0.00  0.00    +0.000 A 
ATOM      6  C   UNL     1      -4.180  11.506  18.069  0.00  0.00    +0.000 A 
ATOM      7  C   UNL     1      -4.469  10.820  16.879  0.00  0.00    +0.000 A 
ATOM      8  C   UNL     1      -3.457  10.284  16.092  0.00  0.00    +0.000 A 
ATOM      9  C   UNL     1      -2.139  10.444  16.484  0.00  0.00    +0.000 A 
ATOM     10  C   UNL     1      -1.833  11.125  17.668  0.00  0.00    +0.000 A 
ATOM     11  C   UNL     1      -2.840  11.660  18.508  0.00  0.00    +0.000 A 
ATOM     12  C   UNL     1      -2.621  12.360  19.762  0.00  0.00    +0.000 A 
ATOM     13  N   UNL     1      -1.465  12.667  20.497  0.00  0.00    +0.000 N 
ENDROOT
BRANCH   2  14
ATOM     14  C   UNL     1      -3.924  14.173  22.772  0.00  0.00    +0.000 C 
ATOM     15  O   UNL     1      -3.787  15.374  23.023  0.00  0.00    +0.000 OA
BRANCH  14  16
ATOM     16  C   UNL     1      -4.913  13.464  23.698  0.00  0.00    +0.000 C 
ATOM     17  N   UNL     1      -4.528  12.186  24.047  0.00  0.00    +0.000 N 
ATOM     18  O   UNL     1      -5.980  13.954  24.025  0.00  0.00    +0.000 OA
ATOM     19  H   UNL     1      -3.779  11.765  23.505  0.00  0.00    +0.000 HD
ATOM     20  H   UNL     1      -5.243  11.575  24.414  0.00  0.00    +0.000 HD
ENDBRANCH  14  16
ENDBRANCH   2  14
BRANCH   1  21
ATOM     21  C   UNL     1      -0.817  13.781  22.728  0.00  0.00    +0.000 C 
BRANCH  21  23
ATOM     22  C   UNL     1      -0.657  15.764  21.191  0.00  0.00    +0.000 C 
ATOM     23  C   UNL     1      -0.197  15.178  22.528  0.00  0.00    +0.000 C 
ATOM     24  C   UNL     1      -0.504  16.164  23.647  0.00  0.00    +0.000 C 
ENDBRANCH  21  23
ENDBRANCH   1  21
BRANCH   4  25
ATOM     25  O   UNL     1      -6.068  13.461  20.572  0.00  0.00    +0.000 OA
BRANCH  25  26
ATOM     26  C   UNL     1      -7.352  12.824  20.588  0.00  0.00    +0.000 C 
BRANCH  26  27
ATOM     27  C   UNL     1      -7.396  11.547  21.428  0.00  0.00    +0.000 C 
ATOM     28  O   UNL     1      -7.374  10.419  20.960  0.00  0.00    +0.000 OA
BRANCH  27  29
ATOM     29  O   UNL     1      -7.437  11.785  22.760  0.00  0.00    +0.000 OA
ATOM     30  H   UNL     1      -7.761  12.693  22.945  0.00  0.00    +0.000 HD
ENDBRANCH  27  29
ENDBRANCH  26  27
ENDBRANCH  25  26
ENDBRANCH   4  25
BRANCH  13  31
ATOM     31  C   UNL     1      -0.101  12.194  20.193  0.00  0.00    +0.000 C 
BRANCH  31  32
ATOM     32  C   UNL     1       0.194  10.745  20.548  0.00  0.00    +0.000 A 
ATOM     33  C   UNL     1      -0.335  10.220  21.747  0.00  0.00    +0.000 A 
ATOM     34  C   UNL     1      -0.005   8.932  22.184  0.00  0.00    +0.000 A 
ATOM     35  C   UNL     1       0.837   8.132  21.418  0.00  0.00    +0.000 A 
ATOM     36  C   UNL     1       1.298   8.601  20.189  0.00  0.00    +0.000 A 
ATOM     37  C   UNL     1       0.966   9.888  19.750  0.00  0.00    +0.000 A 
ENDBRANCH  31  32
ENDBRANCH  13  31
TORSDOF 10
ENDMDL
MODEL 5
REMARK VINA RESULT:      -6.6      1.897      2.546
REMARK  Name = 
REMARK  12 active torsions:
REMARK  status: ('A' for Active; 'I' for Inactive)
REMARK    1  A    between atoms: C_1  and  C_2
REMARK    2  A    between atoms: C_2  and  C_3
REMARK    3  A    between atoms: C_2  and  C_4
REMARK    4  A    between atoms: C_4  and  C_5
REMARK    5  A    between atoms: C_6  and  C_7
REMARK    6  A    between atoms: C_7  and  C_9
REMARK    7  A    between atoms: C_13  and  O_14
REMARK    8  A    between atoms: O_14  and  C_15
REMARK    9  A    between atoms: C_15  and  C_16
REMARK   10  A    between atoms: C_16  and  O_18
REMARK   11  A    between atoms: N_27  and  C_28
REMARK   12  A    between atoms: C_28  and  C_29
REMARK                            x       y       z     vdW  Elec       q    Type
REMARK                         _______ _______ _______ _____ _____    ______ ____
ROOT
ATOM      1  C   UNL     1      -2.601  13.428  21.121  0.00  0.00    +0.000 A 
ATOM      2  C   UNL     1      -1.340  12.847  20.998  0.00  0.00    +0.000 A 
ATOM      3  C   UNL     1      -1.361  12.006  19.834  0.00  0.00    +0.000 A 
ATOM      4  C   UNL     1      -0.392  11.146  19.238  0.00  0.00    +0.000 A 
ATOM      5  C   UNL     1      -0.689  10.500  18.039  0.00  0.00    +0.000 A 
ATOM      6  C   UNL     1      -1.930  10.619  17.432  0.00  0.00    +0.000 A 
ATOM      7  C   UNL     1      -2.156   9.912  16.240  0.00  0.00    +0.000 A 
ATOM      8  C   UNL     1      -3.392   9.946  15.606  0.00  0.00    +0.000 A 
ATOM      9  C   UNL     1      -4.422  10.678  16.171  0.00  0.00    +0.000 A 
ATOM     10  C   UNL     1      -4.213  11.389  17.358  0.00  0.00    +0.000 A 
ATOM     11  C   UNL     1      -2.959  11.400  18.017  0.00  0.00    +0.000 A 
ATOM     12  C   UNL     1      -2.643  12.121  19.236  0.00  0.00    +0.000 A 
ATOM     13  N   UNL     1      -3.385  12.989  20.055  0.00  0.00    +0.000 N 
ENDROOT
BRANCH   2  14
ATOM     14  C   UNL     1      -0.233  13.091  21.939  0.00  0.00    +0.000 C 
ATOM     15  O   UNL     1      -0.147  12.514  23.027  0.00  0.00    +0.000 OA
BRANCH  14  16
ATOM     16  C   UNL     1       0.909  14.073  21.676  0.00  0.00    +0.000 C 
ATOM     17  N   UNL     1       0.485  15.323  21.273  0.00  0.00    +0.000 N 
ATOM     18  O   UNL     1       2.084  13.753  21.733  0.00  0.00    +0.000 OA
ATOM     19  H   UNL     1      -0.484  15.410  20.981  0.00  0.00    +0.000 HD
ATOM     20  H   UNL     1       1.166  15.918  20.825  0.00  0.00    +0.000 HD
ENDBRANCH  14  16
ENDBRANCH   2  14
BRANCH   1  21
ATOM     21  C   UNL     1      -3.052  14.436  22.160  0.00  0.00    +0.000 C 
BRANCH  21  23
ATOM     22  C   UNL     1      -3.517  12.314  23.423  0.00  0.00    +0.000 C 
ATOM     23  C   UNL     1      -3.718  13.831  23.411  0.00  0.00    +0.000 C 
ATOM     24  C   UNL     1      -3.226  14.418  24.727  0.00  0.00    +0.000 C 
ENDBRANCH  21  23
ENDBRANCH   1  21
BRANCH   4  25
ATOM     25  O   UNL     1       0.790  10.898  19.916  0.00  0.00    +0.000 OA
BRANCH  25  26
ATOM     26  C   UNL     1       1.075   9.535  20.259  0.00  0.00    +0.000 C 
BRANCH  26  27
ATOM     27  C   UNL     1       0.500   9.106  21.609  0.00  0.00    +0.000 C 
ATOM     28  O   UNL     1      -0.297   8.191  21.753  0.00  0.00    +0.000 OA
BRANCH  27  29
ATOM     29  O   UNL     1       0.981   9.828  22.649  0.00  0.00    +0.000 OA
ATOM     30  H   UNL     1       1.395  10.661  22.336  0.00  0.00    +0.000 HD
ENDBRANCH  27  29
ENDBRANCH  26  27
ENDBRANCH  25  26
ENDBRANCH   4  25
BRANCH  13  31
ATOM     31  C   UNL     1      -4.735  13.504  19.761  0.00  0.00    +0.000 C 
BRANCH  31  32
ATOM     32  C   UNL     1      -5.890  12.728  20.374  0.00  0.00    +0.000 A 
ATOM     33  C   UNL     1      -6.560  13.275  21.489  0.00  0.00    +0.000 A 
ATOM     34  C   UNL     1      -7.552  12.558  22.166  0.00  0.00    +0.000 A 
ATOM     35  C   UNL     1      -7.916  11.289  21.725  0.00  0.00    +0.000 A 
ATOM     36  C   UNL     1      -7.327  10.768  20.573  0.00  0.00    +0.000 A 
ATOM     37  C   UNL     1      -6.337  11.487  19.895  0.00  0.00    +0.000 A 
ENDBRANCH  31  32
ENDBRANCH  13  31
TORSDOF 10
ENDMDL
MODEL 6
REMARK VINA RESULT:      -6.6      1.415      1.812
REMARK  Name = 
REMARK  12 active torsions:
REMARK  status: ('A' for Active; 'I' for Inactive)
REMARK    1  A    between atoms: C_1  and  C_2
REMARK    2  A    between atoms: C_2  and  C_3
REMARK    3  A    between atoms: C_2  and  C_4
REMARK    4  A    between atoms: C_4  and  C_5
REMARK    5  A    between atoms: C_6  and  C_7
REMARK    6  A    between atoms: C_7  and  C_9
REMARK    7  A    between atoms: C_13  and  O_14
REMARK    8  A    between atoms: O_14  and  C_15
REMARK    9  A    between atoms: C_15  and  C_16
REMARK   10  A    between atoms: C_16  and  O_18
REMARK   11  A    between atoms: N_27  and  C_28
REMARK   12  A    between atoms: C_28  and  C_29
REMARK                            x       y       z     vdW  Elec       q    Type
REMARK                         _______ _______ _______ _____ _____    ______ ____
ROOT
ATOM      1  C   UNL     1      -2.328  13.132  21.056  0.00  0.00    +0.000 A 
ATOM      2  C   UNL     1      -1.125  12.470  20.814  0.00  0.00    +0.000 A 
ATOM      3  C   UNL     1      -1.284  11.709  19.606  0.00  0.00    +0.000 A 
ATOM      4  C   UNL     1      -0.423  10.822  18.896  0.00  0.00    +0.000 A 
ATOM      5  C   UNL     1      -0.843  10.277  17.683  0.00  0.00    +0.000 A 
ATOM      6  C   UNL     1      -2.107  10.525  17.169  0.00  0.00    +0.000 A 
ATOM      7  C   UNL     1      -2.462   9.915  15.956  0.00  0.00    +0.000 A 
ATOM      8  C   UNL     1      -3.729  10.079  15.410  0.00  0.00    +0.000 A 
ATOM      9  C   UNL     1      -4.662  10.846  16.085  0.00  0.00    +0.000 A 
ATOM     10  C   UNL     1      -4.325  11.462  17.296  0.00  0.00    +0.000 A 
ATOM     11  C   UNL     1      -3.035  11.339  17.868  0.00  0.00    +0.000 A 
ATOM     12  C   UNL     1      -2.589  11.956  19.104  0.00  0.00    +0.000 A 
ATOM     13  N   UNL     1      -3.209  12.820  20.021  0.00  0.00    +0.000 N 
ENDROOT
BRANCH   2  14
ATOM     14  C   UNL     1       0.054  12.572  21.690  0.00  0.00    +0.000 C 
ATOM     15  O   UNL     1       0.199  11.867  22.693  0.00  0.00    +0.000 OA
BRANCH  14  16
ATOM     16  C   UNL     1       1.207  13.550  21.459  0.00  0.00    +0.000 C 
ATOM     17  N   UNL     1       1.973  13.253  20.351  0.00  0.00    +0.000 N 
ATOM     18  O   UNL     1       1.472  14.454  22.232  0.00  0.00    +0.000 OA
ATOM     19  H   UNL     1       1.853  12.332  19.939  0.00  0.00    +0.000 HD
ATOM     20  H   UNL     1       2.889  13.674  20.298  0.00  0.00    +0.000 HD
ENDBRANCH  14  16
ENDBRANCH   2  14
BRANCH   1  21
ATOM     21  C   UNL     1      -2.634  14.101  22.181  0.00  0.00    +0.000 C 
BRANCH  21  23
ATOM     22  C   UNL     1      -3.636  14.328  24.475  0.00  0.00    +0.000 C 
ATOM     23  C   UNL     1      -2.745  13.463  23.580  0.00  0.00    +0.000 C 
ATOM     24  C   UNL     1      -3.267  12.033  23.575  0.00  0.00    +0.000 C 
ENDBRANCH  21  23
ENDBRANCH   1  21
BRANCH   4  25
ATOM     25  O   UNL     1       0.777  10.445  19.476  0.00  0.00    +0.000 OA
BRANCH  25  26
ATOM     26  C   UNL     1       0.768   9.268  20.296  0.00  0.00    +0.000 C 
BRANCH  26  27
ATOM     27  C   UNL     1       1.758   8.195  19.843  0.00  0.00    +0.000 C 
ATOM     28  O   UNL     1       2.226   8.127  18.717  0.00  0.00    +0.000 OA
BRANCH  27  29
ATOM     29  O   UNL     1       2.093   7.328  20.828  0.00  0.00    +0.000 OA
ATOM     30  H   UNL     1       2.862   7.659  21.340  0.00  0.00    +0.000 HD
ENDBRANCH  27  29
ENDBRANCH  26  27
ENDBRANCH  25  26
ENDBRANCH   4  25
BRANCH  13  31
ATOM     31  C   UNL     1      -4.531  13.450  19.851  0.00  0.00    +0.000 C 
BRANCH  31  32
ATOM     32  C   UNL     1      -5.665  12.844  20.662  0.00  0.00    +0.000 A 
ATOM     33  C   UNL     1      -6.289  11.672  20.185  0.00  0.00    +0.000 A 
ATOM     34  C   UNL     1      -7.410  11.132  20.826  0.00  0.00    +0.000 A 
ATOM     35  C   UNL     1      -7.912  11.736  21.975  0.00  0.00    +0.000 A 
ATOM     36  C   UNL     1      -7.255  12.843  22.510  0.00  0.00    +0.000 A 
ATOM     37  C   UNL     1      -6.133  13.381  21.871  0.00  0.00    +0.000 A 
ENDBRANCH  31  32
ENDBRANCH  13  31
TORSDOF 10
ENDMDL
MODEL 7
REMARK VINA RESULT:      -6.5      0.943      1.457
REMARK  Name = 
REMARK  12 active torsions:
REMARK  status: ('A' for Active; 'I' for Inactive)
REMARK    1  A    between atoms: C_1  and  C_2
REMARK    2  A    between atoms: C_2  and  C_3
REMARK    3  A    between atoms: C_2  and  C_4
REMARK    4  A    between atoms: C_4  and  C_5
REMARK    5  A    between atoms: C_6  and  C_7
REMARK    6  A    between atoms: C_7  and  C_9
REMARK    7  A    between atoms: C_13  and  O_14
REMARK    8  A    between atoms: O_14  and  C_15
REMARK    9  A    between atoms: C_15  and  C_16
REMARK   10  A    between atoms: C_16  and  O_18
REMARK   11  A    between atoms: N_27  and  C_28
REMARK   12  A    between atoms: C_28  and  C_29
REMARK                            x       y       z     vdW  Elec       q    Type
REMARK                         _______ _______ _______ _____ _____    ______ ____
ROOT
ATOM      1  C   UNL     1      -2.320  12.646  20.930  0.00  0.00    +0.000 A 
ATOM      2  C   UNL     1      -1.222  11.807  20.748  0.00  0.00    +0.000 A 
ATOM      3  C   UNL     1      -1.387  11.142  19.485  0.00  0.00    +0.000 A 
ATOM      4  C   UNL     1      -0.618  10.161  18.794  0.00  0.00    +0.000 A 
ATOM      5  C   UNL     1      -1.006   9.753  17.519  0.00  0.00    +0.000 A 
ATOM      6  C   UNL     1      -2.161  10.230  16.918  0.00  0.00    +0.000 A 
ATOM      7  C   UNL     1      -2.495   9.747  15.643  0.00  0.00    +0.000 A 
ATOM      8  C   UNL     1      -3.663  10.144  15.005  0.00  0.00    +0.000 A 
ATOM      9  C   UNL     1      -4.520  11.021  15.648  0.00  0.00    +0.000 A 
ATOM     10  C   UNL     1      -4.203  11.513  16.919  0.00  0.00    +0.000 A 
ATOM     11  C   UNL     1      -3.008  11.151  17.587  0.00  0.00    +0.000 A 
ATOM     12  C   UNL     1      -2.584  11.625  18.893  0.00  0.00    +0.000 A 
ATOM     13  N   UNL     1      -3.140  12.534  19.807  0.00  0.00    +0.000 N 
ENDROOT
BRANCH   2  14
ATOM     14  C   UNL     1      -0.127  11.670  21.724  0.00  0.00    +0.000 C 
ATOM     15  O   UNL     1       0.651  12.593  21.982  0.00  0.00    +0.000 OA
BRANCH  14  16
ATOM     16  C   UNL     1       0.162  10.389  22.507  0.00  0.00    +0.000 C 
ATOM     17  N   UNL     1      -0.893   9.964  23.286  0.00  0.00    +0.000 N 
ATOM     18  O   UNL     1       1.254   9.846  22.506  0.00  0.00    +0.000 OA
ATOM     19  H   UNL     1      -1.648  10.626  23.442  0.00  0.00    +0.000 HD
ATOM     20  H   UNL     1      -0.686   9.306  24.023  0.00  0.00    +0.000 HD
ENDBRANCH  14  16
ENDBRANCH   2  14
BRANCH   1  21
ATOM     21  C   UNL     1      -2.570  13.596  22.085  0.00  0.00    +0.000 C 
BRANCH  21  23
ATOM     22  C   UNL     1      -2.483  13.919  24.576  0.00  0.00    +0.000 C 
ATOM     23  C   UNL     1      -2.775  12.919  23.454  0.00  0.00    +0.000 C 
ATOM     24  C   UNL     1      -4.161  12.321  23.655  0.00  0.00    +0.000 C 
ENDBRANCH  21  23
ENDBRANCH   1  21
BRANCH   4  25
ATOM     25  O   UNL     1       0.447   9.563  19.448  0.00  0.00    +0.000 OA
BRANCH  25  26
ATOM     26  C   UNL     1       1.541   9.108  18.640  0.00  0.00    +0.000 C 
BRANCH  26  27
ATOM     27  C   UNL     1       2.171   7.805  19.133  0.00  0.00    +0.000 C 
ATOM     28  O   UNL     1       2.685   6.973  18.400  0.00  0.00    +0.000 OA
BRANCH  27  29
ATOM     29  O   UNL     1       2.129   7.668  20.479  0.00  0.00    +0.000 OA
ATOM     30  H   UNL     1       1.414   7.050  20.746  0.00  0.00    +0.000 HD
ENDBRANCH  27  29
ENDBRANCH  26  27
ENDBRANCH  25  26
ENDBRANCH   4  25
BRANCH  13  31
ATOM     31  C   UNL     1      -4.323  13.381  19.568  0.00  0.00    +0.000 C 
BRANCH  31  32
ATOM     32  C   UNL     1      -5.617  12.913  20.215  0.00  0.00    +0.000 A 
ATOM     33  C   UNL     1      -6.257  13.763  21.142  0.00  0.00    +0.000 A 
ATOM     34  C   UNL     1      -7.386  13.342  21.855  0.00  0.00    +0.000 A 
ATOM     35  C   UNL     1      -7.914  12.074  21.635  0.00  0.00    +0.000 A 
ATOM     36  C   UNL     1      -7.347  11.254  20.660  0.00  0.00    +0.000 A 
ATOM     37  C   UNL     1      -6.221  11.676  19.945  0.00  0.00    +0.000 A 
ENDBRANCH  31  32
ENDBRANCH  13  31
TORSDOF 10
ENDMDL
MODEL 8
REMARK VINA RESULT:      -6.5      2.361      4.385
REMARK  Name = 
REMARK  12 active torsions:
REMARK  status: ('A' for Active; 'I' for Inactive)
REMARK    1  A    between atoms: C_1  and  C_2
REMARK    2  A    between atoms: C_2  and  C_3
REMARK    3  A    between atoms: C_2  and  C_4
REMARK    4  A    between atoms: C_4  and  C_5
REMARK    5  A    between atoms: C_6  and  C_7
REMARK    6  A    between atoms: C_7  and  C_9
REMARK    7  A    between atoms: C_13  and  O_14
REMARK    8  A    between atoms: O_14  and  C_15
REMARK    9  A    between atoms: C_15  and  C_16
REMARK   10  A    between atoms: C_16  and  O_18
REMARK   11  A    between atoms: N_27  and  C_28
REMARK   12  A    between atoms: C_28  and  C_29
REMARK                            x       y       z     vdW  Elec       q    Type
REMARK                         _______ _______ _______ _____ _____    ______ ____
ROOT
ATOM      1  C   UNL     1      -5.151  13.034  21.307  0.00  0.00    +0.000 A 
ATOM      2  C   UNL     1      -3.805  12.851  21.623  0.00  0.00    +0.000 A 
ATOM      3  C   UNL     1      -3.161  12.285  20.470  0.00  0.00    +0.000 A 
ATOM      4  C   UNL     1      -1.826  11.856  20.215  0.00  0.00    +0.000 A 
ATOM      5  C   UNL     1      -1.477  11.407  18.942  0.00  0.00    +0.000 A 
ATOM      6  C   UNL     1      -2.411  11.306  17.922  0.00  0.00    +0.000 A 
ATOM      7  C   UNL     1      -1.983  10.818  16.677  0.00  0.00    +0.000 A 
ATOM      8  C   UNL     1      -2.875  10.643  15.626  0.00  0.00    +0.000 A 
ATOM      9  C   UNL     1      -4.213  10.942  15.818  0.00  0.00    +0.000 A 
ATOM     10  C   UNL     1      -4.656  11.431  17.052  0.00  0.00    +0.000 A 
ATOM     11  C   UNL     1      -3.770  11.647  18.136  0.00  0.00    +0.000 A 
ATOM     12  C   UNL     1      -4.133  12.168  19.442  0.00  0.00    +0.000 A 
ATOM     13  N   UNL     1      -5.345  12.622  19.989  0.00  0.00    +0.000 N 
ENDROOT
BRANCH   2  14
ATOM     14  C   UNL     1      -3.220  13.191  22.931  0.00  0.00    +0.000 C 
ATOM     15  O   UNL     1      -3.403  12.503  23.940  0.00  0.00    +0.000 OA
BRANCH  14  16
ATOM     16  C   UNL     1      -2.339  14.417  23.179  0.00  0.00    +0.000 C 
ATOM     17  N   UNL     1      -2.765  15.549  22.517  0.00  0.00    +0.000 N 
ATOM     18  O   UNL     1      -1.310  14.371  23.831  0.00  0.00    +0.000 OA
ATOM     19  H   UNL     1      -3.454  15.423  21.781  0.00  0.00    +0.000 HD
ATOM     20  H   UNL     1      -2.098  16.299  22.411  0.00  0.00    +0.000 HD
ENDBRANCH  14  16
ENDBRANCH   2  14
BRANCH   1  21
ATOM     21  C   UNL     1      -6.224  13.654  22.180  0.00  0.00    +0.000 C 
BRANCH  21  23
ATOM     22  C   UNL     1      -7.587  13.475  24.283  0.00  0.00    +0.000 C 
ATOM     23  C   UNL     1      -6.906  12.684  23.164  0.00  0.00    +0.000 C 
ATOM     24  C   UNL     1      -7.916  11.746  22.518  0.00  0.00    +0.000 C 
ENDBRANCH  21  23
ENDBRANCH   1  21
BRANCH   4  25
ATOM     25  O   UNL     1      -0.926  11.805  21.268  0.00  0.00    +0.000 OA
BRANCH  25  26
ATOM     26  C   UNL     1       0.137  10.847  21.176  0.00  0.00    +0.000 C 
BRANCH  26  27
ATOM     27  C   UNL     1       0.323  10.010  22.441  0.00  0.00    +0.000 C 
ATOM     28  O   UNL     1       1.077   9.052  22.523  0.00  0.00    +0.000 OA
BRANCH  27  29
ATOM     29  O   UNL     1      -0.417  10.450  23.486  0.00  0.00    +0.000 OA
ATOM     30  H   UNL     1       0.121  11.011  24.086  0.00  0.00    +0.000 HD
ENDBRANCH  27  29
ENDBRANCH  26  27
ENDBRANCH  25  26
ENDBRANCH   4  25
BRANCH  13  31
ATOM     31  C   UNL     1      -6.608  12.802  19.250  0.00  0.00    +0.000 C 
BRANCH  31  32
ATOM     32  C   UNL     1      -6.701  14.052  18.390  0.00  0.00    +0.000 A 
ATOM     33  C   UNL     1      -6.461  15.307  18.989  0.00  0.00    +0.000 A 
ATOM     34  C   UNL     1      -6.643  16.499  18.278  0.00  0.00    +0.000 A 
ATOM     35  C   UNL     1      -7.041  16.461  16.945  0.00  0.00    +0.000 A 
ATOM     36  C   UNL     1      -7.197  15.228  16.312  0.00  0.00    +0.000 A 
ATOM     37  C   UNL     1      -7.012  14.037  17.021  0.00  0.00    +0.000 A 
ENDBRANCH  31  32
ENDBRANCH  13  31
TORSDOF 10
ENDMDL
MODEL 9
REMARK VINA RESULT:      -6.5      3.489      6.070
REMARK  Name = 
REMARK  12 active torsions:
REMARK  status: ('A' for Active; 'I' for Inactive)
REMARK    1  A    between atoms: C_1  and  C_2
REMARK    2  A    between atoms: C_2  and  C_3
REMARK    3  A    between atoms: C_2  and  C_4
REMARK    4  A    between atoms: C_4  and  C_5
REMARK    5  A    between atoms: C_6  and  C_7
REMARK    6  A    between atoms: C_7  and  C_9
REMARK    7  A    between atoms: C_13  and  O_14
REMARK    8  A    between atoms: O_14  and  C_15
REMARK    9  A    between atoms: C_15  and  C_16
REMARK   10  A    between atoms: C_16  and  O_18
REMARK   11  A    between atoms: N_27  and  C_28
REMARK   12  A    between atoms: C_28  and  C_29
REMARK                            x       y       z     vdW  Elec       q    Type
REMARK                         _______ _______ _______ _____ _____    ______ ____
ROOT
ATOM      1  C   UNL     1      -1.198  13.396  21.333  0.00  0.00    +0.000 A 
ATOM      2  C   UNL     1      -2.562  13.526  21.587  0.00  0.00    +0.000 A 
ATOM      3  C   UNL     1      -3.268  12.918  20.493  0.00  0.00    +0.000 A 
ATOM      4  C   UNL     1      -4.653  12.780  20.186  0.00  0.00    +0.000 A 
ATOM      5  C   UNL     1      -5.041  12.057  19.059  0.00  0.00    +0.000 A 
ATOM      6  C   UNL     1      -4.112  11.514  18.184  0.00  0.00    +0.000 A 
ATOM      7  C   UNL     1      -4.587  10.825  17.057  0.00  0.00    +0.000 A 
ATOM      8  C   UNL     1      -3.713  10.299  16.113  0.00  0.00    +0.000 A 
ATOM      9  C   UNL     1      -2.350  10.474  16.282  0.00  0.00    +0.000 A 
ATOM     10  C   UNL     1      -1.860  11.158  17.400  0.00  0.00    +0.000 A 
ATOM     11  C   UNL     1      -2.720  11.683  18.396  0.00  0.00    +0.000 A 
ATOM     12  C   UNL     1      -2.305  12.386  19.596  0.00  0.00    +0.000 A 
ATOM     13  N   UNL     1      -1.046  12.706  20.131  0.00  0.00    +0.000 N 
ENDROOT
BRANCH   2  14
ATOM     14  C   UNL     1      -3.112  14.188  22.783  0.00  0.00    +0.000 C 
ATOM     15  O   UNL     1      -3.243  15.414  22.860  0.00  0.00    +0.000 OA
BRANCH  14  16
ATOM     16  C   UNL     1      -3.567  13.443  24.038  0.00  0.00    +0.000 C 
ATOM     17  N   UNL     1      -4.207  12.251  23.774  0.00  0.00    +0.000 N 
ATOM     18  O   UNL     1      -3.449  13.906  25.160  0.00  0.00    +0.000 OA
ATOM     19  H   UNL     1      -4.509  12.090  22.818  0.00  0.00    +0.000 HD
ATOM     20  H   UNL     1      -4.766  11.855  24.516  0.00  0.00    +0.000 HD
ENDBRANCH  14  16
ENDBRANCH   2  14
BRANCH   1  21
ATOM     21  C   UNL     1      -0.051  13.830  22.225  0.00  0.00    +0.000 C 
BRANCH  21  23
ATOM     22  C   UNL     1       0.181  16.289  22.688  0.00  0.00    +0.000 C 
ATOM     23  C   UNL     1       0.649  15.135  21.799  0.00  0.00    +0.000 C 
ATOM     24  C   UNL     1       2.170  15.064  21.818  0.00  0.00    +0.000 C 
ENDBRANCH  21  23
ENDBRANCH   1  21
BRANCH   4  25
ATOM     25  O   UNL     1      -5.582  13.451  20.966  0.00  0.00    +0.000 OA
BRANCH  25  26
ATOM     26  C   UNL     1      -6.934  12.975  20.930  0.00  0.00    +0.000 C 
BRANCH  26  27
ATOM     27  C   UNL     1      -7.221  11.859  21.935  0.00  0.00    +0.000 C 
ATOM     28  O   UNL     1      -7.170  12.001  23.148  0.00  0.00    +0.000 OA
BRANCH  27  29
ATOM     29  O   UNL     1      -7.567  10.689  21.350  0.00  0.00    +0.000 OA
ATOM     30  H   UNL     1      -7.050  10.541  20.529  0.00  0.00    +0.000 HD
ENDBRANCH  27  29
ENDBRANCH  26  27
ENDBRANCH  25  26
ENDBRANCH   4  25
BRANCH  13  31
ATOM     31  C   UNL     1       0.254  12.248  19.606  0.00  0.00    +0.000 C 
BRANCH  31  32
ATOM     32  C   UNL     1       0.684  10.852  20.026  0.00  0.00    +0.000 A 
ATOM     33  C   UNL     1       1.237   9.991  19.054  0.00  0.00    +0.000 A 
ATOM     34  C   UNL     1       1.545   8.660  19.353  0.00  0.00    +0.000 A 
ATOM     35  C   UNL     1       1.335   8.168  20.638  0.00  0.00    +0.000 A 
ATOM     36  C   UNL     1       0.873   9.028  21.633  0.00  0.00    +0.000 A 
ATOM     37  C   UNL     1       0.567  10.360  21.335  0.00  0.00    +0.000 A 
ENDBRANCH  31  32
ENDBRANCH  13  31
TORSDOF 10
ENDMDL
