MODEL 1
REMARK VINA RESULT:      -7.1      0.000      0.000
REMARK  Name = 
REMARK  6 active torsions:
REMARK  status: ('A' for Active; 'I' for Inactive)
REMARK    1  A    between atoms: O_1  and  C_2
REMARK    2  A    between atoms: C_2  and  C_3
REMARK    3  A    between atoms: C_2  and  C_9
REMARK    4  A    between atoms: C_2  and  C_15
REMARK    5  A    between atoms: C_3  and  N_4
REMARK    6  A    between atoms: C_9  and  N_10
REMARK                            x       y       z     vdW  Elec       q    Type
REMARK                         _______ _______ _______ _____ _____    ______ ____
ROOT
ATOM      1  C   UNL     1       3.167   5.977  18.606  0.00  0.00    +0.000 C 
ENDROOT
BRANCH   1   2
ATOM      2  C   UNL     1       2.473   7.343  18.795  0.00  0.00    +0.000 A 
ATOM      3  C   UNL     1       2.458   8.297  17.756  0.00  0.00    +0.000 A 
ATOM      4  C   UNL     1       1.806   9.528  17.909  0.00  0.00    +0.000 A 
ATOM      5  C   UNL     1       1.146   9.818  19.095  0.00  0.00    +0.000 A 
ATOM      6  F   UNL     1       0.488  10.977  19.222  0.00  0.00    +0.000 F 
ATOM      7  C   UNL     1       1.153   8.916  20.143  0.00  0.00    +0.000 A 
ATOM      8  C   UNL     1       1.813   7.698  19.987  0.00  0.00    +0.000 A 
ATOM      9  F   UNL     1       1.788   6.852  21.023  0.00  0.00    +0.000 F 
ENDBRANCH   1   2
BRANCH   1  10
ATOM     10  O   UNL     1       4.053   5.791  19.736  0.00  0.00    +0.000 OA
ATOM     11  H   UNL     1       4.782   6.448  19.642  0.00  0.00    +0.000 HD
ENDBRANCH   1  10
BRANCH   1  12
ATOM     12  C   UNL     1       4.060   6.024  17.322  0.00  0.00    +0.000 C 
BRANCH  12  13
ATOM     13  N   UNL     1       5.483   5.778  17.542  0.00  0.00    +0.000 N 
ATOM     14  C   UNL     1       6.513   6.664  17.419  0.00  0.00    +0.000 A 
ATOM     15  N   UNL     1       7.647   6.044  17.656  0.00  0.00    +0.000 NA
ATOM     16  C   UNL     1       7.261   4.774  17.953  0.00  0.00    +0.000 A 
ATOM     17  N   UNL     1       5.934   4.566  17.927  0.00  0.00    +0.000 NA
ENDBRANCH  12  13
ENDBRANCH   1  12
BRANCH   1  18
ATOM     18  C   UNL     1       2.182   4.777  18.542  0.00  0.00    +0.000 C 
BRANCH  18  19
ATOM     19  N   UNL     1       2.200   3.924  19.714  0.00  0.00    +0.000 N 
ATOM     20  C   UNL     1       1.292   3.863  20.729  0.00  0.00    +0.000 A 
ATOM     21  C   UNL     1       1.827   2.937  21.591  0.00  0.00    +0.000 A 
ATOM     22  N   UNL     1       3.024   2.499  21.104  0.00  0.00    +0.000 NA
ATOM     23  N   UNL     1       3.255   3.127  19.959  0.00  0.00    +0.000 NA
ENDBRANCH  18  19
ENDBRANCH   1  18
TORSDOF 6
ENDMDL
MODEL 2
REMARK VINA RESULT:      -7.1      3.264      6.014
REMARK  Name = 
REMARK  6 active torsions:
REMARK  status: ('A' for Active; 'I' for Inactive)
REMARK    1  A    between atoms: O_1  and  C_2
REMARK    2  A    between atoms: C_2  and  C_3
REMARK    3  A    between atoms: C_2  and  C_9
REMARK    4  A    between atoms: C_2  and  C_15
REMARK    5  A    between atoms: C_3  and  N_4
REMARK    6  A    between atoms: C_9  and  N_10
REMARK                            x       y       z     vdW  Elec       q    Type
REMARK                         _______ _______ _______ _____ _____    ______ ____
ROOT
ATOM      1  C   UNL     1       4.795   4.095  18.478  0.00  0.00    +0.000 C 
ENDROOT
BRANCH   1   2
ATOM      2  C   UNL     1       5.501   4.296  17.120  0.00  0.00    +0.000 A 
ATOM      3  C   UNL     1       4.801   4.117  15.907  0.00  0.00    +0.000 A 
ATOM      4  C   UNL     1       5.426   4.326  14.671  0.00  0.00    +0.000 A 
ATOM      5  C   UNL     1       6.753   4.730  14.625  0.00  0.00    +0.000 A 
ATOM      6  F   UNL     1       7.333   4.969  13.443  0.00  0.00    +0.000 F 
ATOM      7  C   UNL     1       7.476   4.899  15.791  0.00  0.00    +0.000 A 
ATOM      8  C   UNL     1       6.851   4.680  17.018  0.00  0.00    +0.000 A 
ATOM      9  F   UNL     1       7.587   4.862  18.120  0.00  0.00    +0.000 F 
ENDBRANCH   1   2
BRANCH   1  10
ATOM     10  O   UNL     1       5.556   3.103  19.209  0.00  0.00    +0.000 OA
ATOM     11  H   UNL     1       5.404   3.272  20.168  0.00  0.00    +0.000 HD
ENDBRANCH   1  10
BRANCH   1  12
ATOM     12  C   UNL     1       3.369   3.498  18.237  0.00  0.00    +0.000 C 
BRANCH  12  13
ATOM     13  N   UNL     1       2.587   3.243  19.444  0.00  0.00    +0.000 N 
ATOM     14  C   UNL     1       1.280   3.562  19.677  0.00  0.00    +0.000 A 
ATOM     15  N   UNL     1       0.960   3.208  20.901  0.00  0.00    +0.000 NA
ATOM     16  C   UNL     1       2.102   2.644  21.379  0.00  0.00    +0.000 A 
ATOM     17  N   UNL     1       3.125   2.613  20.509  0.00  0.00    +0.000 NA
ENDBRANCH  12  13
ENDBRANCH   1  12
BRANCH   1  18
ATOM     18  C   UNL     1       4.707   5.388  19.336  0.00  0.00    +0.000 C 
BRANCH  18  19
ATOM     19  N   UNL     1       3.785   6.383  18.827  0.00  0.00    +0.000 N 
ATOM     20  C   UNL     1       3.878   7.115  17.680  0.00  0.00    +0.000 A 
ATOM     21  C   UNL     1       2.777   7.934  17.725  0.00  0.00    +0.000 A 
ATOM     22  N   UNL     1       2.085   7.705  18.879  0.00  0.00    +0.000 NA
ATOM     23  N   UNL     1       2.724   6.764  19.560  0.00  0.00    +0.000 NA
ENDBRANCH  18  19
ENDBRANCH   1  18
TORSDOF 6
ENDMDL
MODEL 3
REMARK VINA RESULT:      -7.1      1.039      1.239
REMARK  Name = 
REMARK  6 active torsions:
REMARK  status: ('A' for Active; 'I' for Inactive)
REMARK    1  A    between atoms: O_1  and  C_2
REMARK    2  A    between atoms: C_2  and  C_3
REMARK    3  A    between atoms: C_2  and  C_9
REMARK    4  A    between atoms: C_2  and  C_15
REMARK    5  A    between atoms: C_3  and  N_4
REMARK    6  A    between atoms: C_9  and  N_10
REMARK                            x       y       z     vdW  Elec       q    Type
REMARK                         _______ _______ _______ _____ _____    ______ ____
ROOT
ATOM      1  C   UNL     1       3.198   5.956  18.702  0.00  0.00    +0.000 C 
ENDROOT
BRANCH   1   2
ATOM      2  C   UNL     1       2.503   7.327  18.842  0.00  0.00    +0.000 A 
ATOM      3  C   UNL     1       2.536   8.266  17.789  0.00  0.00    +0.000 A 
ATOM      4  C   UNL     1       1.883   9.501  17.896  0.00  0.00    +0.000 A 
ATOM      5  C   UNL     1       1.176   9.812  19.049  0.00  0.00    +0.000 A 
ATOM      6  F   UNL     1       0.519  10.975  19.130  0.00  0.00    +0.000 F 
ATOM      7  C   UNL     1       1.136   8.926  20.110  0.00  0.00    +0.000 A 
ATOM      8  C   UNL     1       1.796   7.703  20.000  0.00  0.00    +0.000 A 
ATOM      9  F   UNL     1       1.725   6.874  21.047  0.00  0.00    +0.000 F 
ENDBRANCH   1   2
BRANCH   1  10
ATOM     10  O   UNL     1       4.179   5.867  19.765  0.00  0.00    +0.000 OA
ATOM     11  H   UNL     1       5.024   6.227  19.407  0.00  0.00    +0.000 HD
ENDBRANCH   1  10
BRANCH   1  12
ATOM     12  C   UNL     1       3.980   5.907  17.347  0.00  0.00    +0.000 C 
BRANCH  12  13
ATOM     13  N   UNL     1       5.431   5.801  17.468  0.00  0.00    +0.000 N 
ATOM     14  C   UNL     1       6.361   6.779  17.264  0.00  0.00    +0.000 A 
ATOM     15  N   UNL     1       7.563   6.273  17.425  0.00  0.00    +0.000 NA
ATOM     16  C   UNL     1       7.321   4.977  17.760  0.00  0.00    +0.000 A 
ATOM     17  N   UNL     1       6.022   4.643  17.830  0.00  0.00    +0.000 NA
ENDBRANCH  12  13
ENDBRANCH   1  12
BRANCH   1  18
ATOM     18  C   UNL     1       2.229   4.747  18.817  0.00  0.00    +0.000 C 
BRANCH  18  19
ATOM     19  N   UNL     1       2.880   3.453  18.799  0.00  0.00    +0.000 N 
ATOM     20  C   UNL     1       2.753   2.455  17.878  0.00  0.00    +0.000 A 
ATOM     21  C   UNL     1       3.540   1.446  18.379  0.00  0.00    +0.000 A 
ATOM     22  N   UNL     1       4.079   1.838  19.570  0.00  0.00    +0.000 NA
ATOM     23  N   UNL     1       3.652   3.066  19.830  0.00  0.00    +0.000 NA
ENDBRANCH  18  19
ENDBRANCH   1  18
TORSDOF 6
ENDMDL
MODEL 4
REMARK VINA RESULT:      -7.0      3.395      5.097
REMARK  Name = 
REMARK  6 active torsions:
REMARK  status: ('A' for Active; 'I' for Inactive)
REMARK    1  A    between atoms: O_1  and  C_2
REMARK    2  A    between atoms: C_2  and  C_3
REMARK    3  A    between atoms: C_2  and  C_9
REMARK    4  A    between atoms: C_2  and  C_15
REMARK    5  A    between atoms: C_3  and  N_4
REMARK    6  A    between atoms: C_9  and  N_10
REMARK                            x       y       z     vdW  Elec       q    Type
REMARK                         _______ _______ _______ _____ _____    ______ ____
ROOT
ATOM      1  C   UNL     1       4.370   4.113  18.479  0.00  0.00    +0.000 C 
ENDROOT
BRANCH   1   2
ATOM      2  C   UNL     1       3.331   3.619  19.508  0.00  0.00    +0.000 A 
ATOM      3  C   UNL     1       3.694   2.707  20.522  0.00  0.00    +0.000 A 
ATOM      4  C   UNL     1       2.765   2.275  21.478  0.00  0.00    +0.000 A 
ATOM      5  C   UNL     1       1.464   2.758  21.446  0.00  0.00    +0.000 A 
ATOM      6  F   UNL     1       0.591   2.376  22.386  0.00  0.00    +0.000 F 
ATOM      7  C   UNL     1       1.065   3.639  20.457  0.00  0.00    +0.000 A 
ATOM      8  C   UNL     1       1.993   4.056  19.504  0.00  0.00    +0.000 A 
ATOM      9  F   UNL     1       1.566   4.914  18.570  0.00  0.00    +0.000 F 
ENDBRANCH   1   2
BRANCH   1  10
ATOM     10  O   UNL     1       5.571   3.329  18.678  0.00  0.00    +0.000 OA
ATOM     11  H   UNL     1       6.048   3.310  17.816  0.00  0.00    +0.000 HD
ENDBRANCH   1  10
BRANCH   1  12
ATOM     12  C   UNL     1       4.735   5.604  18.788  0.00  0.00    +0.000 C 
BRANCH  12  13
ATOM     13  N   UNL     1       6.164   5.895  18.851  0.00  0.00    +0.000 N 
ATOM     14  C   UNL     1       6.900   6.661  17.993  0.00  0.00    +0.000 A 
ATOM     15  N   UNL     1       8.160   6.638  18.365  0.00  0.00    +0.000 NA
ATOM     16  C   UNL     1       8.148   5.864  19.484  0.00  0.00    +0.000 A 
ATOM     17  N   UNL     1       6.938   5.406  19.843  0.00  0.00    +0.000 NA
ENDBRANCH  12  13
ENDBRANCH   1  12
BRANCH   1  18
ATOM     18  C   UNL     1       3.912   3.958  17.002  0.00  0.00    +0.000 C 
BRANCH  18  19
ATOM     19  N   UNL     1       4.936   4.261  16.023  0.00  0.00    +0.000 N 
ATOM     20  C   UNL     1       5.107   5.408  15.305  0.00  0.00    +0.000 A 
ATOM     21  C   UNL     1       6.182   5.130  14.496  0.00  0.00    +0.000 A 
ATOM     22  N   UNL     1       6.600   3.850  14.717  0.00  0.00    +0.000 NA
ATOM     23  N   UNL     1       5.815   3.317  15.643  0.00  0.00    +0.000 NA
ENDBRANCH  18  19
ENDBRANCH   1  18
TORSDOF 6
ENDMDL
MODEL 5
REMARK VINA RESULT:      -7.0      0.896      1.130
REMARK  Name = 
REMARK  6 active torsions:
REMARK  status: ('A' for Active; 'I' for Inactive)
REMARK    1  A    between atoms: O_1  and  C_2
REMARK    2  A    between atoms: C_2  and  C_3
REMARK    3  A    between atoms: C_2  and  C_9
REMARK    4  A    between atoms: C_2  and  C_15
REMARK    5  A    between atoms: C_3  and  N_4
REMARK    6  A    between atoms: C_9  and  N_10
REMARK                            x       y       z     vdW  Elec       q    Type
REMARK                         _______ _______ _______ _____ _____    ______ ____
ROOT
ATOM      1  C   UNL     1       3.123   5.995  18.835  0.00  0.00    +0.000 C 
ENDROOT
BRANCH   1   2
ATOM      2  C   UNL     1       2.447   7.382  18.882  0.00  0.00    +0.000 A 
ATOM      3  C   UNL     1       2.502   8.253  17.773  0.00  0.00    +0.000 A 
ATOM      4  C   UNL     1       1.866   9.501  17.797  0.00  0.00    +0.000 A 
ATOM      5  C   UNL     1       1.152   9.892  18.921  0.00  0.00    +0.000 A 
ATOM      6  F   UNL     1       0.511  11.067  18.923  0.00  0.00    +0.000 F 
ATOM      7  C   UNL     1       1.090   9.074  20.034  0.00  0.00    +0.000 A 
ATOM      8  C   UNL     1       1.734   7.838  20.007  0.00  0.00    +0.000 A 
ATOM      9  F   UNL     1       1.641   7.076  21.103  0.00  0.00    +0.000 F 
ENDBRANCH   1   2
BRANCH   1  10
ATOM     10  O   UNL     1       4.032   5.928  19.961  0.00  0.00    +0.000 OA
ATOM     11  H   UNL     1       4.183   4.973  20.153  0.00  0.00    +0.000 HD
ENDBRANCH   1  10
BRANCH   1  12
ATOM     12  C   UNL     1       3.989   5.886  17.536  0.00  0.00    +0.000 C 
BRANCH  12  13
ATOM     13  N   UNL     1       5.407   5.608  17.753  0.00  0.00    +0.000 N 
ATOM     14  C   UNL     1       6.013   4.390  17.858  0.00  0.00    +0.000 A 
ATOM     15  N   UNL     1       7.293   4.563  18.099  0.00  0.00    +0.000 NA
ATOM     16  C   UNL     1       7.436   5.916  18.103  0.00  0.00    +0.000 A 
ATOM     17  N   UNL     1       6.309   6.605  17.864  0.00  0.00    +0.000 NA
ENDBRANCH  12  13
ENDBRANCH   1  12
BRANCH   1  18
ATOM     18  C   UNL     1       2.126   4.807  18.928  0.00  0.00    +0.000 C 
BRANCH  18  19
ATOM     19  N   UNL     1       2.368   3.908  20.038  0.00  0.00    +0.000 N 
ATOM     20  C   UNL     1       3.058   2.731  20.039  0.00  0.00    +0.000 A 
ATOM     21  C   UNL     1       2.924   2.274  21.327  0.00  0.00    +0.000 A 
ATOM     22  N   UNL     1       2.151   3.145  22.041  0.00  0.00    +0.000 NA
ATOM     23  N   UNL     1       1.798   4.136  21.235  0.00  0.00    +0.000 NA
ENDBRANCH  18  19
ENDBRANCH   1  18
TORSDOF 6
ENDMDL
MODEL 6
REMARK VINA RESULT:      -6.8      3.102      5.093
REMARK  Name = 
REMARK  6 active torsions:
REMARK  status: ('A' for Active; 'I' for Inactive)
REMARK    1  A    between atoms: O_1  and  C_2
REMARK    2  A    between atoms: C_2  and  C_3
REMARK    3  A    between atoms: C_2  and  C_9
REMARK    4  A    between atoms: C_2  and  C_15
REMARK    5  A    between atoms: C_3  and  N_4
REMARK    6  A    between atoms: C_9  and  N_10
REMARK                            x       y       z     vdW  Elec       q    Type
REMARK                         _______ _______ _______ _____ _____    ______ ____
ROOT
ATOM      1  C   UNL     1       3.841   4.237  18.155  0.00  0.00    +0.000 C 
ENDROOT
BRANCH   1   2
ATOM      2  C   UNL     1       4.936   4.409  17.081  0.00  0.00    +0.000 A 
ATOM      3  C   UNL     1       4.607   4.430  15.709  0.00  0.00    +0.000 A 
ATOM      4  C   UNL     1       5.591   4.616  14.728  0.00  0.00    +0.000 A 
ATOM      5  C   UNL     1       6.915   4.798  15.102  0.00  0.00    +0.000 A 
ATOM      6  F   UNL     1       7.845   5.017  14.165  0.00  0.00    +0.000 F 
ATOM      7  C   UNL     1       7.279   4.765  16.436  0.00  0.00    +0.000 A 
ATOM      8  C   UNL     1       6.297   4.571  17.405  0.00  0.00    +0.000 A 
ATOM      9  F   UNL     1       6.693   4.554  18.683  0.00  0.00    +0.000 F 
ENDBRANCH   1   2
BRANCH   1  10
ATOM     10  O   UNL     1       2.566   4.426  17.495  0.00  0.00    +0.000 OA
ATOM     11  H   UNL     1       2.253   5.331  17.729  0.00  0.00    +0.000 HD
ENDBRANCH   1  10
BRANCH   1  12
ATOM     12  C   UNL     1       3.982   5.372  19.224  0.00  0.00    +0.000 C 
BRANCH  12  13
ATOM     13  N   UNL     1       3.232   6.592  18.939  0.00  0.00    +0.000 N 
ATOM     14  C   UNL     1       2.288   7.195  19.720  0.00  0.00    +0.000 A 
ATOM     15  N   UNL     1       1.813   8.246  19.091  0.00  0.00    +0.000 NA
ATOM     16  C   UNL     1       2.521   8.269  17.929  0.00  0.00    +0.000 A 
ATOM     17  N   UNL     1       3.430   7.289  17.801  0.00  0.00    +0.000 NA
ENDBRANCH  12  13
ENDBRANCH   1  12
BRANCH   1  18
ATOM     18  C   UNL     1       3.847   2.841  18.837  0.00  0.00    +0.000 C 
BRANCH  18  19
ATOM     19  N   UNL     1       2.980   2.736  19.994  0.00  0.00    +0.000 N 
ATOM     20  C   UNL     1       1.622   2.848  20.046  0.00  0.00    +0.000 A 
ATOM     21  C   UNL     1       1.335   2.723  21.384  0.00  0.00    +0.000 A 
ATOM     22  N   UNL     1       2.495   2.574  22.087  0.00  0.00    +0.000 NA
ATOM     23  N   UNL     1       3.503   2.604  21.226  0.00  0.00    +0.000 NA
ENDBRANCH  18  19
ENDBRANCH   1  18
TORSDOF 6
ENDMDL
MODEL 7
REMARK VINA RESULT:      -6.7      1.884      4.490
REMARK  Name = 
REMARK  6 active torsions:
REMARK  status: ('A' for Active; 'I' for Inactive)
REMARK    1  A    between atoms: O_1  and  C_2
REMARK    2  A    between atoms: C_2  and  C_3
REMARK    3  A    between atoms: C_2  and  C_9
REMARK    4  A    between atoms: C_2  and  C_15
REMARK    5  A    between atoms: C_3  and  N_4
REMARK    6  A    between atoms: C_9  and  N_10
REMARK                            x       y       z     vdW  Elec       q    Type
REMARK                         _______ _______ _______ _____ _____    ______ ____
ROOT
ATOM      1  C   UNL     1       3.828   5.865  18.455  0.00  0.00    +0.000 C 
ENDROOT
BRANCH   1   2
ATOM      2  C   UNL     1       2.861   6.996  18.866  0.00  0.00    +0.000 A 
ATOM      3  C   UNL     1       2.256   7.004  20.140  0.00  0.00    +0.000 A 
ATOM      4  C   UNL     1       1.399   8.041  20.532  0.00  0.00    +0.000 A 
ATOM      5  C   UNL     1       1.145   9.093  19.663  0.00  0.00    +0.000 A 
ATOM      6  F   UNL     1       0.360  10.103  20.057  0.00  0.00    +0.000 F 
ATOM      7  C   UNL     1       1.705   9.112  18.399  0.00  0.00    +0.000 A 
ATOM      8  C   UNL     1       2.548   8.072  18.013  0.00  0.00    +0.000 A 
ATOM      9  F   UNL     1       3.073   8.134  16.784  0.00  0.00    +0.000 F 
ENDBRANCH   1   2
BRANCH   1  10
ATOM     10  O   UNL     1       3.249   5.209  17.301  0.00  0.00    +0.000 OA
ATOM     11  H   UNL     1       3.513   4.261  17.346  0.00  0.00    +0.000 HD
ENDBRANCH   1  10
BRANCH   1  12
ATOM     12  C   UNL     1       3.900   4.803  19.603  0.00  0.00    +0.000 C 
BRANCH  12  13
ATOM     13  N   UNL     1       3.300   3.508  19.292  0.00  0.00    +0.000 N 
ATOM     14  C   UNL     1       2.096   3.023  19.714  0.00  0.00    +0.000 A 
ATOM     15  N   UNL     1       1.939   1.801  19.257  0.00  0.00    +0.000 NA
ATOM     16  C   UNL     1       3.067   1.585  18.528  0.00  0.00    +0.000 A 
ATOM     17  N   UNL     1       3.924   2.619  18.493  0.00  0.00    +0.000 NA
ENDBRANCH  12  13
ENDBRANCH   1  12
BRANCH   1  18
ATOM     18  C   UNL     1       5.252   6.363  18.083  0.00  0.00    +0.000 C 
BRANCH  18  19
ATOM     19  N   UNL     1       5.811   5.747  16.897  0.00  0.00    +0.000 N 
ATOM     20  C   UNL     1       6.676   4.696  16.817  0.00  0.00    +0.000 A 
ATOM     21  C   UNL     1       6.916   4.571  15.471  0.00  0.00    +0.000 A 
ATOM     22  N   UNL     1       6.236   5.541  14.794  0.00  0.00    +0.000 NA
ATOM     23  N   UNL     1       5.575   6.272  15.681  0.00  0.00    +0.000 NA
ENDBRANCH  18  19
ENDBRANCH   1  18
TORSDOF 6
ENDMDL
MODEL 8
REMARK VINA RESULT:      -6.7      3.571      5.565
REMARK  Name = 
REMARK  6 active torsions:
REMARK  status: ('A' for Active; 'I' for Inactive)
REMARK    1  A    between atoms: O_1  and  C_2
REMARK    2  A    between atoms: C_2  and  C_3
REMARK    3  A    between atoms: C_2  and  C_9
REMARK    4  A    between atoms: C_2  and  C_15
REMARK    5  A    between atoms: C_3  and  N_4
REMARK    6  A    between atoms: C_9  and  N_10
REMARK                            x       y       z     vdW  Elec       q    Type
REMARK                         _______ _______ _______ _____ _____    ______ ____
ROOT
ATOM      1  C   UNL     1       5.637   4.816  16.226  0.00  0.00    +0.000 C 
ENDROOT
BRANCH   1   2
ATOM      2  C   UNL     1       4.336   4.672  17.045  0.00  0.00    +0.000 A 
ATOM      3  C   UNL     1       3.607   3.463  17.039  0.00  0.00    +0.000 A 
ATOM      4  C   UNL     1       2.441   3.314  17.802  0.00  0.00    +0.000 A 
ATOM      5  C   UNL     1       1.994   4.362  18.594  0.00  0.00    +0.000 A 
ATOM      6  F   UNL     1       0.904   4.200  19.354  0.00  0.00    +0.000 F 
ATOM      7  C   UNL     1       2.671   5.568  18.613  0.00  0.00    +0.000 A 
ATOM      8  C   UNL     1       3.824   5.712  17.843  0.00  0.00    +0.000 A 
ATOM      9  F   UNL     1       4.451   6.893  17.898  0.00  0.00    +0.000 F 
ENDBRANCH   1   2
BRANCH   1  10
ATOM     10  O   UNL     1       5.590   6.113  15.582  0.00  0.00    +0.000 OA
ATOM     11  H   UNL     1       6.445   6.229  15.107  0.00  0.00    +0.000 HD
ENDBRANCH   1  10
BRANCH   1  12
ATOM     12  C   UNL     1       5.657   3.738  15.092  0.00  0.00    +0.000 C 
BRANCH  12  13
ATOM     13  N   UNL     1       6.389   4.115  13.886  0.00  0.00    +0.000 N 
ATOM     14  C   UNL     1       6.257   3.595  12.631  0.00  0.00    +0.000 A 
ATOM     15  N   UNL     1       7.129   4.167  11.832  0.00  0.00    +0.000 NA
ATOM     16  C   UNL     1       7.760   5.063  12.638  0.00  0.00    +0.000 A 
ATOM     17  N   UNL     1       7.320   5.092  13.906  0.00  0.00    +0.000 NA
ENDBRANCH  12  13
ENDBRANCH   1  12
BRANCH   1  18
ATOM     18  C   UNL     1       6.929   4.732  17.084  0.00  0.00    +0.000 C 
BRANCH  18  19
ATOM     19  N   UNL     1       7.452   6.015  17.509  0.00  0.00    +0.000 N 
ATOM     20  C   UNL     1       7.848   6.395  18.757  0.00  0.00    +0.000 A 
ATOM     21  C   UNL     1       8.195   7.715  18.601  0.00  0.00    +0.000 A 
ATOM     22  N   UNL     1       7.975   8.095  17.309  0.00  0.00    +0.000 NA
ATOM     23  N   UNL     1       7.499   7.048  16.649  0.00  0.00    +0.000 NA
ENDBRANCH  18  19
ENDBRANCH   1  18
TORSDOF 6
ENDMDL
MODEL 9
REMARK VINA RESULT:      -6.7      1.671      2.074
REMARK  Name = 
REMARK  6 active torsions:
REMARK  status: ('A' for Active; 'I' for Inactive)
REMARK    1  A    between atoms: O_1  and  C_2
REMARK    2  A    between atoms: C_2  and  C_3
REMARK    3  A    between atoms: C_2  and  C_9
REMARK    4  A    between atoms: C_2  and  C_15
REMARK    5  A    between atoms: C_3  and  N_4
REMARK    6  A    between atoms: C_9  and  N_10
REMARK                            x       y       z     vdW  Elec       q    Type
REMARK                         _______ _______ _______ _____ _____    ______ ____
ROOT
ATOM      1  C   UNL     1       3.308   6.219  18.647  0.00  0.00    +0.000 C 
ENDROOT
BRANCH   1   2
ATOM      2  C   UNL     1       2.399   7.355  19.164  0.00  0.00    +0.000 A 
ATOM      3  C   UNL     1       1.919   7.351  20.491  0.00  0.00    +0.000 A 
ATOM      4  C   UNL     1       1.118   8.393  20.977  0.00  0.00    +0.000 A 
ATOM      5  C   UNL     1       0.796   9.461  20.151  0.00  0.00    +0.000 A 
ATOM      6  F   UNL     1       0.066  10.475  20.632  0.00  0.00    +0.000 F 
ATOM      7  C   UNL     1       1.233   9.492  18.840  0.00  0.00    +0.000 A 
ATOM      8  C   UNL     1       2.022   8.447  18.360  0.00  0.00    +0.000 A 
ATOM      9  F   UNL     1       2.428   8.522  17.088  0.00  0.00    +0.000 F 
ENDBRANCH   1   2
BRANCH   1  10
ATOM     10  O   UNL     1       3.908   5.595  19.808  0.00  0.00    +0.000 OA
ATOM     11  H   UNL     1       4.067   4.650  19.577  0.00  0.00    +0.000 HD
ENDBRANCH   1  10
BRANCH   1  12
ATOM     12  C   UNL     1       4.472   6.832  17.799  0.00  0.00    +0.000 C 
BRANCH  12  13
ATOM     13  N   UNL     1       5.586   5.930  17.525  0.00  0.00    +0.000 N 
ATOM     14  C   UNL     1       5.956   5.398  16.323  0.00  0.00    +0.000 A 
ATOM     15  N   UNL     1       6.981   4.596  16.502  0.00  0.00    +0.000 NA
ATOM     16  C   UNL     1       7.229   4.688  17.836  0.00  0.00    +0.000 A 
ATOM     17  N   UNL     1       6.417   5.522  18.507  0.00  0.00    +0.000 NA
ENDBRANCH  12  13
ENDBRANCH   1  12
BRANCH   1  18
ATOM     18  C   UNL     1       2.552   5.133  17.832  0.00  0.00    +0.000 C 
BRANCH  18  19
ATOM     19  N   UNL     1       2.790   3.775  18.278  0.00  0.00    +0.000 N 
ATOM     20  C   UNL     1       3.615   2.837  17.731  0.00  0.00    +0.000 A 
ATOM     21  C   UNL     1       3.410   1.726  18.512  0.00  0.00    +0.000 A 
ATOM     22  N   UNL     1       2.471   2.004  19.463  0.00  0.00    +0.000 NA
ATOM     23  N   UNL     1       2.081   3.261  19.299  0.00  0.00    +0.000 NA
ENDBRANCH  18  19
ENDBRANCH   1  18
TORSDOF 6
ENDMDL
