MODEL 1
REMARK VINA RESULT:      -8.0      0.000      0.000
REMARK  Name = 
REMARK  4 active torsions:
REMARK  status: ('A' for Active; 'I' for Inactive)
REMARK    1  A    between atoms: C_1  and  C_2
REMARK    2  A    between atoms: C_2  and  N_3
REMARK    3  A    between atoms: C_5  and  C_6
REMARK    4  A    between atoms: C_21  and  N_22
REMARK                            x       y       z     vdW  Elec       q    Type
REMARK                         _______ _______ _______ _____ _____    ______ ____
ROOT
ATOM      1  N   UNL     1       1.330  10.177  19.210  0.00  0.00    +0.000 N 
ATOM      2  C   UNL     1       0.569  10.993  20.028  0.00  0.00    +0.000 A 
ATOM      3  C   UNL     1       0.001  10.666  21.195  0.00  0.00    +0.000 A 
ATOM      4  C   UNL     1       0.168   9.268  21.654  0.00  0.00    +0.000 A 
ATOM      5  O   UNL     1      -0.336   8.866  22.699  0.00  0.00    +0.000 OA
ATOM      6  C   UNL     1       0.989   8.359  20.794  0.00  0.00    +0.000 A 
ATOM      7  C   UNL     1       1.185   7.035  21.203  0.00  0.00    +0.000 A 
ATOM      8  C   UNL     1       1.944   6.184  20.405  0.00  0.00    +0.000 A 
ATOM      9  F   UNL     1       2.146   4.934  20.858  0.00  0.00    +0.000 F 
ATOM     10  C   UNL     1       2.535   6.601  19.201  0.00  0.00    +0.000 A 
ATOM     11  C   UNL     1       2.321   7.933  18.825  0.00  0.00    +0.000 A 
ATOM     12  C   UNL     1       1.553   8.842  19.595  0.00  0.00    +0.000 A 
ENDROOT
BRANCH   3  13
ATOM     13  C   UNL     1      -0.638  11.689  21.937  0.00  0.00    +0.000 A 
ATOM     14  N   UNL     1      -0.198  12.909  22.195  0.00  0.00    +0.000 NA
ATOM     15  C   UNL     1      -1.114  13.465  23.040  0.00  0.00    +0.000 A 
ATOM     16  C   UNL     1      -1.040  14.668  23.751  0.00  0.00    +0.000 A 
ATOM     17  C   UNL     1      -2.114  15.017  24.575  0.00  0.00    +0.000 A 
ATOM     18  C   UNL     1      -3.269  14.231  24.611  0.00  0.00    +0.000 A 
ATOM     19  C   UNL     1      -3.358  13.024  23.903  0.00  0.00    +0.000 A 
ATOM     20  C   UNL     1      -2.222  12.643  23.184  0.00  0.00    +0.000 A 
ATOM     21  N   UNL     1      -1.852  11.478  22.553  0.00  0.00    +0.000 N 
ATOM     22  H   UNL     1      -2.318  10.580  22.622  0.00  0.00    +0.000 HD
ENDBRANCH   3  13
BRANCH  10  23
ATOM     23  N   UNL     1       3.333   5.749  18.450  0.00  0.00    +0.000 N 
ATOM     24  C   UNL     1       4.617   6.162  17.867  0.00  0.00    +0.000 C 
ATOM     25  C   UNL     1       5.571   4.941  17.858  0.00  0.00    +0.000 C 
ATOM     26  N   UNL     1       5.027   3.761  17.154  0.00  0.00    +0.000 NA
ATOM     27  C   UNL     1       3.693   3.426  17.703  0.00  0.00    +0.000 C 
ATOM     28  C   UNL     1       2.711   4.620  17.729  0.00  0.00    +0.000 C 
ATOM     29  H   UNL     1       5.650   2.970  17.316  0.00  0.00    +0.000 HD
ENDBRANCH  10  23
BRANCH   1  31
ATOM     30  C   UNL     1       2.359  12.183  18.202  0.00  0.00    +0.000 C 
ATOM     31  C   UNL     1       1.953  10.731  17.994  0.00  0.00    +0.000 C 
ENDBRANCH   1  31
TORSDOF 3
ENDMDL
MODEL 2
REMARK VINA RESULT:      -7.6      1.859      9.084
REMARK  Name = 
REMARK  4 active torsions:
REMARK  status: ('A' for Active; 'I' for Inactive)
REMARK    1  A    between atoms: C_1  and  C_2
REMARK    2  A    between atoms: C_2  and  N_3
REMARK    3  A    between atoms: C_5  and  C_6
REMARK    4  A    between atoms: C_21  and  N_22
REMARK                            x       y       z     vdW  Elec       q    Type
REMARK                         _______ _______ _______ _____ _____    ______ ____
ROOT
ATOM      1  N   UNL     1       1.352  10.566  18.936  0.00  0.00    +0.000 N 
ATOM      2  C   UNL     1       2.033   9.464  18.447  0.00  0.00    +0.000 A 
ATOM      3  C   UNL     1       2.139   8.258  19.017  0.00  0.00    +0.000 A 
ATOM      4  C   UNL     1       1.491   8.080  20.336  0.00  0.00    +0.000 A 
ATOM      5  O   UNL     1       1.553   7.019  20.950  0.00  0.00    +0.000 OA
ATOM      6  C   UNL     1       0.743   9.251  20.894  0.00  0.00    +0.000 A 
ATOM      7  C   UNL     1       0.101   9.117  22.131  0.00  0.00    +0.000 A 
ATOM      8  C   UNL     1      -0.592  10.203  22.656  0.00  0.00    +0.000 A 
ATOM      9  F   UNL     1      -1.232  10.017  23.825  0.00  0.00    +0.000 F 
ATOM     10  C   UNL     1      -0.686  11.436  21.990  0.00  0.00    +0.000 A 
ATOM     11  C   UNL     1      -0.035  11.533  20.754  0.00  0.00    +0.000 A 
ATOM     12  C   UNL     1       0.690  10.462  20.173  0.00  0.00    +0.000 A 
ENDROOT
BRANCH   3  13
ATOM     13  C   UNL     1       2.783   7.229  18.287  0.00  0.00    +0.000 A 
ATOM     14  N   UNL     1       2.484   5.942  18.252  0.00  0.00    +0.000 NA
ATOM     15  C   UNL     1       3.463   5.351  17.507  0.00  0.00    +0.000 A 
ATOM     16  C   UNL     1       3.717   3.990  17.306  0.00  0.00    +0.000 A 
ATOM     17  C   UNL     1       4.804   3.631  16.504  0.00  0.00    +0.000 A 
ATOM     18  C   UNL     1       5.555   4.607  15.843  0.00  0.00    +0.000 A 
ATOM     19  C   UNL     1       5.311   5.975  16.033  0.00  0.00    +0.000 A 
ATOM     20  C   UNL     1       4.295   6.303  16.935  0.00  0.00    +0.000 A 
ATOM     21  N   UNL     1       3.903   7.481  17.527  0.00  0.00    +0.000 N 
ATOM     22  H   UNL     1       4.408   8.361  17.513  0.00  0.00    +0.000 HD
ENDBRANCH   3  13
BRANCH  10  23
ATOM     23  N   UNL     1      -1.428  12.487  22.509  0.00  0.00    +0.000 N 
ATOM     24  C   UNL     1      -2.891  12.569  22.391  0.00  0.00    +0.000 C 
ATOM     25  C   UNL     1      -3.451  13.268  23.655  0.00  0.00    +0.000 C 
ATOM     26  N   UNL     1      -2.867  14.601  23.910  0.00  0.00    +0.000 NA
ATOM     27  C   UNL     1      -1.391  14.502  23.933  0.00  0.00    +0.000 C 
ATOM     28  C   UNL     1      -0.792  13.808  22.687  0.00  0.00    +0.000 C 
ATOM     29  H   UNL     1      -3.182  14.925  24.824  0.00  0.00    +0.000 HD
ENDBRANCH  10  23
BRANCH   1  31
ATOM     30  C   UNL     1       2.567  12.585  18.200  0.00  0.00    +0.000 C 
ATOM     31  C   UNL     1       1.268  11.796  18.129  0.00  0.00    +0.000 C 
ENDBRANCH   1  31
TORSDOF 3
ENDMDL
MODEL 3
REMARK VINA RESULT:      -7.5      2.891      9.215
REMARK  Name = 
REMARK  4 active torsions:
REMARK  status: ('A' for Active; 'I' for Inactive)
REMARK    1  A    between atoms: C_1  and  C_2
REMARK    2  A    between atoms: C_2  and  N_3
REMARK    3  A    between atoms: C_5  and  C_6
REMARK    4  A    between atoms: C_21  and  N_22
REMARK                            x       y       z     vdW  Elec       q    Type
REMARK                         _______ _______ _______ _____ _____    ______ ____
ROOT
ATOM      1  N   UNL     1      -0.968  10.890  18.632  0.00  0.00    +0.000 N 
ATOM      2  C   UNL     1       0.095  10.020  18.466  0.00  0.00    +0.000 A 
ATOM      3  C   UNL     1       0.877   9.504  19.422  0.00  0.00    +0.000 A 
ATOM      4  C   UNL     1       0.608   9.932  20.813  0.00  0.00    +0.000 A 
ATOM      5  O   UNL     1       1.285   9.533  21.756  0.00  0.00    +0.000 OA
ATOM      6  C   UNL     1      -0.538  10.871  21.029  0.00  0.00    +0.000 A 
ATOM      7  C   UNL     1      -0.837  11.285  22.332  0.00  0.00    +0.000 A 
ATOM      8  C   UNL     1      -1.898  12.161  22.539  0.00  0.00    +0.000 A 
ATOM      9  F   UNL     1      -2.179  12.498  23.811  0.00  0.00    +0.000 F 
ATOM     10  C   UNL     1      -2.697  12.646  21.489  0.00  0.00    +0.000 A 
ATOM     11  C   UNL     1      -2.371  12.207  20.200  0.00  0.00    +0.000 A 
ATOM     12  C   UNL     1      -1.299  11.320  19.930  0.00  0.00    +0.000 A 
ENDROOT
BRANCH   3  13
ATOM     13  C   UNL     1       1.838   8.533  19.047  0.00  0.00    +0.000 A 
ATOM     14  N   UNL     1       2.625   8.529  17.985  0.00  0.00    +0.000 NA
ATOM     15  C   UNL     1       3.278   7.330  18.009  0.00  0.00    +0.000 A 
ATOM     16  C   UNL     1       4.090   6.750  17.029  0.00  0.00    +0.000 A 
ATOM     17  C   UNL     1       4.639   5.490  17.284  0.00  0.00    +0.000 A 
ATOM     18  C   UNL     1       4.458   4.872  18.525  0.00  0.00    +0.000 A 
ATOM     19  C   UNL     1       3.647   5.443  19.517  0.00  0.00    +0.000 A 
ATOM     20  C   UNL     1       3.016   6.644  19.186  0.00  0.00    +0.000 A 
ATOM     21  N   UNL     1       2.021   7.383  19.783  0.00  0.00    +0.000 N 
ATOM     22  H   UNL     1       1.434   7.092  20.558  0.00  0.00    +0.000 HD
ENDBRANCH   3  13
BRANCH  10  23
ATOM     23  N   UNL     1      -3.783  13.476  21.727  0.00  0.00    +0.000 N 
ATOM     24  C   UNL     1      -5.176  13.045  21.538  0.00  0.00    +0.000 C 
ATOM     25  C   UNL     1      -6.062  13.762  22.587  0.00  0.00    +0.000 C 
ATOM     26  N   UNL     1      -5.956  15.236  22.553  0.00  0.00    +0.000 NA
ATOM     27  C   UNL     1      -4.534  15.635  22.654  0.00  0.00    +0.000 C 
ATOM     28  C   UNL     1      -3.615  14.939  21.623  0.00  0.00    +0.000 C 
ATOM     29  H   UNL     1      -6.455  15.616  23.357  0.00  0.00    +0.000 HD
ENDBRANCH  10  23
BRANCH   1  31
ATOM     30  C   UNL     1      -2.282  10.076  16.707  0.00  0.00    +0.000 C 
ATOM     31  C   UNL     1      -1.777  11.293  17.468  0.00  0.00    +0.000 C 
ENDBRANCH   1  31
TORSDOF 3
ENDMDL
MODEL 4
REMARK VINA RESULT:      -7.5      1.875      9.022
REMARK  Name = 
REMARK  4 active torsions:
REMARK  status: ('A' for Active; 'I' for Inactive)
REMARK    1  A    between atoms: C_1  and  C_2
REMARK    2  A    between atoms: C_2  and  N_3
REMARK    3  A    between atoms: C_5  and  C_6
REMARK    4  A    between atoms: C_21  and  N_22
REMARK                            x       y       z     vdW  Elec       q    Type
REMARK                         _______ _______ _______ _____ _____    ______ ____
ROOT
ATOM      1  N   UNL     1       1.369  10.587  18.897  0.00  0.00    +0.000 N 
ATOM      2  C   UNL     1       2.102   9.497  18.459  0.00  0.00    +0.000 A 
ATOM      3  C   UNL     1       2.216   8.305  19.056  0.00  0.00    +0.000 A 
ATOM      4  C   UNL     1       1.513   8.131  20.347  0.00  0.00    +0.000 A 
ATOM      5  O   UNL     1       1.577   7.082  20.983  0.00  0.00    +0.000 OA
ATOM      6  C   UNL     1       0.708   9.289  20.849  0.00  0.00    +0.000 A 
ATOM      7  C   UNL     1       0.014   9.158  22.057  0.00  0.00    +0.000 A 
ATOM      8  C   UNL     1      -0.732  10.233  22.531  0.00  0.00    +0.000 A 
ATOM      9  F   UNL     1      -1.420  10.049  23.672  0.00  0.00    +0.000 F 
ATOM     10  C   UNL     1      -0.830  11.451  21.838  0.00  0.00    +0.000 A 
ATOM     11  C   UNL     1      -0.126  11.545  20.632  0.00  0.00    +0.000 A 
ATOM     12  C   UNL     1       0.654  10.486  20.104  0.00  0.00    +0.000 A 
ENDROOT
BRANCH   3  13
ATOM     13  C   UNL     1       2.921   7.282  18.375  0.00  0.00    +0.000 A 
ATOM     14  N   UNL     1       3.991   7.398  17.608  0.00  0.00    +0.000 NA
ATOM     15  C   UNL     1       4.217   6.155  17.092  0.00  0.00    +0.000 A 
ATOM     16  C   UNL     1       5.114   5.766  16.091  0.00  0.00    +0.000 A 
ATOM     17  C   UNL     1       5.148   4.419  15.719  0.00  0.00    +0.000 A 
ATOM     18  C   UNL     1       4.375   3.472  16.399  0.00  0.00    +0.000 A 
ATOM     19  C   UNL     1       3.473   3.847  17.405  0.00  0.00    +0.000 A 
ATOM     20  C   UNL     1       3.374   5.215  17.670  0.00  0.00    +0.000 A 
ATOM     21  N   UNL     1       2.494   5.973  18.408  0.00  0.00    +0.000 N 
ATOM     22  H   UNL     1       1.617   5.659  18.809  0.00  0.00    +0.000 HD
ENDBRANCH   3  13
BRANCH  10  23
ATOM     23  N   UNL     1      -1.624  12.490  22.304  0.00  0.00    +0.000 N 
ATOM     24  C   UNL     1      -3.019  12.682  21.881  0.00  0.00    +0.000 C 
ATOM     25  C   UNL     1      -3.817  13.280  23.066  0.00  0.00    +0.000 C 
ATOM     26  N   UNL     1      -3.249  14.536  23.597  0.00  0.00    +0.000 NA
ATOM     27  C   UNL     1      -1.820  14.335  23.929  0.00  0.00    +0.000 C 
ATOM     28  C   UNL     1      -0.988  13.738  22.770  0.00  0.00    +0.000 C 
ATOM     29  H   UNL     1      -3.746  14.782  24.453  0.00  0.00    +0.000 HD
ENDBRANCH  10  23
BRANCH   1  31
ATOM     30  C   UNL     1       2.546  12.645  18.206  0.00  0.00    +0.000 C 
ATOM     31  C   UNL     1       1.288  11.801  18.064  0.00  0.00    +0.000 C 
ENDBRANCH   1  31
TORSDOF 3
ENDMDL
MODEL 5
REMARK VINA RESULT:      -7.4      1.949      9.047
REMARK  Name = 
REMARK  4 active torsions:
REMARK  status: ('A' for Active; 'I' for Inactive)
REMARK    1  A    between atoms: C_1  and  C_2
REMARK    2  A    between atoms: C_2  and  N_3
REMARK    3  A    between atoms: C_5  and  C_6
REMARK    4  A    between atoms: C_21  and  N_22
REMARK                            x       y       z     vdW  Elec       q    Type
REMARK                         _______ _______ _______ _____ _____    ______ ____
ROOT
ATOM      1  N   UNL     1       1.266  10.679  18.842  0.00  0.00    +0.000 N 
ATOM      2  C   UNL     1       1.951   9.560  18.403  0.00  0.00    +0.000 A 
ATOM      3  C   UNL     1       2.037   8.371  19.013  0.00  0.00    +0.000 A 
ATOM      4  C   UNL     1       1.357   8.238  20.321  0.00  0.00    +0.000 A 
ATOM      5  O   UNL     1       1.398   7.196  20.969  0.00  0.00    +0.000 OA
ATOM      6  C   UNL     1       0.604   9.430  20.825  0.00  0.00    +0.000 A 
ATOM      7  C   UNL     1      -0.067   9.338  22.050  0.00  0.00    +0.000 A 
ATOM      8  C   UNL     1      -0.766  10.444  22.525  0.00  0.00    +0.000 A 
ATOM      9  F   UNL     1      -1.434  10.299  23.683  0.00  0.00    +0.000 F 
ATOM     10  C   UNL     1      -0.836  11.657  21.818  0.00  0.00    +0.000 A 
ATOM     11  C   UNL     1      -0.156  11.711  20.596  0.00  0.00    +0.000 A 
ATOM     12  C   UNL     1       0.575  10.618  20.066  0.00  0.00    +0.000 A 
ENDROOT
BRANCH   3  13
ATOM     13  C   UNL     1       2.691   7.316  18.331  0.00  0.00    +0.000 A 
ATOM     14  N   UNL     1       2.382   6.030  18.326  0.00  0.00    +0.000 NA
ATOM     15  C   UNL     1       3.375   5.411  17.624  0.00  0.00    +0.000 A 
ATOM     16  C   UNL     1       3.624   4.043  17.470  0.00  0.00    +0.000 A 
ATOM     17  C   UNL     1       4.728   3.652  16.707  0.00  0.00    +0.000 A 
ATOM     18  C   UNL     1       5.503   4.602  16.038  0.00  0.00    +0.000 A 
ATOM     19  C   UNL     1       5.265   5.977  16.181  0.00  0.00    +0.000 A 
ATOM     20  C   UNL     1       4.230   6.339  17.046  0.00  0.00    +0.000 A 
ATOM     21  N   UNL     1       3.832   7.537  17.592  0.00  0.00    +0.000 N 
ATOM     22  H   UNL     1       4.344   8.413  17.566  0.00  0.00    +0.000 HD
ENDBRANCH   3  13
BRANCH  10  23
ATOM     23  N   UNL     1      -1.584  12.728  22.287  0.00  0.00    +0.000 N 
ATOM     24  C   UNL     1      -1.115  13.626  23.352  0.00  0.00    +0.000 C 
ATOM     25  C   UNL     1      -1.667  15.047  23.079  0.00  0.00    +0.000 C 
ATOM     26  N   UNL     1      -3.138  15.103  22.951  0.00  0.00    +0.000 NA
ATOM     27  C   UNL     1      -3.587  14.124  21.936  0.00  0.00    +0.000 C 
ATOM     28  C   UNL     1      -3.056  12.691  22.173  0.00  0.00    +0.000 C 
ATOM     29  H   UNL     1      -3.402  16.037  22.636  0.00  0.00    +0.000 HD
ENDBRANCH  10  23
BRANCH   1  31
ATOM     30  C   UNL     1       2.449  12.744  18.185  0.00  0.00    +0.000 C 
ATOM     31  C   UNL     1       1.209  11.884  17.995  0.00  0.00    +0.000 C 
ENDBRANCH   1  31
TORSDOF 3
ENDMDL
MODEL 6
REMARK VINA RESULT:      -7.4      1.955      8.979
REMARK  Name = 
REMARK  4 active torsions:
REMARK  status: ('A' for Active; 'I' for Inactive)
REMARK    1  A    between atoms: C_1  and  C_2
REMARK    2  A    between atoms: C_2  and  N_3
REMARK    3  A    between atoms: C_5  and  C_6
REMARK    4  A    between atoms: C_21  and  N_22
REMARK                            x       y       z     vdW  Elec       q    Type
REMARK                         _______ _______ _______ _____ _____    ______ ____
ROOT
ATOM      1  N   UNL     1       1.315  10.671  18.881  0.00  0.00    +0.000 N 
ATOM      2  C   UNL     1       2.037   9.561  18.478  0.00  0.00    +0.000 A 
ATOM      3  C   UNL     1       2.126   8.382  19.104  0.00  0.00    +0.000 A 
ATOM      4  C   UNL     1       1.407   8.249  20.391  0.00  0.00    +0.000 A 
ATOM      5  O   UNL     1       1.448   7.215  21.052  0.00  0.00    +0.000 OA
ATOM      6  C   UNL     1       0.614   9.430  20.856  0.00  0.00    +0.000 A 
ATOM      7  C   UNL     1      -0.096   9.338  22.059  0.00  0.00    +0.000 A 
ATOM      8  C   UNL     1      -0.832  10.434  22.498  0.00  0.00    +0.000 A 
ATOM      9  F   UNL     1      -1.534  10.287  23.636  0.00  0.00    +0.000 F 
ATOM     10  C   UNL     1      -0.904  11.637  21.776  0.00  0.00    +0.000 A 
ATOM     11  C   UNL     1      -0.185  11.692  20.576  0.00  0.00    +0.000 A 
ATOM     12  C   UNL     1       0.585  10.609  20.083  0.00  0.00    +0.000 A 
ENDROOT
BRANCH   3  13
ATOM     13  C   UNL     1       2.824   7.333  18.456  0.00  0.00    +0.000 A 
ATOM     14  N   UNL     1       3.910   7.414  17.706  0.00  0.00    +0.000 NA
ATOM     15  C   UNL     1       4.121   6.157  17.218  0.00  0.00    +0.000 A 
ATOM     16  C   UNL     1       5.028   5.732  16.241  0.00  0.00    +0.000 A 
ATOM     17  C   UNL     1       5.043   4.378  15.896  0.00  0.00    +0.000 A 
ATOM     18  C   UNL     1       4.241   3.459  16.579  0.00  0.00    +0.000 A 
ATOM     19  C   UNL     1       3.328   3.871  17.561  0.00  0.00    +0.000 A 
ATOM     20  C   UNL     1       3.250   5.245  17.798  0.00  0.00    +0.000 A 
ATOM     21  N   UNL     1       2.372   6.033  18.505  0.00  0.00    +0.000 N 
ATOM     22  H   UNL     1       1.482   5.743  18.896  0.00  0.00    +0.000 HD
ENDBRANCH   3  13
BRANCH  10  23
ATOM     23  N   UNL     1      -1.688  12.697  22.208  0.00  0.00    +0.000 N 
ATOM     24  C   UNL     1      -1.307  13.570  23.328  0.00  0.00    +0.000 C 
ATOM     25  C   UNL     1      -1.838  14.998  23.044  0.00  0.00    +0.000 C 
ATOM     26  N   UNL     1      -3.294  15.058  22.800  0.00  0.00    +0.000 NA
ATOM     27  C   UNL     1      -3.659  14.102  21.730  0.00  0.00    +0.000 C 
ATOM     28  C   UNL     1      -3.146  12.664  21.976  0.00  0.00    +0.000 C 
ATOM     29  H   UNL     1      -3.533  15.999  22.486  0.00  0.00    +0.000 HD
ENDBRANCH  10  23
BRANCH   1  31
ATOM     30  C   UNL     1       2.471  12.759  18.247  0.00  0.00    +0.000 C 
ATOM     31  C   UNL     1       1.261  11.866  18.019  0.00  0.00    +0.000 C 
ENDBRANCH   1  31
TORSDOF 3
ENDMDL
MODEL 7
REMARK VINA RESULT:      -7.4      2.947      4.270
REMARK  Name = 
REMARK  4 active torsions:
REMARK  status: ('A' for Active; 'I' for Inactive)
REMARK    1  A    between atoms: C_1  and  C_2
REMARK    2  A    between atoms: C_2  and  N_3
REMARK    3  A    between atoms: C_5  and  C_6
REMARK    4  A    between atoms: C_21  and  N_22
REMARK                            x       y       z     vdW  Elec       q    Type
REMARK                         _______ _______ _______ _____ _____    ______ ____
ROOT
ATOM      1  N   UNL     1       0.804   9.601  21.190  0.00  0.00    +0.000 N 
ATOM      2  C   UNL     1       0.714  10.946  20.876  0.00  0.00    +0.000 A 
ATOM      3  C   UNL     1       1.110  11.543  19.746  0.00  0.00    +0.000 A 
ATOM      4  C   UNL     1       1.749  10.685  18.722  0.00  0.00    +0.000 A 
ATOM      5  O   UNL     1       2.167  11.143  17.663  0.00  0.00    +0.000 OA
ATOM      6  C   UNL     1       1.860   9.223  19.027  0.00  0.00    +0.000 A 
ATOM      7  C   UNL     1       2.441   8.376  18.077  0.00  0.00    +0.000 A 
ATOM      8  C   UNL     1       2.550   7.017  18.357  0.00  0.00    +0.000 A 
ATOM      9  F   UNL     1       3.074   6.232  17.398  0.00  0.00    +0.000 F 
ATOM     10  C   UNL     1       2.089   6.451  19.557  0.00  0.00    +0.000 A 
ATOM     11  C   UNL     1       1.509   7.328  20.482  0.00  0.00    +0.000 A 
ATOM     12  C   UNL     1       1.377   8.720  20.253  0.00  0.00    +0.000 A 
ENDROOT
BRANCH   3  13
ATOM     13  C   UNL     1       0.815  12.918  19.578  0.00  0.00    +0.000 A 
ATOM     14  N   UNL     1      -0.286  13.566  19.918  0.00  0.00    +0.000 NA
ATOM     15  C   UNL     1      -0.134  14.836  19.443  0.00  0.00    +0.000 A 
ATOM     16  C   UNL     1      -1.073  15.871  19.379  0.00  0.00    +0.000 A 
ATOM     17  C   UNL     1      -0.676  17.092  18.826  0.00  0.00    +0.000 A 
ATOM     18  C   UNL     1       0.650  17.300  18.436  0.00  0.00    +0.000 A 
ATOM     19  C   UNL     1       1.603  16.272  18.495  0.00  0.00    +0.000 A 
ATOM     20  C   UNL     1       1.145  15.029  18.940  0.00  0.00    +0.000 A 
ATOM     21  N   UNL     1       1.696  13.769  18.946  0.00  0.00    +0.000 N 
ATOM     22  H   UNL     1       2.541  13.477  18.468  0.00  0.00    +0.000 HD
ENDBRANCH   3  13
BRANCH  10  23
ATOM     23  N   UNL     1       2.160   5.085  19.790  0.00  0.00    +0.000 N 
ATOM     24  C   UNL     1       1.081   4.327  20.440  0.00  0.00    +0.000 C 
ATOM     25  C   UNL     1       1.048   2.900  19.838  0.00  0.00    +0.000 C 
ATOM     26  N   UNL     1       2.333   2.178  19.937  0.00  0.00    +0.000 NA
ATOM     27  C   UNL     1       3.414   3.006  19.356  0.00  0.00    +0.000 C 
ATOM     28  C   UNL     1       3.481   4.440  19.931  0.00  0.00    +0.000 C 
ATOM     29  H   UNL     1       2.264   1.315  19.398  0.00  0.00    +0.000 HD
ENDBRANCH  10  23
BRANCH   1  31
ATOM     30  C   UNL     1      -0.666  10.144  23.098  0.00  0.00    +0.000 C 
ATOM     31  C   UNL     1       0.237   9.102  22.455  0.00  0.00    +0.000 C 
ENDBRANCH   1  31
TORSDOF 3
ENDMDL
MODEL 8
REMARK VINA RESULT:      -7.4      0.252      1.103
REMARK  Name = 
REMARK  4 active torsions:
REMARK  status: ('A' for Active; 'I' for Inactive)
REMARK    1  A    between atoms: C_1  and  C_2
REMARK    2  A    between atoms: C_2  and  N_3
REMARK    3  A    between atoms: C_5  and  C_6
REMARK    4  A    between atoms: C_21  and  N_22
REMARK                            x       y       z     vdW  Elec       q    Type
REMARK                         _______ _______ _______ _____ _____    ______ ____
ROOT
ATOM      1  N   UNL     1       1.318  10.103  19.238  0.00  0.00    +0.000 N 
ATOM      2  C   UNL     1       0.562  10.909  20.071  0.00  0.00    +0.000 A 
ATOM      3  C   UNL     1       0.008  10.570  21.242  0.00  0.00    +0.000 A 
ATOM      4  C   UNL     1       0.188   9.170  21.689  0.00  0.00    +0.000 A 
ATOM      5  O   UNL     1      -0.302   8.757  22.736  0.00  0.00    +0.000 OA
ATOM      6  C   UNL     1       1.003   8.272  20.812  0.00  0.00    +0.000 A 
ATOM      7  C   UNL     1       1.211   6.946  21.209  0.00  0.00    +0.000 A 
ATOM      8  C   UNL     1       1.965   6.105  20.396  0.00  0.00    +0.000 A 
ATOM      9  F   UNL     1       2.178   4.852  20.837  0.00  0.00    +0.000 F 
ATOM     10  C   UNL     1       2.541   6.534  19.188  0.00  0.00    +0.000 A 
ATOM     11  C   UNL     1       2.315   7.867  18.825  0.00  0.00    +0.000 A 
ATOM     12  C   UNL     1       1.552   8.767  19.611  0.00  0.00    +0.000 A 
ENDROOT
BRANCH   3  13
ATOM     13  C   UNL     1      -0.627  11.585  21.999  0.00  0.00    +0.000 A 
ATOM     14  N   UNL     1      -1.734  11.497  22.717  0.00  0.00    +0.000 NA
ATOM     15  C   UNL     1      -1.998  12.764  23.152  0.00  0.00    +0.000 A 
ATOM     16  C   UNL     1      -3.137  13.254  23.799  0.00  0.00    +0.000 A 
ATOM     17  C   UNL     1      -3.177  14.610  24.133  0.00  0.00    +0.000 A 
ATOM     18  C   UNL     1      -2.068  15.432  23.912  0.00  0.00    +0.000 A 
ATOM     19  C   UNL     1      -0.919  14.954  23.265  0.00  0.00    +0.000 A 
ATOM     20  C   UNL     1      -0.956  13.626  22.836  0.00  0.00    +0.000 A 
ATOM     21  N   UNL     1      -0.145  12.875  22.017  0.00  0.00    +0.000 N 
ATOM     22  H   UNL     1       0.606  13.221  21.429  0.00  0.00    +0.000 HD
ENDBRANCH   3  13
BRANCH  10  23
ATOM     23  N   UNL     1       3.333   5.691  18.422  0.00  0.00    +0.000 N 
ATOM     24  C   UNL     1       4.585   6.128  17.788  0.00  0.00    +0.000 C 
ATOM     25  C   UNL     1       5.570   4.933  17.763  0.00  0.00    +0.000 C 
ATOM     26  N   UNL     1       5.033   3.729  17.096  0.00  0.00    +0.000 NA
ATOM     27  C   UNL     1       3.729   3.367  17.696  0.00  0.00    +0.000 C 
ATOM     28  C   UNL     1       2.717   4.536  17.740  0.00  0.00    +0.000 C 
ATOM     29  H   UNL     1       5.682   2.956  17.247  0.00  0.00    +0.000 HD
ENDBRANCH  10  23
BRANCH   1  31
ATOM     30  C   UNL     1       2.312  12.126  18.229  0.00  0.00    +0.000 C 
ATOM     31  C   UNL     1       1.924  10.670  18.020  0.00  0.00    +0.000 C 
ENDBRANCH   1  31
TORSDOF 3
ENDMDL
MODEL 9
REMARK VINA RESULT:      -7.3      1.075      1.564
REMARK  Name = 
REMARK  4 active torsions:
REMARK  status: ('A' for Active; 'I' for Inactive)
REMARK    1  A    between atoms: C_1  and  C_2
REMARK    2  A    between atoms: C_2  and  N_3
REMARK    3  A    between atoms: C_5  and  C_6
REMARK    4  A    between atoms: C_21  and  N_22
REMARK                            x       y       z     vdW  Elec       q    Type
REMARK                         _______ _______ _______ _____ _____    ______ ____
ROOT
ATOM      1  N   UNL     1       1.380   9.704  19.030  0.00  0.00    +0.000 N 
ATOM      2  C   UNL     1       0.455  10.474  19.713  0.00  0.00    +0.000 A 
ATOM      3  C   UNL     1      -0.245  10.126  20.799  0.00  0.00    +0.000 A 
ATOM      4  C   UNL     1      -0.041   8.754  21.317  0.00  0.00    +0.000 A 
ATOM      5  O   UNL     1      -0.655   8.334  22.294  0.00  0.00    +0.000 OA
ATOM      6  C   UNL     1       0.956   7.895  20.604  0.00  0.00    +0.000 A 
ATOM      7  C   UNL     1       1.190   6.598  21.075  0.00  0.00    +0.000 A 
ATOM      8  C   UNL     1       2.113   5.793  20.413  0.00  0.00    +0.000 A 
ATOM      9  F   UNL     1       2.341   4.570  20.925  0.00  0.00    +0.000 F 
ATOM     10  C   UNL     1       2.834   6.232  19.290  0.00  0.00    +0.000 A 
ATOM     11  C   UNL     1       2.576   7.536  18.850  0.00  0.00    +0.000 A 
ATOM     12  C   UNL     1       1.645   8.398  19.481  0.00  0.00    +0.000 A 
ENDROOT
BRANCH   3  13
ATOM     13  C   UNL     1      -1.054  11.112  21.416  0.00  0.00    +0.000 A 
ATOM     14  N   UNL     1      -1.317  11.265  22.703  0.00  0.00    +0.000 NA
ATOM     15  C   UNL     1      -2.234  12.273  22.779  0.00  0.00    +0.000 A 
ATOM     16  C   UNL     1      -2.971  12.712  23.884  0.00  0.00    +0.000 A 
ATOM     17  C   UNL     1      -3.873  13.765  23.702  0.00  0.00    +0.000 A 
ATOM     18  C   UNL     1      -3.962  14.423  22.472  0.00  0.00    +0.000 A 
ATOM     19  C   UNL     1      -3.228  13.995  21.356  0.00  0.00    +0.000 A 
ATOM     20  C   UNL     1      -2.427  12.865  21.538  0.00  0.00    +0.000 A 
ATOM     21  N   UNL     1      -1.742  12.044  20.672  0.00  0.00    +0.000 N 
ATOM     22  H   UNL     1      -1.816  12.038  19.660  0.00  0.00    +0.000 HD
ENDBRANCH   3  13
BRANCH  10  23
ATOM     23  N   UNL     1       3.788   5.430  18.681  0.00  0.00    +0.000 N 
ATOM     24  C   UNL     1       3.444   4.327  17.772  0.00  0.00    +0.000 C 
ATOM     25  C   UNL     1       4.551   4.210  16.695  0.00  0.00    +0.000 C 
ATOM     26  N   UNL     1       5.909   4.032  17.250  0.00  0.00    +0.000 NA
ATOM     27  C   UNL     1       6.192   5.106  18.228  0.00  0.00    +0.000 C 
ATOM     28  C   UNL     1       5.107   5.257  19.321  0.00  0.00    +0.000 C 
ATOM     29  H   UNL     1       6.584   4.106  16.488  0.00  0.00    +0.000 HD
ENDBRANCH  10  23
BRANCH   1  31
ATOM     30  C   UNL     1       2.337  11.776  18.088  0.00  0.00    +0.000 C 
ATOM     31  C   UNL     1       2.124  10.283  17.896  0.00  0.00    +0.000 C 
ENDBRANCH   1  31
TORSDOF 3
ENDMDL
