MODEL 1
REMARK VINA RESULT:      -9.7      0.000      0.000
REMARK  Name = 
REMARK  4 active torsions:
REMARK  status: ('A' for Active; 'I' for Inactive)
REMARK    1  A    between atoms: C_2  and  C_21
REMARK    2  A    between atoms: N_3  and  C_4
REMARK    3  A    between atoms: C_15  and  C_16
REMARK    4  A    between atoms: C_24  and  C_25
REMARK                            x       y       z     vdW  Elec       q    Type
REMARK                         _______ _______ _______ _____ _____    ______ ____
ROOT
ATOM      1  C   UNL     1       3.686   5.520  17.562  0.00  0.00    +0.000 C 
ATOM      2  C   UNL     1       3.026   4.311  18.184  0.00  0.00    +0.000 A 
ATOM      3  C   UNL     1       1.669   4.023  17.947  0.00  0.00    +0.000 A 
ATOM      4  C   UNL     1       1.079   2.877  18.480  0.00  0.00    +0.000 A 
ATOM      5  C   UNL     1       1.836   1.996  19.247  0.00  0.00    +0.000 A 
ATOM      6  C   UNL     1       3.184   2.266  19.483  0.00  0.00    +0.000 A 
ATOM      7  C   UNL     1       3.773   3.419  18.956  0.00  0.00    +0.000 A 
ATOM      8  O   UNL     1       5.106   3.589  19.241  0.00  0.00    +0.000 OA
ATOM      9  C   UNL     1       5.739   4.719  18.785  0.00  0.00    +0.000 A 
ATOM     10  C   UNL     1       7.079   4.856  19.149  0.00  0.00    +0.000 A 
ATOM     11  C   UNL     1       7.814   5.967  18.724  0.00  0.00    +0.000 A 
ATOM     12  C   UNL     1       7.234   6.957  17.921  0.00  0.00    +0.000 A 
ATOM     13  C   UNL     1       5.881   6.795  17.573  0.00  0.00    +0.000 A 
ATOM     14  C   UNL     1       5.121   5.688  18.000  0.00  0.00    +0.000 A 
ENDROOT
BRANCH   1  17
ATOM     15  O   UNL     1       2.868   6.455  20.118  0.00  0.00    +0.000 OA
ATOM     16  C   UNL     1       2.571   7.102  19.118  0.00  0.00    +0.000 C 
ATOM     17  N   UNL     1       2.919   6.722  17.851  0.00  0.00    +0.000 N 
ATOM     18  H   UNL     1       2.640   7.296  17.056  0.00  0.00    +0.000 HD
BRANCH  16  19
ATOM     19  C   UNL     1       1.809   8.385  19.224  0.00  0.00    +0.000 A 
ATOM     20  C   UNL     1       1.136   8.654  20.360  0.00  0.00    +0.000 A 
ATOM     21  C   UNL     1       0.423   9.902  20.548  0.00  0.00    +0.000 A 
ATOM     22  C   UNL     1       0.430  10.842  19.589  0.00  0.00    +0.000 A 
ATOM     23  N   UNL     1       1.106  10.574  18.411  0.00  0.00    +0.000 N 
ATOM     24  C   UNL     1       1.775   9.409  18.141  0.00  0.00    +0.000 A 
ATOM     25  O   UNL     1       2.321   9.236  17.054  0.00  0.00    +0.000 OA
ATOM     26  H   UNL     1       1.112  11.270  17.668  0.00  0.00    +0.000 HD
BRANCH  22  27
ATOM     27  C   UNL     1      -0.262  12.180  19.723  0.00  0.00    +0.000 C 
ATOM     28  F   UNL     1      -1.503  12.043  20.263  0.00  0.00    +0.000 F 
ATOM     29  F   UNL     1       0.426  13.032  20.523  0.00  0.00    +0.000 F 
ATOM     30  F   UNL     1      -0.421  12.792  18.523  0.00  0.00    +0.000 F 
ENDBRANCH  22  27
ENDBRANCH  16  19
ENDBRANCH   1  17
BRANCH  12  31
ATOM     31  C   UNL     1       8.014   8.170  17.472  0.00  0.00    +0.000 C 
ATOM     32  C   UNL     1       7.474   9.564  17.688  0.00  0.00    +0.000 C 
ATOM     33  C   UNL     1       8.630   9.082  18.509  0.00  0.00    +0.000 C 
ENDBRANCH  12  31
TORSDOF 4
ENDMDL
MODEL 2
REMARK VINA RESULT:      -9.6      0.918      1.233
REMARK  Name = 
REMARK  4 active torsions:
REMARK  status: ('A' for Active; 'I' for Inactive)
REMARK    1  A    between atoms: C_2  and  C_21
REMARK    2  A    between atoms: N_3  and  C_4
REMARK    3  A    between atoms: C_15  and  C_16
REMARK    4  A    between atoms: C_24  and  C_25
REMARK                            x       y       z     vdW  Elec       q    Type
REMARK                         _______ _______ _______ _____ _____    ______ ____
ROOT
ATOM      1  C   UNL     1       3.816   5.521  17.499  0.00  0.00    +0.000 C 
ATOM      2  C   UNL     1       3.168   4.302  18.115  0.00  0.00    +0.000 A 
ATOM      3  C   UNL     1       1.824   3.983  17.849  0.00  0.00    +0.000 A 
ATOM      4  C   UNL     1       1.246   2.827  18.377  0.00  0.00    +0.000 A 
ATOM      5  C   UNL     1       2.006   1.968  19.166  0.00  0.00    +0.000 A 
ATOM      6  C   UNL     1       3.342   2.268  19.430  0.00  0.00    +0.000 A 
ATOM      7  C   UNL     1       3.918   3.431  18.909  0.00  0.00    +0.000 A 
ATOM      8  O   UNL     1       5.239   3.632  19.222  0.00  0.00    +0.000 OA
ATOM      9  C   UNL     1       5.857   4.772  18.773  0.00  0.00    +0.000 A 
ATOM     10  C   UNL     1       7.186   4.941  19.165  0.00  0.00    +0.000 A 
ATOM     11  C   UNL     1       7.906   6.065  18.750  0.00  0.00    +0.000 A 
ATOM     12  C   UNL     1       7.323   7.037  17.927  0.00  0.00    +0.000 A 
ATOM     13  C   UNL     1       5.982   6.843  17.550  0.00  0.00    +0.000 A 
ATOM     14  C   UNL     1       5.237   5.723  17.967  0.00  0.00    +0.000 A 
ENDROOT
BRANCH   1  17
ATOM     15  O   UNL     1       2.921   6.454  20.030  0.00  0.00    +0.000 OA
ATOM     16  C   UNL     1       2.632   7.088  19.019  0.00  0.00    +0.000 C 
ATOM     17  N   UNL     1       3.017   6.708  17.763  0.00  0.00    +0.000 N 
ATOM     18  H   UNL     1       2.743   7.271  16.958  0.00  0.00    +0.000 HD
BRANCH  16  19
ATOM     19  C   UNL     1       1.840   8.354  19.100  0.00  0.00    +0.000 A 
ATOM     20  C   UNL     1       1.720   9.123  18.000  0.00  0.00    +0.000 A 
ATOM     21  C   UNL     1       0.923  10.333  17.996  0.00  0.00    +0.000 A 
ATOM     22  C   UNL     1       0.259  10.715  19.101  0.00  0.00    +0.000 A 
ATOM     23  N   UNL     1       0.385   9.943  20.243  0.00  0.00    +0.000 N 
ATOM     24  C   UNL     1       1.144   8.806  20.339  0.00  0.00    +0.000 A 
ATOM     25  O   UNL     1       1.229   8.196  21.402  0.00  0.00    +0.000 OA
ATOM     26  H   UNL     1      -0.101  10.223  21.092  0.00  0.00    +0.000 HD
BRANCH  22  27
ATOM     27  C   UNL     1      -0.618  11.945  19.167  0.00  0.00    +0.000 C 
ATOM     28  F   UNL     1      -1.843  11.652  19.679  0.00  0.00    +0.000 F 
ATOM     29  F   UNL     1      -0.081  12.911  19.953  0.00  0.00    +0.000 F 
ATOM     30  F   UNL     1      -0.824  12.489  17.942  0.00  0.00    +0.000 F 
ENDBRANCH  22  27
ENDBRANCH  16  19
ENDBRANCH   1  17
BRANCH  12  31
ATOM     31  C   UNL     1       8.086   8.264  17.488  0.00  0.00    +0.000 C 
ATOM     32  C   UNL     1       7.523   9.649  17.705  0.00  0.00    +0.000 C 
ATOM     33  C   UNL     1       8.681   9.182  18.532  0.00  0.00    +0.000 C 
ENDBRANCH  12  31
TORSDOF 4
ENDMDL
MODEL 3
REMARK VINA RESULT:      -9.2      4.521      9.435
REMARK  Name = 
REMARK  4 active torsions:
REMARK  status: ('A' for Active; 'I' for Inactive)
REMARK    1  A    between atoms: C_2  and  C_21
REMARK    2  A    between atoms: N_3  and  C_4
REMARK    3  A    between atoms: C_15  and  C_16
REMARK    4  A    between atoms: C_24  and  C_25
REMARK                            x       y       z     vdW  Elec       q    Type
REMARK                         _______ _______ _______ _____ _____    ______ ____
ROOT
ATOM      1  C   UNL     1      -1.427  11.844  19.545  0.00  0.00    +0.000 C 
ATOM      2  C   UNL     1      -1.889  12.193  20.941  0.00  0.00    +0.000 A 
ATOM      3  C   UNL     1      -0.974  12.287  22.005  0.00  0.00    +0.000 A 
ATOM      4  C   UNL     1      -1.398  12.663  23.281  0.00  0.00    +0.000 A 
ATOM      5  C   UNL     1      -2.738  12.962  23.509  0.00  0.00    +0.000 A 
ATOM      6  C   UNL     1      -3.654  12.881  22.460  0.00  0.00    +0.000 A 
ATOM      7  C   UNL     1      -3.231  12.495  21.185  0.00  0.00    +0.000 A 
ATOM      8  O   UNL     1      -4.208  12.452  20.221  0.00  0.00    +0.000 OA
ATOM      9  C   UNL     1      -3.869  12.046  18.955  0.00  0.00    +0.000 A 
ATOM     10  C   UNL     1      -4.916  11.978  18.035  0.00  0.00    +0.000 A 
ATOM     11  C   UNL     1      -4.671  11.586  16.716  0.00  0.00    +0.000 A 
ATOM     12  C   UNL     1      -3.378  11.266  16.283  0.00  0.00    +0.000 A 
ATOM     13  C   UNL     1      -2.342  11.341  17.232  0.00  0.00    +0.000 A 
ATOM     14  C   UNL     1      -2.571  11.722  18.568  0.00  0.00    +0.000 A 
ENDROOT
BRANCH   1  17
ATOM     15  O   UNL     1       1.264  11.529  18.687  0.00  0.00    +0.000 OA
ATOM     16  C   UNL     1       0.658  10.559  19.133  0.00  0.00    +0.000 C 
ATOM     17  N   UNL     1      -0.639  10.621  19.563  0.00  0.00    +0.000 N 
ATOM     18  H   UNL     1      -1.094   9.781  19.919  0.00  0.00    +0.000 HD
BRANCH  16  19
ATOM     19  C   UNL     1       1.320   9.223  19.256  0.00  0.00    +0.000 A 
ATOM     20  C   UNL     1       1.914   8.685  18.172  0.00  0.00    +0.000 A 
ATOM     21  C   UNL     1       2.618   7.420  18.236  0.00  0.00    +0.000 A 
ATOM     22  C   UNL     1       2.714   6.752  19.398  0.00  0.00    +0.000 A 
ATOM     23  N   UNL     1       2.097   7.285  20.516  0.00  0.00    +0.000 N 
ATOM     24  C   UNL     1       1.384   8.456  20.532  0.00  0.00    +0.000 A 
ATOM     25  O   UNL     1       0.837   8.843  21.562  0.00  0.00    +0.000 OA
ATOM     26  H   UNL     1       2.148   6.786  21.401  0.00  0.00    +0.000 HD
BRANCH  22  27
ATOM     27  C   UNL     1       3.458   5.444  19.552  0.00  0.00    +0.000 C 
ATOM     28  F   UNL     1       3.329   4.668  18.442  0.00  0.00    +0.000 F 
ATOM     29  F   UNL     1       4.786   5.634  19.749  0.00  0.00    +0.000 F 
ATOM     30  F   UNL     1       2.994   4.716  20.597  0.00  0.00    +0.000 F 
ENDBRANCH  22  27
ENDBRANCH  16  19
ENDBRANCH   1  17
BRANCH  12  31
ATOM     31  C   UNL     1      -3.104  10.825  14.865  0.00  0.00    +0.000 C 
ATOM     32  C   UNL     1      -2.771   9.385  14.549  0.00  0.00    +0.000 C 
ATOM     33  C   UNL     1      -4.105   9.940  14.156  0.00  0.00    +0.000 C 
ENDBRANCH  12  31
TORSDOF 4
ENDMDL
MODEL 4
REMARK VINA RESULT:      -9.2      0.987      1.712
REMARK  Name = 
REMARK  4 active torsions:
REMARK  status: ('A' for Active; 'I' for Inactive)
REMARK    1  A    between atoms: C_2  and  C_21
REMARK    2  A    between atoms: N_3  and  C_4
REMARK    3  A    between atoms: C_15  and  C_16
REMARK    4  A    between atoms: C_24  and  C_25
REMARK                            x       y       z     vdW  Elec       q    Type
REMARK                         _______ _______ _______ _____ _____    ______ ____
ROOT
ATOM      1  C   UNL     1       3.560   5.719  17.898  0.00  0.00    +0.000 C 
ATOM      2  C   UNL     1       2.956   4.417  18.371  0.00  0.00    +0.000 A 
ATOM      3  C   UNL     1       1.562   4.227  18.381  0.00  0.00    +0.000 A 
ATOM      4  C   UNL     1       1.012   3.004  18.767  0.00  0.00    +0.000 A 
ATOM      5  C   UNL     1       1.844   1.951  19.137  0.00  0.00    +0.000 A 
ATOM      6  C   UNL     1       3.228   2.125  19.123  0.00  0.00    +0.000 A 
ATOM      7  C   UNL     1       3.779   3.353  18.744  0.00  0.00    +0.000 A 
ATOM      8  O   UNL     1       5.151   3.419  18.758  0.00  0.00    +0.000 OA
ATOM      9  C   UNL     1       5.757   4.606  18.433  0.00  0.00    +0.000 A 
ATOM     10  C   UNL     1       7.151   4.621  18.513  0.00  0.00    +0.000 A 
ATOM     11  C   UNL     1       7.862   5.781  18.190  0.00  0.00    +0.000 A 
ATOM     12  C   UNL     1       7.203   6.943  17.771  0.00  0.00    +0.000 A 
ATOM     13  C   UNL     1       5.799   6.900  17.703  0.00  0.00    +0.000 A 
ATOM     14  C   UNL     1       5.064   5.746  18.034  0.00  0.00    +0.000 A 
ENDROOT
BRANCH   1  17
ATOM     15  O   UNL     1       2.612   8.147  16.764  0.00  0.00    +0.000 OA
ATOM     16  C   UNL     1       2.528   7.977  17.977  0.00  0.00    +0.000 C 
ATOM     17  N   UNL     1       2.964   6.842  18.605  0.00  0.00    +0.000 N 
ATOM     18  H   UNL     1       2.873   6.758  19.617  0.00  0.00    +0.000 HD
BRANCH  16  19
ATOM     19  C   UNL     1       1.913   9.013  18.863  0.00  0.00    +0.000 A 
ATOM     20  C   UNL     1       1.777  10.272  18.401  0.00  0.00    +0.000 A 
ATOM     21  C   UNL     1       1.141  11.310  19.188  0.00  0.00    +0.000 A 
ATOM     22  C   UNL     1       0.647  11.035  20.406  0.00  0.00    +0.000 A 
ATOM     23  N   UNL     1       0.791   9.749  20.899  0.00  0.00    +0.000 N 
ATOM     24  C   UNL     1       1.408   8.721  20.235  0.00  0.00    +0.000 A 
ATOM     25  O   UNL     1       1.524   7.616  20.759  0.00  0.00    +0.000 OA
ATOM     26  H   UNL     1       0.433   9.526  21.826  0.00  0.00    +0.000 HD
BRANCH  22  27
ATOM     27  C   UNL     1      -0.058  12.054  21.273  0.00  0.00    +0.000 C 
ATOM     28  F   UNL     1       0.708  13.163  21.454  0.00  0.00    +0.000 F 
ATOM     29  F   UNL     1      -1.228  12.466  20.726  0.00  0.00    +0.000 F 
ATOM     30  F   UNL     1      -0.338  11.565  22.507  0.00  0.00    +0.000 F 
ENDBRANCH  22  27
ENDBRANCH  16  19
ENDBRANCH   1  17
BRANCH  12  31
ATOM     31  C   UNL     1       7.961   8.206  17.438  0.00  0.00    +0.000 C 
ATOM     32  C   UNL     1       7.424   9.562  17.834  0.00  0.00    +0.000 C 
ATOM     33  C   UNL     1       8.612   8.997  18.550  0.00  0.00    +0.000 C 
ENDBRANCH  12  31
TORSDOF 4
ENDMDL
MODEL 5
REMARK VINA RESULT:      -8.9      4.509      9.500
REMARK  Name = 
REMARK  4 active torsions:
REMARK  status: ('A' for Active; 'I' for Inactive)
REMARK    1  A    between atoms: C_2  and  C_21
REMARK    2  A    between atoms: N_3  and  C_4
REMARK    3  A    between atoms: C_15  and  C_16
REMARK    4  A    between atoms: C_24  and  C_25
REMARK                            x       y       z     vdW  Elec       q    Type
REMARK                         _______ _______ _______ _____ _____    ______ ____
ROOT
ATOM      1  C   UNL     1      -1.765  11.993  19.759  0.00  0.00    +0.000 C 
ATOM      2  C   UNL     1      -2.233  12.315  21.159  0.00  0.00    +0.000 A 
ATOM      3  C   UNL     1      -1.318  12.424  22.222  0.00  0.00    +0.000 A 
ATOM      4  C   UNL     1      -1.749  12.776  23.502  0.00  0.00    +0.000 A 
ATOM      5  C   UNL     1      -3.097  13.033  23.736  0.00  0.00    +0.000 A 
ATOM      6  C   UNL     1      -4.013  12.937  22.690  0.00  0.00    +0.000 A 
ATOM      7  C   UNL     1      -3.582  12.576  21.409  0.00  0.00    +0.000 A 
ATOM      8  O   UNL     1      -4.561  12.514  20.448  0.00  0.00    +0.000 OA
ATOM      9  C   UNL     1      -4.213  12.131  19.177  0.00  0.00    +0.000 A 
ATOM     10  C   UNL     1      -5.261  12.042  18.259  0.00  0.00    +0.000 A 
ATOM     11  C   UNL     1      -5.008  11.671  16.935  0.00  0.00    +0.000 A 
ATOM     12  C   UNL     1      -3.708  11.392  16.495  0.00  0.00    +0.000 A 
ATOM     13  C   UNL     1      -2.672  11.487  17.443  0.00  0.00    +0.000 A 
ATOM     14  C   UNL     1      -2.908  11.849  18.783  0.00  0.00    +0.000 A 
ENDROOT
BRANCH   1  17
ATOM     15  O   UNL     1       1.020  11.826  19.220  0.00  0.00    +0.000 OA
ATOM     16  C   UNL     1       0.399  10.803  19.495  0.00  0.00    +0.000 C 
ATOM     17  N   UNL     1      -0.942  10.793  19.762  0.00  0.00    +0.000 N 
ATOM     18  H   UNL     1      -1.408   9.912  19.979  0.00  0.00    +0.000 HD
BRANCH  16  19
ATOM     19  C   UNL     1       1.087   9.478  19.575  0.00  0.00    +0.000 A 
ATOM     20  C   UNL     1       1.018   8.772  20.722  0.00  0.00    +0.000 A 
ATOM     21  C   UNL     1       1.616   7.459  20.848  0.00  0.00    +0.000 A 
ATOM     22  C   UNL     1       2.248   6.895  19.805  0.00  0.00    +0.000 A 
ATOM     23  N   UNL     1       2.339   7.613  18.625  0.00  0.00    +0.000 N 
ATOM     24  C   UNL     1       1.832   8.872  18.434  0.00  0.00    +0.000 A 
ATOM     25  O   UNL     1       1.986   9.455  17.364  0.00  0.00    +0.000 OA
ATOM     26  H   UNL     1       2.825   7.207  17.828  0.00  0.00    +0.000 HD
BRANCH  22  27
ATOM     27  C   UNL     1       2.869   5.516  19.848  0.00  0.00    +0.000 C 
ATOM     28  F   UNL     1       4.227   5.584  19.790  0.00  0.00    +0.000 F 
ATOM     29  F   UNL     1       2.554   4.851  20.986  0.00  0.00    +0.000 F 
ATOM     30  F   UNL     1       2.470   4.746  18.805  0.00  0.00    +0.000 F 
ENDBRANCH  22  27
ENDBRANCH  16  19
ENDBRANCH   1  17
BRANCH  12  31
ATOM     31  C   UNL     1      -3.425  10.973  15.073  0.00  0.00    +0.000 C 
ATOM     32  C   UNL     1      -2.599   9.744  14.774  0.00  0.00    +0.000 C 
ATOM     33  C   UNL     1      -4.075   9.722  14.524  0.00  0.00    +0.000 C 
ENDBRANCH  12  31
TORSDOF 4
ENDMDL
MODEL 6
REMARK VINA RESULT:      -8.8      4.462      9.219
REMARK  Name = 
REMARK  4 active torsions:
REMARK  status: ('A' for Active; 'I' for Inactive)
REMARK    1  A    between atoms: C_2  and  C_21
REMARK    2  A    between atoms: N_3  and  C_4
REMARK    3  A    between atoms: C_15  and  C_16
REMARK    4  A    between atoms: C_24  and  C_25
REMARK                            x       y       z     vdW  Elec       q    Type
REMARK                         _______ _______ _______ _____ _____    ______ ____
ROOT
ATOM      1  C   UNL     1      -0.628  11.378  18.653  0.00  0.00    +0.000 C 
ATOM      2  C   UNL     1      -0.709  12.126  19.963  0.00  0.00    +0.000 A 
ATOM      3  C   UNL     1       0.444  12.365  20.733  0.00  0.00    +0.000 A 
ATOM      4  C   UNL     1       0.373  13.103  21.915  0.00  0.00    +0.000 A 
ATOM      5  C   UNL     1      -0.847  13.622  22.339  0.00  0.00    +0.000 A 
ATOM      6  C   UNL     1      -1.996  13.399  21.581  0.00  0.00    +0.000 A 
ATOM      7  C   UNL     1      -1.926  12.652  20.401  0.00  0.00    +0.000 A 
ATOM      8  O   UNL     1      -3.111  12.494  19.725  0.00  0.00    +0.000 OA
ATOM      9  C   UNL     1      -3.121  11.741  18.578  0.00  0.00    +0.000 A 
ATOM     10  C   UNL     1      -4.364  11.580  17.965  0.00  0.00    +0.000 A 
ATOM     11  C   UNL     1      -4.477  10.839  16.785  0.00  0.00    +0.000 A 
ATOM     12  C   UNL     1      -3.355  10.254  16.185  0.00  0.00    +0.000 A 
ATOM     13  C   UNL     1      -2.115  10.430  16.826  0.00  0.00    +0.000 A 
ATOM     14  C   UNL     1      -1.983  11.163  18.021  0.00  0.00    +0.000 A 
ENDROOT
BRANCH   1  17
ATOM     15  O   UNL     1       2.058  10.765  17.954  0.00  0.00    +0.000 OA
ATOM     16  C   UNL     1       1.359   9.899  18.472  0.00  0.00    +0.000 C 
ATOM     17  N   UNL     1       0.057  10.107  18.835  0.00  0.00    +0.000 N 
ATOM     18  H   UNL     1      -0.478   9.348  19.257  0.00  0.00    +0.000 HD
BRANCH  16  19
ATOM     19  C   UNL     1       1.905   8.537  18.765  0.00  0.00    +0.000 A 
ATOM     20  C   UNL     1       2.555   7.870  17.791  0.00  0.00    +0.000 A 
ATOM     21  C   UNL     1       3.154   6.571  18.024  0.00  0.00    +0.000 A 
ATOM     22  C   UNL     1       3.092   6.000  19.238  0.00  0.00    +0.000 A 
ATOM     23  N   UNL     1       2.416   6.668  20.245  0.00  0.00    +0.000 N 
ATOM     24  C   UNL     1       1.794   7.880  20.098  0.00  0.00    +0.000 A 
ATOM     25  O   UNL     1       1.185   8.390  21.036  0.00  0.00    +0.000 OA
ATOM     26  H   UNL     1       2.348   6.245  21.168  0.00  0.00    +0.000 HD
BRANCH  22  27
ATOM     27  C   UNL     1       3.719   4.664  19.568  0.00  0.00    +0.000 C 
ATOM     28  F   UNL     1       3.143   4.106  20.667  0.00  0.00    +0.000 F 
ATOM     29  F   UNL     1       3.582   3.773  18.555  0.00  0.00    +0.000 F 
ATOM     30  F   UNL     1       5.044   4.775  19.833  0.00  0.00    +0.000 F 
ENDBRANCH  22  27
ENDBRANCH  16  19
ENDBRANCH   1  17
BRANCH  12  31
ATOM     31  C   UNL     1      -3.468   9.437  14.921  0.00  0.00    +0.000 C 
ATOM     32  C   UNL     1      -4.277   9.933  13.745  0.00  0.00    +0.000 C 
ATOM     33  C   UNL     1      -2.781   9.918  13.662  0.00  0.00    +0.000 C 
ENDBRANCH  12  31
TORSDOF 4
ENDMDL
MODEL 7
REMARK VINA RESULT:      -8.6      1.058      1.242
REMARK  Name = 
REMARK  4 active torsions:
REMARK  status: ('A' for Active; 'I' for Inactive)
REMARK    1  A    between atoms: C_2  and  C_21
REMARK    2  A    between atoms: N_3  and  C_4
REMARK    3  A    between atoms: C_15  and  C_16
REMARK    4  A    between atoms: C_24  and  C_25
REMARK                            x       y       z     vdW  Elec       q    Type
REMARK                         _______ _______ _______ _____ _____    ______ ____
ROOT
ATOM      1  C   UNL     1       3.616   5.779  17.937  0.00  0.00    +0.000 C 
ATOM      2  C   UNL     1       3.027   4.485  18.449  0.00  0.00    +0.000 A 
ATOM      3  C   UNL     1       1.637   4.264  18.431  0.00  0.00    +0.000 A 
ATOM      4  C   UNL     1       1.102   3.047  18.853  0.00  0.00    +0.000 A 
ATOM      5  C   UNL     1       1.946   2.029  19.289  0.00  0.00    +0.000 A 
ATOM      6  C   UNL     1       3.326   2.232  19.304  0.00  0.00    +0.000 A 
ATOM      7  C   UNL     1       3.861   3.455  18.889  0.00  0.00    +0.000 A 
ATOM      8  O   UNL     1       5.230   3.552  18.936  0.00  0.00    +0.000 OA
ATOM      9  C   UNL     1       5.821   4.738  18.577  0.00  0.00    +0.000 A 
ATOM     10  C   UNL     1       7.211   4.787  18.692  0.00  0.00    +0.000 A 
ATOM     11  C   UNL     1       7.906   5.947  18.340  0.00  0.00    +0.000 A 
ATOM     12  C   UNL     1       7.235   7.077  17.855  0.00  0.00    +0.000 A 
ATOM     13  C   UNL     1       5.834   7.000  17.752  0.00  0.00    +0.000 A 
ATOM     14  C   UNL     1       5.115   5.844  18.112  0.00  0.00    +0.000 A 
ENDROOT
BRANCH   1  17
ATOM     15  O   UNL     1       2.740   8.179  16.692  0.00  0.00    +0.000 OA
ATOM     16  C   UNL     1       2.581   8.036  17.901  0.00  0.00    +0.000 C 
ATOM     17  N   UNL     1       2.977   6.917  18.580  0.00  0.00    +0.000 N 
ATOM     18  H   UNL     1       2.825   6.856  19.586  0.00  0.00    +0.000 HD
BRANCH  16  19
ATOM     19  C   UNL     1       1.913   9.092  18.723  0.00  0.00    +0.000 A 
ATOM     20  C   UNL     1       1.255   8.731  19.842  0.00  0.00    +0.000 A 
ATOM     21  C   UNL     1       0.632   9.709  20.712  0.00  0.00    +0.000 A 
ATOM     22  C   UNL     1       0.712  11.021  20.429  0.00  0.00    +0.000 A 
ATOM     23  N   UNL     1       1.373  11.405  19.275  0.00  0.00    +0.000 N 
ATOM     24  C   UNL     1       1.958  10.543  18.384  0.00  0.00    +0.000 A 
ATOM     25  O   UNL     1       2.496  10.966  17.364  0.00  0.00    +0.000 OA
ATOM     26  H   UNL     1       1.432  12.393  19.039  0.00  0.00    +0.000 HD
BRANCH  22  27
ATOM     27  C   UNL     1       0.117  12.103  21.302  0.00  0.00    +0.000 C 
ATOM     28  F   UNL     1      -1.022  12.607  20.756  0.00  0.00    +0.000 F 
ATOM     29  F   UNL     1      -0.206  11.642  22.536  0.00  0.00    +0.000 F 
ATOM     30  F   UNL     1       0.968  13.145  21.470  0.00  0.00    +0.000 F 
ENDBRANCH  22  27
ENDBRANCH  16  19
ENDBRANCH   1  17
BRANCH  12  31
ATOM     31  C   UNL     1       7.975   8.341  17.489  0.00  0.00    +0.000 C 
ATOM     32  C   UNL     1       7.436   9.697  17.879  0.00  0.00    +0.000 C 
ATOM     33  C   UNL     1       8.645   9.151  18.576  0.00  0.00    +0.000 C 
ENDBRANCH  12  31
TORSDOF 4
ENDMDL
MODEL 8
REMARK VINA RESULT:      -8.5      4.378      9.701
REMARK  Name = 
REMARK  4 active torsions:
REMARK  status: ('A' for Active; 'I' for Inactive)
REMARK    1  A    between atoms: C_2  and  C_21
REMARK    2  A    between atoms: N_3  and  C_4
REMARK    3  A    between atoms: C_15  and  C_16
REMARK    4  A    between atoms: C_24  and  C_25
REMARK                            x       y       z     vdW  Elec       q    Type
REMARK                         _______ _______ _______ _____ _____    ______ ____
ROOT
ATOM      1  C   UNL     1       0.752  13.092  19.873  0.00  0.00    +0.000 C 
ATOM      2  C   UNL     1       1.928  13.992  19.572  0.00  0.00    +0.000 A 
ATOM      3  C   UNL     1       2.755  13.756  18.458  0.00  0.00    +0.000 A 
ATOM      4  C   UNL     1       3.806  14.621  18.153  0.00  0.00    +0.000 A 
ATOM      5  C   UNL     1       4.040  15.740  18.948  0.00  0.00    +0.000 A 
ATOM      6  C   UNL     1       3.222  15.990  20.050  0.00  0.00    +0.000 A 
ATOM      7  C   UNL     1       2.174  15.118  20.360  0.00  0.00    +0.000 A 
ATOM      8  O   UNL     1       1.425  15.456  21.460  0.00  0.00    +0.000 OA
ATOM      9  C   UNL     1       0.403  14.624  21.843  0.00  0.00    +0.000 A 
ATOM     10  C   UNL     1      -0.289  14.999  22.996  0.00  0.00    +0.000 A 
ATOM     11  C   UNL     1      -1.355  14.222  23.462  0.00  0.00    +0.000 A 
ATOM     12  C   UNL     1      -1.760  13.066  22.784  0.00  0.00    +0.000 A 
ATOM     13  C   UNL     1      -1.043  12.711  21.627  0.00  0.00    +0.000 A 
ATOM     14  C   UNL     1       0.040  13.473  21.149  0.00  0.00    +0.000 A 
ENDROOT
BRANCH   1  17
ATOM     15  O   UNL     1      -0.277  10.932  18.338  0.00  0.00    +0.000 OA
ATOM     16  C   UNL     1       0.628  10.722  19.141  0.00  0.00    +0.000 C 
ATOM     17  N   UNL     1       1.177  11.701  19.922  0.00  0.00    +0.000 N 
ATOM     18  H   UNL     1       1.923  11.467  20.576  0.00  0.00    +0.000 HD
BRANCH  16  19
ATOM     19  C   UNL     1       1.214   9.355  19.305  0.00  0.00    +0.000 A 
ATOM     20  C   UNL     1       1.792   8.759  18.245  0.00  0.00    +0.000 A 
ATOM     21  C   UNL     1       2.425   7.459  18.350  0.00  0.00    +0.000 A 
ATOM     22  C   UNL     1       2.468   6.816  19.529  0.00  0.00    +0.000 A 
ATOM     23  N   UNL     1       1.866   7.411  20.624  0.00  0.00    +0.000 N 
ATOM     24  C   UNL     1       1.219   8.618  20.601  0.00  0.00    +0.000 A 
ATOM     25  O   UNL     1       0.680   9.060  21.613  0.00  0.00    +0.000 OA
ATOM     26  H   UNL     1       1.879   6.932  21.523  0.00  0.00    +0.000 HD
BRANCH  22  27
ATOM     27  C   UNL     1       3.138   5.474  19.726  0.00  0.00    +0.000 C 
ATOM     28  F   UNL     1       2.727   4.883  20.880  0.00  0.00    +0.000 F 
ATOM     29  F   UNL     1       2.858   4.612  18.718  0.00  0.00    +0.000 F 
ATOM     30  F   UNL     1       4.487   5.585  19.800  0.00  0.00    +0.000 F 
ENDBRANCH  22  27
ENDBRANCH  16  19
ENDBRANCH   1  17
BRANCH  12  31
ATOM     31  C   UNL     1      -2.898  12.211  23.288  0.00  0.00    +0.000 C 
ATOM     32  C   UNL     1      -3.853  12.728  24.338  0.00  0.00    +0.000 C 
ATOM     33  C   UNL     1      -4.320  12.576  22.923  0.00  0.00    +0.000 C 
ENDBRANCH  12  31
TORSDOF 4
ENDMDL
MODEL 9
REMARK VINA RESULT:      -8.2      5.438     11.228
REMARK  Name = 
REMARK  4 active torsions:
REMARK  status: ('A' for Active; 'I' for Inactive)
REMARK    1  A    between atoms: C_2  and  C_21
REMARK    2  A    between atoms: N_3  and  C_4
REMARK    3  A    between atoms: C_15  and  C_16
REMARK    4  A    between atoms: C_24  and  C_25
REMARK                            x       y       z     vdW  Elec       q    Type
REMARK                         _______ _______ _______ _____ _____    ______ ____
ROOT
ATOM      1  C   UNL     1      -3.239  13.579  21.697  0.00  0.00    +0.000 C 
ATOM      2  C   UNL     1      -2.730  14.131  23.009  0.00  0.00    +0.000 A 
ATOM      3  C   UNL     1      -1.412  14.607  23.132  0.00  0.00    +0.000 A 
ATOM      4  C   UNL     1      -0.964  15.165  24.331  0.00  0.00    +0.000 A 
ATOM      5  C   UNL     1      -1.828  15.266  25.417  0.00  0.00    +0.000 A 
ATOM      6  C   UNL     1      -3.140  14.805  25.305  0.00  0.00    +0.000 A 
ATOM      7  C   UNL     1      -3.586  14.238  24.107  0.00  0.00    +0.000 A 
ATOM      8  O   UNL     1      -4.894  13.821  24.098  0.00  0.00    +0.000 OA
ATOM      9  C   UNL     1      -5.387  13.222  22.966  0.00  0.00    +0.000 A 
ATOM     10  C   UNL     1      -6.709  12.778  23.037  0.00  0.00    +0.000 A 
ATOM     11  C   UNL     1      -7.306  12.165  21.931  0.00  0.00    +0.000 A 
ATOM     12  C   UNL     1      -6.605  11.991  20.731  0.00  0.00    +0.000 A 
ATOM     13  C   UNL     1      -5.275  12.445  20.689  0.00  0.00    +0.000 A 
ATOM     14  C   UNL     1      -4.652  13.055  21.795  0.00  0.00    +0.000 A 
ENDROOT
BRANCH   1  17
ATOM     15  O   UNL     1      -1.389  13.803  19.551  0.00  0.00    +0.000 OA
ATOM     16  C   UNL     1      -1.478  12.740  20.160  0.00  0.00    +0.000 C 
ATOM     17  N   UNL     1      -2.345  12.545  21.200  0.00  0.00    +0.000 N 
ATOM     18  H   UNL     1      -2.380  11.639  21.665  0.00  0.00    +0.000 HD
BRANCH  16  19
ATOM     19  C   UNL     1      -0.613  11.572  19.807  0.00  0.00    +0.000 A 
ATOM     20  C   UNL     1      -0.658  11.078  18.554  0.00  0.00    +0.000 A 
ATOM     21  C   UNL     1       0.193   9.983  18.133  0.00  0.00    +0.000 A 
ATOM     22  C   UNL     1       1.074   9.437  18.988  0.00  0.00    +0.000 A 
ATOM     23  N   UNL     1       1.121   9.925  20.283  0.00  0.00    +0.000 N 
ATOM     24  C   UNL     1       0.329  10.932  20.769  0.00  0.00    +0.000 A 
ATOM     25  O   UNL     1       0.411  11.283  21.944  0.00  0.00    +0.000 OA
ATOM     26  H   UNL     1       1.774   9.515  20.948  0.00  0.00    +0.000 HD
BRANCH  22  27
ATOM     27  C   UNL     1       2.017   8.315  18.616  0.00  0.00    +0.000 C 
ATOM     28  F   UNL     1       2.383   7.594  19.709  0.00  0.00    +0.000 F 
ATOM     29  F   UNL     1       1.454   7.447  17.740  0.00  0.00    +0.000 F 
ATOM     30  F   UNL     1       3.159   8.778  18.050  0.00  0.00    +0.000 F 
ENDBRANCH  22  27
ENDBRANCH  16  19
ENDBRANCH   1  17
BRANCH  12  31
ATOM     31  C   UNL     1      -7.235  11.314  19.538  0.00  0.00    +0.000 C 
ATOM     32  C   UNL     1      -6.407  10.937  18.332  0.00  0.00    +0.000 C 
ATOM     33  C   UNL     1      -6.910   9.865  19.249  0.00  0.00    +0.000 C 
ENDBRANCH  12  31
TORSDOF 4
ENDMDL
