MODEL 1
REMARK VINA RESULT:      -7.8      0.000      0.000
REMARK  Name = 
REMARK  4 active torsions:
REMARK  status: ('A' for Active; 'I' for Inactive)
REMARK    1  A    between atoms: C_5  and  C_6
REMARK    2  A    between atoms: C_6  and  C_7
REMARK    3  A    between atoms: C_10  and  C_11
REMARK    4  A    between atoms: C_11  and  C_12
REMARK                            x       y       z     vdW  Elec       q    Type
REMARK                         _______ _______ _______ _____ _____    ______ ____
ROOT
ATOM      1  C   UNL     1       7.504   7.100  17.652  0.00  0.00    +0.000 A 
ATOM      2  N   UNL     1       8.345   7.099  18.698  0.00  0.00    +0.000 NA
ATOM      3  O   UNL     1       8.667   8.449  18.851  0.00  0.00    +0.000 OA
ATOM      4  C   UNL     1       8.000   9.123  17.868  0.00  0.00    +0.000 A 
ATOM      5  N   UNL     1       7.275   8.338  17.099  0.00  0.00    +0.000 NA
ENDROOT
BRANCH   1   6
ATOM      6  C   UNL     1       6.992   5.851  17.039  0.00  0.00    +0.000 C 
BRANCH   6  11
ATOM      7 CL   UNL     1       1.749   4.663  19.816  0.00  0.00    +0.000 Cl
ATOM      8  C   UNL     1       3.258   4.942  19.021  0.00  0.00    +0.000 A 
ATOM      9  C   UNL     1       3.373   6.087  18.228  0.00  0.00    +0.000 A 
ATOM     10  C   UNL     1       4.574   6.373  17.572  0.00  0.00    +0.000 A 
ATOM     11  C   UNL     1       5.680   5.519  17.705  0.00  0.00    +0.000 A 
ATOM     12  C   UNL     1       5.549   4.363  18.494  0.00  0.00    +0.000 A 
ATOM     13  C   UNL     1       4.348   4.078  19.152  0.00  0.00    +0.000 A 
ATOM     14 CL   UNL     1       4.285   2.648  20.123  0.00  0.00    +0.000 Cl
ENDBRANCH   6  11
ENDBRANCH   1   6
BRANCH   4  15
ATOM     15  C   UNL     1       8.285  10.574  17.743  0.00  0.00    +0.000 C 
BRANCH  15  16
ATOM     16  C   UNL     1       9.471  11.041  18.551  0.00  0.00    +0.000 A 
ATOM     17  C   UNL     1       9.350  11.276  19.928  0.00  0.00    +0.000 A 
ATOM     18  C   UNL     1      10.458  11.680  20.677  0.00  0.00    +0.000 A 
ATOM     19  C   UNL     1      11.693  11.862  20.055  0.00  0.00    +0.000 A 
ATOM     20  C   UNL     1      11.820  11.648  18.685  0.00  0.00    +0.000 A 
ATOM     21  C   UNL     1      10.714  11.244  17.934  0.00  0.00    +0.000 A 
ENDBRANCH  15  16
ENDBRANCH   4  15
TORSDOF 4
ENDMDL
MODEL 2
REMARK VINA RESULT:      -7.7      0.731      1.931
REMARK  Name = 
REMARK  4 active torsions:
REMARK  status: ('A' for Active; 'I' for Inactive)
REMARK    1  A    between atoms: C_5  and  C_6
REMARK    2  A    between atoms: C_6  and  C_7
REMARK    3  A    between atoms: C_10  and  C_11
REMARK    4  A    between atoms: C_11  and  C_12
REMARK                            x       y       z     vdW  Elec       q    Type
REMARK                         _______ _______ _______ _____ _____    ______ ____
ROOT
ATOM      1  C   UNL     1       7.587   7.185  17.711  0.00  0.00    +0.000 A 
ATOM      2  N   UNL     1       8.415   7.184  18.767  0.00  0.00    +0.000 NA
ATOM      3  O   UNL     1       8.742   8.532  18.919  0.00  0.00    +0.000 OA
ATOM      4  C   UNL     1       8.091   9.206  17.925  0.00  0.00    +0.000 A 
ATOM      5  N   UNL     1       7.371   8.423  17.150  0.00  0.00    +0.000 NA
ENDROOT
BRANCH   1   6
ATOM      6  C   UNL     1       7.076   5.936  17.096  0.00  0.00    +0.000 C 
BRANCH   6  11
ATOM      7 CL   UNL     1       1.729   4.532  19.557  0.00  0.00    +0.000 Cl
ATOM      8  C   UNL     1       3.244   4.992  18.863  0.00  0.00    +0.000 A 
ATOM      9  C   UNL     1       4.309   4.093  18.971  0.00  0.00    +0.000 A 
ATOM     10  C   UNL     1       5.553   4.405  18.416  0.00  0.00    +0.000 A 
ATOM     11  C   UNL     1       5.749   5.619  17.740  0.00  0.00    +0.000 A 
ATOM     12  C   UNL     1       4.675   6.522  17.649  0.00  0.00    +0.000 A 
ATOM     13  C   UNL     1       3.428   6.209  18.203  0.00  0.00    +0.000 A 
ATOM     14 CL   UNL     1       2.157   7.367  18.021  0.00  0.00    +0.000 Cl
ENDBRANCH   6  11
ENDBRANCH   1   6
BRANCH   4  15
ATOM     15  C   UNL     1       8.385  10.655  17.798  0.00  0.00    +0.000 C 
BRANCH  15  16
ATOM     16  C   UNL     1       9.598  11.108  18.575  0.00  0.00    +0.000 A 
ATOM     17  C   UNL     1      10.834  11.277  17.937  0.00  0.00    +0.000 A 
ATOM     18  C   UNL     1      11.946  11.724  18.653  0.00  0.00    +0.000 A 
ATOM     19  C   UNL     1      11.835  11.999  20.016  0.00  0.00    +0.000 A 
ATOM     20  C   UNL     1      10.615  11.820  20.664  0.00  0.00    +0.000 A 
ATOM     21  C   UNL     1       9.502  11.372  19.950  0.00  0.00    +0.000 A 
ENDBRANCH  15  16
ENDBRANCH   4  15
TORSDOF 4
ENDMDL
MODEL 3
REMARK VINA RESULT:      -7.7      0.189      1.070
REMARK  Name = 
REMARK  4 active torsions:
REMARK  status: ('A' for Active; 'I' for Inactive)
REMARK    1  A    between atoms: C_5  and  C_6
REMARK    2  A    between atoms: C_6  and  C_7
REMARK    3  A    between atoms: C_10  and  C_11
REMARK    4  A    between atoms: C_11  and  C_12
REMARK                            x       y       z     vdW  Elec       q    Type
REMARK                         _______ _______ _______ _____ _____    ______ ____
ROOT
ATOM      1  C   UNL     1       7.550   7.206  17.707  0.00  0.00    +0.000 A 
ATOM      2  N   UNL     1       8.351   7.213  18.784  0.00  0.00    +0.000 NA
ATOM      3  O   UNL     1       8.684   8.562  18.926  0.00  0.00    +0.000 OA
ATOM      4  C   UNL     1       8.064   9.226  17.906  0.00  0.00    +0.000 A 
ATOM      5  N   UNL     1       7.358   8.437  17.124  0.00  0.00    +0.000 NA
ENDROOT
BRANCH   1   6
ATOM      6  C   UNL     1       7.046   5.952  17.097  0.00  0.00    +0.000 C 
BRANCH   6  11
ATOM      7 CL   UNL     1       1.770   4.778  19.818  0.00  0.00    +0.000 Cl
ATOM      8  C   UNL     1       3.283   5.054  19.029  0.00  0.00    +0.000 A 
ATOM      9  C   UNL     1       3.480   6.294  18.414  0.00  0.00    +0.000 A 
ATOM     10  C   UNL     1       4.689   6.579  17.774  0.00  0.00    +0.000 A 
ATOM     11  C   UNL     1       5.722   5.629  17.744  0.00  0.00    +0.000 A 
ATOM     12  C   UNL     1       5.509   4.381  18.353  0.00  0.00    +0.000 A 
ATOM     13  C   UNL     1       4.299   4.096  18.997  0.00  0.00    +0.000 A 
ATOM     14 CL   UNL     1       4.134   2.545  19.743  0.00  0.00    +0.000 Cl
ENDBRANCH   6  11
ENDBRANCH   1   6
BRANCH   4  15
ATOM     15  C   UNL     1       8.372  10.671  17.767  0.00  0.00    +0.000 C 
BRANCH  15  16
ATOM     16  C   UNL     1       9.585  11.121  18.545  0.00  0.00    +0.000 A 
ATOM     17  C   UNL     1      10.811  11.330  17.900  0.00  0.00    +0.000 A 
ATOM     18  C   UNL     1      11.923  11.774  18.618  0.00  0.00    +0.000 A 
ATOM     19  C   UNL     1      11.821  12.005  19.990  0.00  0.00    +0.000 A 
ATOM     20  C   UNL     1      10.612  11.785  20.645  0.00  0.00    +0.000 A 
ATOM     21  C   UNL     1       9.499  11.341  19.928  0.00  0.00    +0.000 A 
ENDBRANCH  15  16
ENDBRANCH   4  15
TORSDOF 4
ENDMDL
MODEL 4
REMARK VINA RESULT:      -7.7      0.720      1.609
REMARK  Name = 
REMARK  4 active torsions:
REMARK  status: ('A' for Active; 'I' for Inactive)
REMARK    1  A    between atoms: C_5  and  C_6
REMARK    2  A    between atoms: C_6  and  C_7
REMARK    3  A    between atoms: C_10  and  C_11
REMARK    4  A    between atoms: C_11  and  C_12
REMARK                            x       y       z     vdW  Elec       q    Type
REMARK                         _______ _______ _______ _____ _____    ______ ____
ROOT
ATOM      1  C   UNL     1       7.567   7.072  17.723  0.00  0.00    +0.000 A 
ATOM      2  N   UNL     1       8.402   7.105  18.773  0.00  0.00    +0.000 NA
ATOM      3  O   UNL     1       8.724   8.459  18.884  0.00  0.00    +0.000 OA
ATOM      4  C   UNL     1       8.063   9.101  17.876  0.00  0.00    +0.000 A 
ATOM      5  N   UNL     1       7.342   8.292  17.129  0.00  0.00    +0.000 NA
ENDROOT
BRANCH   1   6
ATOM      6  C   UNL     1       7.058   5.804  17.148  0.00  0.00    +0.000 C 
BRANCH   6  11
ATOM      7 CL   UNL     1       1.670   4.519  19.583  0.00  0.00    +0.000 Cl
ATOM      8  C   UNL     1       3.198   4.945  18.896  0.00  0.00    +0.000 A 
ATOM      9  C   UNL     1       4.242   4.023  19.010  0.00  0.00    +0.000 A 
ATOM     10  C   UNL     1       5.495   4.307  18.461  0.00  0.00    +0.000 A 
ATOM     11  C   UNL     1       5.722   5.517  17.785  0.00  0.00    +0.000 A 
ATOM     12  C   UNL     1       4.669   6.442  17.688  0.00  0.00    +0.000 A 
ATOM     13  C   UNL     1       3.413   6.157  18.236  0.00  0.00    +0.000 A 
ATOM     14 CL   UNL     1       2.168   7.343  18.047  0.00  0.00    +0.000 Cl
ENDBRANCH   6  11
ENDBRANCH   1   6
BRANCH   4  15
ATOM     15  C   UNL     1       8.349  10.547  17.705  0.00  0.00    +0.000 C 
BRANCH  15  16
ATOM     16  C   UNL     1       9.520  11.044  18.519  0.00  0.00    +0.000 A 
ATOM     17  C   UNL     1       9.391  11.260  19.899  0.00  0.00    +0.000 A 
ATOM     18  C   UNL     1      10.484  11.692  20.653  0.00  0.00    +0.000 A 
ATOM     19  C   UNL     1      11.713  11.920  20.034  0.00  0.00    +0.000 A 
ATOM     20  C   UNL     1      11.848  11.725  18.662  0.00  0.00    +0.000 A 
ATOM     21  C   UNL     1      10.756  11.293  17.906  0.00  0.00    +0.000 A 
ENDBRANCH  15  16
ENDBRANCH   4  15
TORSDOF 4
ENDMDL
MODEL 5
REMARK VINA RESULT:      -7.7      5.123      7.500
REMARK  Name = 
REMARK  4 active torsions:
REMARK  status: ('A' for Active; 'I' for Inactive)
REMARK    1  A    between atoms: C_5  and  C_6
REMARK    2  A    between atoms: C_6  and  C_7
REMARK    3  A    between atoms: C_10  and  C_11
REMARK    4  A    between atoms: C_11  and  C_12
REMARK                            x       y       z     vdW  Elec       q    Type
REMARK                         _______ _______ _______ _____ _____    ______ ____
ROOT
ATOM      1  C   UNL     1       6.366   4.944  16.450  0.00  0.00    +0.000 A 
ATOM      2  N   UNL     1       5.789   6.076  16.017  0.00  0.00    +0.000 NA
ATOM      3  O   UNL     1       6.035   6.056  14.643  0.00  0.00    +0.000 OA
ATOM      4  C   UNL     1       6.754   4.922  14.391  0.00  0.00    +0.000 A 
ATOM      5  N   UNL     1       6.990   4.206  15.470  0.00  0.00    +0.000 NA
ENDROOT
BRANCH   1   6
ATOM      6  C   UNL     1       6.467   4.600  17.888  0.00  0.00    +0.000 C 
BRANCH   6  11
ATOM      7 CL   UNL     1       0.910   4.104  20.229  0.00  0.00    +0.000 Cl
ATOM      8  C   UNL     1       2.477   4.219  19.509  0.00  0.00    +0.000 A 
ATOM      9  C   UNL     1       3.308   5.264  19.923  0.00  0.00    +0.000 A 
ATOM     10  C   UNL     1       4.591   5.399  19.387  0.00  0.00    +0.000 A 
ATOM     11  C   UNL     1       5.065   4.487  18.431  0.00  0.00    +0.000 A 
ATOM     12  C   UNL     1       4.216   3.447  18.012  0.00  0.00    +0.000 A 
ATOM     13  C   UNL     1       2.932   3.311  18.550  0.00  0.00    +0.000 A 
ATOM     14 CL   UNL     1       1.966   1.988  17.996  0.00  0.00    +0.000 Cl
ENDBRANCH   6  11
ENDBRANCH   1   6
BRANCH   4  15
ATOM     15  C   UNL     1       7.251   4.741  13.005  0.00  0.00    +0.000 C 
BRANCH  15  16
ATOM     16  C   UNL     1       6.615   3.588  12.268  0.00  0.00    +0.000 A 
ATOM     17  C   UNL     1       5.223   3.515  12.119  0.00  0.00    +0.000 A 
ATOM     18  C   UNL     1       4.640   2.462  11.411  0.00  0.00    +0.000 A 
ATOM     19  C   UNL     1       5.443   1.467  10.853  0.00  0.00    +0.000 A 
ATOM     20  C   UNL     1       6.826   1.521  11.008  0.00  0.00    +0.000 A 
ATOM     21  C   UNL     1       7.410   2.573  11.716  0.00  0.00    +0.000 A 
ENDBRANCH  15  16
ENDBRANCH   4  15
TORSDOF 4
ENDMDL
MODEL 6
REMARK VINA RESULT:      -7.6      6.665      9.331
REMARK  Name = 
REMARK  4 active torsions:
REMARK  status: ('A' for Active; 'I' for Inactive)
REMARK    1  A    between atoms: C_5  and  C_6
REMARK    2  A    between atoms: C_6  and  C_7
REMARK    3  A    between atoms: C_10  and  C_11
REMARK    4  A    between atoms: C_11  and  C_12
REMARK                            x       y       z     vdW  Elec       q    Type
REMARK                         _______ _______ _______ _____ _____    ______ ____
ROOT
ATOM      1  C   UNL     1       1.356   9.537  18.835  0.00  0.00    +0.000 A 
ATOM      2  N   UNL     1       1.912   9.841  17.653  0.00  0.00    +0.000 NA
ATOM      3  O   UNL     1       2.574   8.665  17.297  0.00  0.00    +0.000 OA
ATOM      4  C   UNL     1       2.365   7.777  18.314  0.00  0.00    +0.000 A 
ATOM      5  N   UNL     1       1.626   8.266  19.288  0.00  0.00    +0.000 NA
ENDROOT
BRANCH   1   6
ATOM      6  C   UNL     1       0.645  10.539  19.664  0.00  0.00    +0.000 C 
BRANCH   6  11
ATOM      7 CL   UNL     1      -4.765  11.583  17.163  0.00  0.00    +0.000 Cl
ATOM      8  C   UNL     1      -3.198  11.272  17.822  0.00  0.00    +0.000 A 
ATOM      9  C   UNL     1      -2.838  11.947  18.992  0.00  0.00    +0.000 A 
ATOM     10  C   UNL     1      -1.590  11.725  19.578  0.00  0.00    +0.000 A 
ATOM     11  C   UNL     1      -0.683  10.819  19.006  0.00  0.00    +0.000 A 
ATOM     12  C   UNL     1      -1.049  10.155  17.822  0.00  0.00    +0.000 A 
ATOM     13  C   UNL     1      -2.301  10.376  17.235  0.00  0.00    +0.000 A 
ATOM     14 CL   UNL     1      -2.677   9.497  15.795  0.00  0.00    +0.000 Cl
ENDBRANCH   6  11
ENDBRANCH   1   6
BRANCH   4  15
ATOM     15  C   UNL     1       3.084   6.482  18.227  0.00  0.00    +0.000 C 
BRANCH  15  16
ATOM     16  C   UNL     1       2.309   5.309  18.777  0.00  0.00    +0.000 A 
ATOM     17  C   UNL     1       1.748   4.355  17.916  0.00  0.00    +0.000 A 
ATOM     18  C   UNL     1       1.057   3.256  18.430  0.00  0.00    +0.000 A 
ATOM     19  C   UNL     1       0.913   3.104  19.809  0.00  0.00    +0.000 A 
ATOM     20  C   UNL     1       1.452   4.055  20.673  0.00  0.00    +0.000 A 
ATOM     21  C   UNL     1       2.143   5.154  20.161  0.00  0.00    +0.000 A 
ENDBRANCH  15  16
ENDBRANCH   4  15
TORSDOF 4
ENDMDL
MODEL 7
REMARK VINA RESULT:      -7.6      5.261      8.011
REMARK  Name = 
REMARK  4 active torsions:
REMARK  status: ('A' for Active; 'I' for Inactive)
REMARK    1  A    between atoms: C_5  and  C_6
REMARK    2  A    between atoms: C_6  and  C_7
REMARK    3  A    between atoms: C_10  and  C_11
REMARK    4  A    between atoms: C_11  and  C_12
REMARK                            x       y       z     vdW  Elec       q    Type
REMARK                         _______ _______ _______ _____ _____    ______ ____
ROOT
ATOM      1  C   UNL     1       5.642   6.113  17.906  0.00  0.00    +0.000 A 
ATOM      2  N   UNL     1       5.035   7.112  17.247  0.00  0.00    +0.000 NA
ATOM      3  O   UNL     1       3.831   7.266  17.936  0.00  0.00    +0.000 OA
ATOM      4  C   UNL     1       3.828   6.328  18.930  0.00  0.00    +0.000 A 
ATOM      5  N   UNL     1       4.916   5.589  18.951  0.00  0.00    +0.000 NA
ENDROOT
BRANCH   1   6
ATOM      6  C   UNL     1       6.916   5.512  17.445  0.00  0.00    +0.000 C 
BRANCH   6  11
ATOM      7 CL   UNL     1       6.078   3.151  11.937  0.00  0.00    +0.000 Cl
ATOM      8  C   UNL     1       6.333   3.878  13.484  0.00  0.00    +0.000 A 
ATOM      9  C   UNL     1       5.594   3.386  14.564  0.00  0.00    +0.000 A 
ATOM     10  C   UNL     1       5.768   3.925  15.841  0.00  0.00    +0.000 A 
ATOM     11  C   UNL     1       6.689   4.962  16.059  0.00  0.00    +0.000 A 
ATOM     12  C   UNL     1       7.417   5.459  14.964  0.00  0.00    +0.000 A 
ATOM     13  C   UNL     1       7.244   4.918  13.685  0.00  0.00    +0.000 A 
ATOM     14 CL   UNL     1       8.201   5.572  12.401  0.00  0.00    +0.000 Cl
ENDBRANCH   6  11
ENDBRANCH   1   6
BRANCH   4  15
ATOM     15  C   UNL     1       2.583   6.208  19.728  0.00  0.00    +0.000 C 
BRANCH  15  16
ATOM     16  C   UNL     1       1.999   4.816  19.753  0.00  0.00    +0.000 A 
ATOM     17  C   UNL     1       1.736   4.172  20.970  0.00  0.00    +0.000 A 
ATOM     18  C   UNL     1       1.169   2.896  20.988  0.00  0.00    +0.000 A 
ATOM     19  C   UNL     1       0.866   2.249  19.790  0.00  0.00    +0.000 A 
ATOM     20  C   UNL     1       1.137   2.873  18.575  0.00  0.00    +0.000 A 
ATOM     21  C   UNL     1       1.705   4.149  18.554  0.00  0.00    +0.000 A 
ENDBRANCH  15  16
ENDBRANCH   4  15
TORSDOF 4
ENDMDL
MODEL 8
REMARK VINA RESULT:      -7.6      6.666      9.288
REMARK  Name = 
REMARK  4 active torsions:
REMARK  status: ('A' for Active; 'I' for Inactive)
REMARK    1  A    between atoms: C_5  and  C_6
REMARK    2  A    between atoms: C_6  and  C_7
REMARK    3  A    between atoms: C_10  and  C_11
REMARK    4  A    between atoms: C_11  and  C_12
REMARK                            x       y       z     vdW  Elec       q    Type
REMARK                         _______ _______ _______ _____ _____    ______ ____
ROOT
ATOM      1  C   UNL     1       1.334   9.591  18.820  0.00  0.00    +0.000 A 
ATOM      2  N   UNL     1       1.865   9.899  17.626  0.00  0.00    +0.000 NA
ATOM      3  O   UNL     1       2.535   8.730  17.262  0.00  0.00    +0.000 OA
ATOM      4  C   UNL     1       2.356   7.842  18.285  0.00  0.00    +0.000 A 
ATOM      5  N   UNL     1       1.629   8.325  19.271  0.00  0.00    +0.000 NA
ENDROOT
BRANCH   1   6
ATOM      6  C   UNL     1       0.627  10.587  19.660  0.00  0.00    +0.000 C 
BRANCH   6  11
ATOM      7 CL   UNL     1      -4.802  11.631  17.201  0.00  0.00    +0.000 Cl
ATOM      8  C   UNL     1      -3.230  11.320  17.848  0.00  0.00    +0.000 A 
ATOM      9  C   UNL     1      -2.865  11.987  19.021  0.00  0.00    +0.000 A 
ATOM     10  C   UNL     1      -1.613  11.765  19.598  0.00  0.00    +0.000 A 
ATOM     11  C   UNL     1      -0.706  10.867  19.012  0.00  0.00    +0.000 A 
ATOM     12  C   UNL     1      -1.077  10.212  17.825  0.00  0.00    +0.000 A 
ATOM     13  C   UNL     1      -2.333  10.433  17.248  0.00  0.00    +0.000 A 
ATOM     14 CL   UNL     1      -2.716   9.564  15.803  0.00  0.00    +0.000 Cl
ENDBRANCH   6  11
ENDBRANCH   1   6
BRANCH   4  15
ATOM     15  C   UNL     1       3.089   6.556  18.187  0.00  0.00    +0.000 C 
BRANCH  15  16
ATOM     16  C   UNL     1       2.346   5.378  18.770  0.00  0.00    +0.000 A 
ATOM     17  C   UNL     1       2.179   5.253  20.156  0.00  0.00    +0.000 A 
ATOM     18  C   UNL     1       1.466   4.176  20.689  0.00  0.00    +0.000 A 
ATOM     19  C   UNL     1       0.922   3.211  19.842  0.00  0.00    +0.000 A 
ATOM     20  C   UNL     1       1.096   3.317  18.464  0.00  0.00    +0.000 A 
ATOM     21  C   UNL     1       1.809   4.392  17.929  0.00  0.00    +0.000 A 
ENDBRANCH  15  16
ENDBRANCH   4  15
TORSDOF 4
ENDMDL
MODEL 9
REMARK VINA RESULT:      -7.6      5.242      7.483
REMARK  Name = 
REMARK  4 active torsions:
REMARK  status: ('A' for Active; 'I' for Inactive)
REMARK    1  A    between atoms: C_5  and  C_6
REMARK    2  A    between atoms: C_6  and  C_7
REMARK    3  A    between atoms: C_10  and  C_11
REMARK    4  A    between atoms: C_11  and  C_12
REMARK                            x       y       z     vdW  Elec       q    Type
REMARK                         _______ _______ _______ _____ _____    ______ ____
ROOT
ATOM      1  C   UNL     1       5.979   4.901  16.872  0.00  0.00    +0.000 A 
ATOM      2  N   UNL     1       5.672   6.143  16.468  0.00  0.00    +0.000 NA
ATOM      3  O   UNL     1       6.047   6.145  15.123  0.00  0.00    +0.000 OA
ATOM      4  C   UNL     1       6.561   4.907  14.859  0.00  0.00    +0.000 A 
ATOM      5  N   UNL     1       6.547   4.105  15.903  0.00  0.00    +0.000 NA
ENDROOT
BRANCH   1   6
ATOM      6  C   UNL     1       5.868   4.471  18.286  0.00  0.00    +0.000 C 
BRANCH   6  11
ATOM      7 CL   UNL     1       0.327   2.134  18.956  0.00  0.00    +0.000 Cl
ATOM      8  C   UNL     1       1.925   2.777  18.818  0.00  0.00    +0.000 A 
ATOM      9  C   UNL     1       2.437   2.978  17.533  0.00  0.00    +0.000 A 
ATOM     10  C   UNL     1       3.718   3.508  17.360  0.00  0.00    +0.000 A 
ATOM     11  C   UNL     1       4.505   3.851  18.470  0.00  0.00    +0.000 A 
ATOM     12  C   UNL     1       3.986   3.633  19.758  0.00  0.00    +0.000 A 
ATOM     13  C   UNL     1       2.702   3.103  19.932  0.00  0.00    +0.000 A 
ATOM     14 CL   UNL     1       2.135   2.893  21.552  0.00  0.00    +0.000 Cl
ENDBRANCH   6  11
ENDBRANCH   1   6
BRANCH   4  15
ATOM     15  C   UNL     1       7.152   4.703  13.514  0.00  0.00    +0.000 C 
BRANCH  15  16
ATOM     16  C   UNL     1       6.354   3.781  12.624  0.00  0.00    +0.000 A 
ATOM     17  C   UNL     1       6.974   2.709  11.966  0.00  0.00    +0.000 A 
ATOM     18  C   UNL     1       6.227   1.841  11.167  0.00  0.00    +0.000 A 
ATOM     19  C   UNL     1       4.856   2.042  11.010  0.00  0.00    +0.000 A 
ATOM     20  C   UNL     1       4.233   3.114  11.645  0.00  0.00    +0.000 A 
ATOM     21  C   UNL     1       4.978   3.983  12.445  0.00  0.00    +0.000 A 
ENDBRANCH  15  16
ENDBRANCH   4  15
TORSDOF 4
ENDMDL
