MODEL 1
REMARK VINA RESULT:      -7.3      0.000      0.000
REMARK  Name = 
REMARK  8 active torsions:
REMARK  status: ('A' for Active; 'I' for Inactive)
REMARK    1  A    between atoms: N_1  and  C_2
REMARK    2  A    between atoms: C_3  and  N_4
REMARK    3  A    between atoms: N_4  and  C_5
REMARK    4  A    between atoms: C_5  and  C_6
REMARK    5  A    between atoms: C_6  and  C_7
REMARK    6  A    between atoms: C_13  and  C_15
REMARK    7  A    between atoms: N_23  and  C_24
REMARK    8  A    between atoms: C_24  and  C_25
REMARK                            x       y       z     vdW  Elec       q    Type
REMARK                         _______ _______ _______ _____ _____    ______ ____
ROOT
ATOM      1  C   UNL     1       3.811   6.384  18.125  0.00  0.00    +0.000 A 
ATOM      2  C   UNL     1       4.475   5.203  18.350  0.00  0.00    +0.000 A 
ATOM      3  C   UNL     1       4.014   4.422  19.551  0.00  0.00    +0.000 A 
ATOM      4  O   UNL     1       4.338   3.267  19.806  0.00  0.00    +0.000 OA
ATOM      5  N   UNL     1       3.206   5.066  20.426  0.00  0.00    +0.000 N 
ATOM      6  C   UNL     1       2.272   5.929  19.970  0.00  0.00    +0.000 A 
ATOM      7  O   UNL     1       1.177   5.978  20.531  0.00  0.00    +0.000 OA
ATOM      8  N   UNL     1       2.632   6.662  18.848  0.00  0.00    +0.000 N 
ATOM      9  H   UNL     1       2.871   4.487  21.179  0.00  0.00    +0.000 HD
ENDROOT
BRANCH   1  10
ATOM     10  N   UNL     1       4.233   7.283  17.161  0.00  0.00    +0.000 N 
ATOM     11  H   UNL     1       3.530   7.966  16.893  0.00  0.00    +0.000 HD
ATOM     12  H   UNL     1       5.152   7.677  17.328  0.00  0.00    +0.000 HD
ENDBRANCH   1  10
BRANCH   2  13
ATOM     13  N   UNL     1       5.571   4.713  17.588  0.00  0.00    +0.000 N 
ATOM     14  C   UNL     1       6.938   5.037  17.830  0.00  0.00    +0.000 C 
ATOM     15  O   UNL     1       7.859   4.424  17.307  0.00  0.00    +0.000 OA
BRANCH  14  16
ATOM     16  C   UNL     1       7.280   6.181  18.731  0.00  0.00    +0.000 C 
ATOM     17  C   UNL     1       8.628   6.856  18.863  0.00  0.00    +0.000 C 
ATOM     18  C   UNL     1       7.591   7.477  17.992  0.00  0.00    +0.000 C 
ENDBRANCH  14  16
BRANCH  13  19
ATOM     19  C   UNL     1       5.401   3.693  16.541  0.00  0.00    +0.000 C 
BRANCH  19  20
ATOM     20  C   UNL     1       4.850   4.131  15.178  0.00  0.00    +0.000 C 
BRANCH  20  21
ATOM     21  C   UNL     1       5.847   4.190  14.041  0.00  0.00    +0.000 C 
ATOM     22  C   UNL     1       6.922   4.993  14.156  0.00  0.00    +0.000 C 
ATOM     23  C   UNL     1       7.927   5.215  13.074  0.00  0.00    +0.000 C 
ATOM     24  C   UNL     1       7.444   4.738  11.709  0.00  0.00    +0.000 C 
ATOM     25  C   UNL     1       6.788   3.365  11.821  0.00  0.00    +0.000 C 
ATOM     26  C   UNL     1       5.585   3.399  12.775  0.00  0.00    +0.000 C 
ENDBRANCH  20  21
ENDBRANCH  19  20
ENDBRANCH  13  19
ENDBRANCH   2  13
BRANCH   8  27
ATOM     27  C   UNL     1       1.569   7.516  18.294  0.00  0.00    +0.000 C 
BRANCH  27  28
ATOM     28  C   UNL     1       1.544   8.962  18.759  0.00  0.00    +0.000 A 
ATOM     29  C   UNL     1       2.086   9.962  17.939  0.00  0.00    +0.000 A 
ATOM     30  C   UNL     1       1.897  11.316  18.243  0.00  0.00    +0.000 A 
ATOM     31  C   UNL     1       1.157  11.678  19.367  0.00  0.00    +0.000 A 
ATOM     32  C   UNL     1       0.646  10.698  20.209  0.00  0.00    +0.000 A 
ATOM     33  C   UNL     1       0.845   9.345  19.909  0.00  0.00    +0.000 A 
ENDBRANCH  27  28
ENDBRANCH   8  27
TORSDOF 8
ENDMDL
MODEL 2
REMARK VINA RESULT:      -7.0      9.376     12.424
REMARK  Name = 
REMARK  8 active torsions:
REMARK  status: ('A' for Active; 'I' for Inactive)
REMARK    1  A    between atoms: N_1  and  C_2
REMARK    2  A    between atoms: C_3  and  N_4
REMARK    3  A    between atoms: N_4  and  C_5
REMARK    4  A    between atoms: C_5  and  C_6
REMARK    5  A    between atoms: C_6  and  C_7
REMARK    6  A    between atoms: C_13  and  C_15
REMARK    7  A    between atoms: N_23  and  C_24
REMARK    8  A    between atoms: C_24  and  C_25
REMARK                            x       y       z     vdW  Elec       q    Type
REMARK                         _______ _______ _______ _____ _____    ______ ____
ROOT
ATOM      1  C   UNL     1      -4.489  14.099  21.428  0.00  0.00    +0.000 A 
ATOM      2  C   UNL     1      -4.091  13.847  22.718  0.00  0.00    +0.000 A 
ATOM      3  C   UNL     1      -4.820  12.727  23.411  0.00  0.00    +0.000 A 
ATOM      4  O   UNL     1      -4.485  12.223  24.477  0.00  0.00    +0.000 OA
ATOM      5  N   UNL     1      -5.949  12.273  22.817  0.00  0.00    +0.000 N 
ATOM      6  C   UNL     1      -6.014  12.189  21.470  0.00  0.00    +0.000 A 
ATOM      7  O   UNL     1      -6.610  11.241  20.957  0.00  0.00    +0.000 OA
ATOM      8  N   UNL     1      -5.340  13.183  20.775  0.00  0.00    +0.000 N 
ATOM      9  H   UNL     1      -6.368  11.483  23.281  0.00  0.00    +0.000 HD
ENDROOT
BRANCH   1  10
ATOM     10  N   UNL     1      -4.027  15.200  20.727  0.00  0.00    +0.000 N 
ATOM     11  H   UNL     1      -3.959  16.049  21.283  0.00  0.00    +0.000 HD
ATOM     12  H   UNL     1      -3.215  15.018  20.148  0.00  0.00    +0.000 HD
ENDBRANCH   1  10
BRANCH   2  13
ATOM     13  N   UNL     1      -3.113  14.584  23.441  0.00  0.00    +0.000 N 
ATOM     14  C   UNL     1      -3.402  15.641  24.352  0.00  0.00    +0.000 C 
ATOM     15  O   UNL     1      -2.563  16.092  25.120  0.00  0.00    +0.000 OA
BRANCH  14  16
ATOM     16  C   UNL     1      -4.767  16.252  24.368  0.00  0.00    +0.000 C 
ATOM     17  C   UNL     1      -5.160  17.570  25.002  0.00  0.00    +0.000 C 
ATOM     18  C   UNL     1      -4.884  17.525  23.538  0.00  0.00    +0.000 C 
ENDBRANCH  14  16
BRANCH  13  19
ATOM     19  C   UNL     1      -1.687  14.223  23.417  0.00  0.00    +0.000 C 
BRANCH  19  20
ATOM     20  C   UNL     1      -1.088  13.701  22.105  0.00  0.00    +0.000 C 
BRANCH  20  21
ATOM     21  C   UNL     1      -0.646  12.253  22.101  0.00  0.00    +0.000 C 
ATOM     22  C   UNL     1       0.351  11.878  21.276  0.00  0.00    +0.000 C 
ATOM     23  C   UNL     1       0.818  10.470  21.106  0.00  0.00    +0.000 C 
ATOM     24  C   UNL     1      -0.162   9.448  21.671  0.00  0.00    +0.000 C 
ATOM     25  C   UNL     1      -0.662   9.887  23.044  0.00  0.00    +0.000 C 
ATOM     26  C   UNL     1      -1.371  11.247  22.971  0.00  0.00    +0.000 C 
ENDBRANCH  20  21
ENDBRANCH  19  20
ENDBRANCH  13  19
ENDBRANCH   2  13
BRANCH   8  27
ATOM     27  C   UNL     1      -5.324  13.019  19.313  0.00  0.00    +0.000 C 
BRANCH  27  28
ATOM     28  C   UNL     1      -4.280  12.072  18.745  0.00  0.00    +0.000 A 
ATOM     29  C   UNL     1      -2.942  12.194  19.149  0.00  0.00    +0.000 A 
ATOM     30  C   UNL     1      -2.000  11.216  18.805  0.00  0.00    +0.000 A 
ATOM     31  C   UNL     1      -2.392  10.106  18.061  0.00  0.00    +0.000 A 
ATOM     32  C   UNL     1      -3.706   9.991  17.621  0.00  0.00    +0.000 A 
ATOM     33  C   UNL     1      -4.644  10.974  17.957  0.00  0.00    +0.000 A 
ENDBRANCH  27  28
ENDBRANCH   8  27
TORSDOF 8
ENDMDL
MODEL 3
REMARK VINA RESULT:      -7.0      0.853      1.402
REMARK  Name = 
REMARK  8 active torsions:
REMARK  status: ('A' for Active; 'I' for Inactive)
REMARK    1  A    between atoms: N_1  and  C_2
REMARK    2  A    between atoms: C_3  and  N_4
REMARK    3  A    between atoms: N_4  and  C_5
REMARK    4  A    between atoms: C_5  and  C_6
REMARK    5  A    between atoms: C_6  and  C_7
REMARK    6  A    between atoms: C_13  and  C_15
REMARK    7  A    between atoms: N_23  and  C_24
REMARK    8  A    between atoms: C_24  and  C_25
REMARK                            x       y       z     vdW  Elec       q    Type
REMARK                         _______ _______ _______ _____ _____    ______ ____
ROOT
ATOM      1  C   UNL     1       3.782   5.981  18.422  0.00  0.00    +0.000 A 
ATOM      2  C   UNL     1       4.475   4.796  18.368  0.00  0.00    +0.000 A 
ATOM      3  C   UNL     1       4.020   3.739  19.338  0.00  0.00    +0.000 A 
ATOM      4  O   UNL     1       4.372   2.565  19.314  0.00  0.00    +0.000 OA
ATOM      5  N   UNL     1       3.185   4.135  20.327  0.00  0.00    +0.000 N 
ATOM      6  C   UNL     1       2.234   5.060  20.074  0.00  0.00    +0.000 A 
ATOM      7  O   UNL     1       1.131   4.948  20.611  0.00  0.00    +0.000 OA
ATOM      8  N   UNL     1       2.587   6.050  19.168  0.00  0.00    +0.000 N 
ATOM      9  H   UNL     1       2.857   3.384  20.913  0.00  0.00    +0.000 HD
ENDROOT
BRANCH   1  10
ATOM     10  N   UNL     1       4.192   7.095  17.709  0.00  0.00    +0.000 N 
ATOM     11  H   UNL     1       4.896   6.901  17.002  0.00  0.00    +0.000 HD
ATOM     12  H   UNL     1       3.437   7.690  17.390  0.00  0.00    +0.000 HD
ENDBRANCH   1  10
BRANCH   2  13
ATOM     13  N   UNL     1       5.593   4.530  17.531  0.00  0.00    +0.000 N 
ATOM     14  C   UNL     1       6.952   4.765  17.891  0.00  0.00    +0.000 C 
ATOM     15  O   UNL     1       7.888   4.315  17.245  0.00  0.00    +0.000 OA
BRANCH  14  16
ATOM     16  C   UNL     1       7.266   5.613  19.083  0.00  0.00    +0.000 C 
ATOM     17  C   UNL     1       8.627   5.815  19.715  0.00  0.00    +0.000 C 
ATOM     18  C   UNL     1       8.113   6.839  18.763  0.00  0.00    +0.000 C 
ENDBRANCH  14  16
BRANCH  13  19
ATOM     19  C   UNL     1       5.455   3.840  16.239  0.00  0.00    +0.000 C 
BRANCH  19  20
ATOM     20  C   UNL     1       5.107   4.675  15.000  0.00  0.00    +0.000 C 
BRANCH  20  21
ATOM     21  C   UNL     1       5.684   4.196  13.686  0.00  0.00    +0.000 C 
ATOM     22  C   UNL     1       4.938   3.402  12.895  0.00  0.00    +0.000 C 
ATOM     23  C   UNL     1       5.421   2.787  11.623  0.00  0.00    +0.000 C 
ATOM     24  C   UNL     1       6.938   2.840  11.478  0.00  0.00    +0.000 C 
ATOM     25  C   UNL     1       7.466   4.217  11.864  0.00  0.00    +0.000 C 
ATOM     26  C   UNL     1       7.108   4.564  13.317  0.00  0.00    +0.000 C 
ENDBRANCH  20  21
ENDBRANCH  19  20
ENDBRANCH  13  19
ENDBRANCH   2  13
BRANCH   8  27
ATOM     27  C   UNL     1       1.508   6.987  18.816  0.00  0.00    +0.000 C 
BRANCH  27  28
ATOM     28  C   UNL     1       1.431   8.271  19.623  0.00  0.00    +0.000 A 
ATOM     29  C   UNL     1       1.260   9.496  18.961  0.00  0.00    +0.000 A 
ATOM     30  C   UNL     1       0.982  10.665  19.680  0.00  0.00    +0.000 A 
ATOM     31  C   UNL     1       0.865  10.615  21.067  0.00  0.00    +0.000 A 
ATOM     32  C   UNL     1       1.068   9.416  21.741  0.00  0.00    +0.000 A 
ATOM     33  C   UNL     1       1.357   8.251  21.021  0.00  0.00    +0.000 A 
ENDBRANCH  27  28
ENDBRANCH   8  27
TORSDOF 8
ENDMDL
MODEL 4
REMARK VINA RESULT:      -7.0      0.836      1.005
REMARK  Name = 
REMARK  8 active torsions:
REMARK  status: ('A' for Active; 'I' for Inactive)
REMARK    1  A    between atoms: N_1  and  C_2
REMARK    2  A    between atoms: C_3  and  N_4
REMARK    3  A    between atoms: N_4  and  C_5
REMARK    4  A    between atoms: C_5  and  C_6
REMARK    5  A    between atoms: C_6  and  C_7
REMARK    6  A    between atoms: C_13  and  C_15
REMARK    7  A    between atoms: N_23  and  C_24
REMARK    8  A    between atoms: C_24  and  C_25
REMARK                            x       y       z     vdW  Elec       q    Type
REMARK                         _______ _______ _______ _____ _____    ______ ____
ROOT
ATOM      1  C   UNL     1       3.737   5.817  18.542  0.00  0.00    +0.000 A 
ATOM      2  C   UNL     1       4.449   4.643  18.494  0.00  0.00    +0.000 A 
ATOM      3  C   UNL     1       4.022   3.590  19.481  0.00  0.00    +0.000 A 
ATOM      4  O   UNL     1       4.393   2.422  19.467  0.00  0.00    +0.000 OA
ATOM      5  N   UNL     1       3.192   3.984  20.476  0.00  0.00    +0.000 N 
ATOM      6  C   UNL     1       2.223   4.891  20.224  0.00  0.00    +0.000 A 
ATOM      7  O   UNL     1       1.129   4.767  20.774  0.00  0.00    +0.000 OA
ATOM      8  N   UNL     1       2.550   5.876  19.302  0.00  0.00    +0.000 N 
ATOM      9  H   UNL     1       2.883   3.234  21.074  0.00  0.00    +0.000 HD
ENDROOT
BRANCH   1  10
ATOM     10  N   UNL     1       4.120   6.929  17.812  0.00  0.00    +0.000 N 
ATOM     11  H   UNL     1       3.355   7.557  17.579  0.00  0.00    +0.000 HD
ATOM     12  H   UNL     1       4.947   7.397  18.163  0.00  0.00    +0.000 HD
ENDBRANCH   1  10
BRANCH   2  13
ATOM     13  N   UNL     1       5.561   4.385  17.646  0.00  0.00    +0.000 N 
ATOM     14  C   UNL     1       6.913   4.713  17.958  0.00  0.00    +0.000 C 
ATOM     15  O   UNL     1       7.857   4.274  17.317  0.00  0.00    +0.000 OA
BRANCH  14  16
ATOM     16  C   UNL     1       7.206   5.648  19.088  0.00  0.00    +0.000 C 
ATOM     17  C   UNL     1       8.555   5.894  19.730  0.00  0.00    +0.000 C 
ATOM     18  C   UNL     1       8.063   6.845  18.693  0.00  0.00    +0.000 C 
ENDBRANCH  14  16
BRANCH  13  19
ATOM     19  C   UNL     1       5.431   3.612  16.401  0.00  0.00    +0.000 C 
BRANCH  19  20
ATOM     20  C   UNL     1       4.985   4.345  15.131  0.00  0.00    +0.000 C 
BRANCH  20  21
ATOM     21  C   UNL     1       5.942   4.299  13.959  0.00  0.00    +0.000 C 
ATOM     22  C   UNL     1       7.024   5.100  13.969  0.00  0.00    +0.000 C 
ATOM     23  C   UNL     1       7.993   5.221  12.839  0.00  0.00    +0.000 C 
ATOM     24  C   UNL     1       7.461   4.633  11.537  0.00  0.00    +0.000 C 
ATOM     25  C   UNL     1       6.803   3.281  11.788  0.00  0.00    +0.000 C 
ATOM     26  C   UNL     1       5.633   3.405  12.775  0.00  0.00    +0.000 C 
ENDBRANCH  20  21
ENDBRANCH  19  20
ENDBRANCH  13  19
ENDBRANCH   2  13
BRANCH   8  27
ATOM     27  C   UNL     1       1.452   6.791  18.952  0.00  0.00    +0.000 C 
BRANCH  27  28
ATOM     28  C   UNL     1       1.409   8.117  19.691  0.00  0.00    +0.000 A 
ATOM     29  C   UNL     1       1.321   9.313  18.963  0.00  0.00    +0.000 A 
ATOM     30  C   UNL     1       1.075  10.529  19.612  0.00  0.00    +0.000 A 
ATOM     31  C   UNL     1       0.907  10.556  20.995  0.00  0.00    +0.000 A 
ATOM     32  C   UNL     1       1.028   9.385  21.734  0.00  0.00    +0.000 A 
ATOM     33  C   UNL     1       1.284   8.172  21.084  0.00  0.00    +0.000 A 
ENDBRANCH  27  28
ENDBRANCH   8  27
TORSDOF 8
ENDMDL
MODEL 5
REMARK VINA RESULT:      -6.9      1.636      7.881
REMARK  Name = 
REMARK  8 active torsions:
REMARK  status: ('A' for Active; 'I' for Inactive)
REMARK    1  A    between atoms: N_1  and  C_2
REMARK    2  A    between atoms: C_3  and  N_4
REMARK    3  A    between atoms: N_4  and  C_5
REMARK    4  A    between atoms: C_5  and  C_6
REMARK    5  A    between atoms: C_6  and  C_7
REMARK    6  A    between atoms: C_13  and  C_15
REMARK    7  A    between atoms: N_23  and  C_24
REMARK    8  A    between atoms: C_24  and  C_25
REMARK                            x       y       z     vdW  Elec       q    Type
REMARK                         _______ _______ _______ _____ _____    ______ ____
ROOT
ATOM      1  C   UNL     1       4.549   4.857  16.967  0.00  0.00    +0.000 A 
ATOM      2  C   UNL     1       4.630   4.943  18.335  0.00  0.00    +0.000 A 
ATOM      3  C   UNL     1       5.999   4.714  18.916  0.00  0.00    +0.000 A 
ATOM      4  O   UNL     1       6.317   4.938  20.079  0.00  0.00    +0.000 OA
ATOM      5  N   UNL     1       6.934   4.189  18.089  0.00  0.00    +0.000 N 
ATOM      6  C   UNL     1       6.969   4.561  16.791  0.00  0.00    +0.000 A 
ATOM      7  O   UNL     1       8.060   4.697  16.236  0.00  0.00    +0.000 OA
ATOM      8  N   UNL     1       5.735   4.809  16.206  0.00  0.00    +0.000 N 
ATOM      9  H   UNL     1       7.851   4.112  18.501  0.00  0.00    +0.000 HD
ENDROOT
BRANCH   1  10
ATOM     10  N   UNL     1       3.332   4.880  16.308  0.00  0.00    +0.000 N 
ATOM     11  H   UNL     1       2.608   5.407  16.791  0.00  0.00    +0.000 HD
ATOM     12  H   UNL     1       3.395   5.076  15.316  0.00  0.00    +0.000 HD
ENDBRANCH   1  10
BRANCH   2  13
ATOM     13  N   UNL     1       3.535   5.165  19.216  0.00  0.00    +0.000 N 
ATOM     14  C   UNL     1       2.808   4.137  19.884  0.00  0.00    +0.000 C 
ATOM     15  O   UNL     1       2.033   4.373  20.800  0.00  0.00    +0.000 OA
BRANCH  14  16
ATOM     16  C   UNL     1       2.964   2.715  19.445  0.00  0.00    +0.000 C 
ATOM     17  C   UNL     1       1.928   1.617  19.556  0.00  0.00    +0.000 C 
ATOM     18  C   UNL     1       2.085   2.334  18.260  0.00  0.00    +0.000 C 
ENDBRANCH  14  16
BRANCH  13  19
ATOM     19  C   UNL     1       3.133   6.516  19.636  0.00  0.00    +0.000 C 
BRANCH  19  20
ATOM     20  C   UNL     1       2.590   7.479  18.573  0.00  0.00    +0.000 C 
BRANCH  20  21
ATOM     21  C   UNL     1       1.653   8.561  19.066  0.00  0.00    +0.000 C 
ATOM     22  C   UNL     1       1.305   8.581  20.366  0.00  0.00    +0.000 C 
ATOM     23  C   UNL     1       0.319   9.532  20.960  0.00  0.00    +0.000 C 
ATOM     24  C   UNL     1      -0.527  10.242  19.909  0.00  0.00    +0.000 C 
ATOM     25  C   UNL     1       0.346  10.726  18.756  0.00  0.00    +0.000 C 
ATOM     26  C   UNL     1       1.075   9.556  18.079  0.00  0.00    +0.000 C 
ENDBRANCH  20  21
ENDBRANCH  19  20
ENDBRANCH  13  19
ENDBRANCH   2  13
BRANCH   8  27
ATOM     27  C   UNL     1       5.792   5.319  14.827  0.00  0.00    +0.000 C 
BRANCH  27  28
ATOM     28  C   UNL     1       5.915   4.285  13.722  0.00  0.00    +0.000 A 
ATOM     29  C   UNL     1       4.759   3.674  13.213  0.00  0.00    +0.000 A 
ATOM     30  C   UNL     1       4.819   2.875  12.064  0.00  0.00    +0.000 A 
ATOM     31  C   UNL     1       6.035   2.689  11.412  0.00  0.00    +0.000 A 
ATOM     32  C   UNL     1       7.195   3.256  11.925  0.00  0.00    +0.000 A 
ATOM     33  C   UNL     1       7.135   4.046  13.079  0.00  0.00    +0.000 A 
ENDBRANCH  27  28
ENDBRANCH   8  27
TORSDOF 8
ENDMDL
MODEL 6
REMARK VINA RESULT:      -6.9      3.498      8.880
REMARK  Name = 
REMARK  8 active torsions:
REMARK  status: ('A' for Active; 'I' for Inactive)
REMARK    1  A    between atoms: N_1  and  C_2
REMARK    2  A    between atoms: C_3  and  N_4
REMARK    3  A    between atoms: N_4  and  C_5
REMARK    4  A    between atoms: C_5  and  C_6
REMARK    5  A    between atoms: C_6  and  C_7
REMARK    6  A    between atoms: C_13  and  C_15
REMARK    7  A    between atoms: N_23  and  C_24
REMARK    8  A    between atoms: C_24  and  C_25
REMARK                            x       y       z     vdW  Elec       q    Type
REMARK                         _______ _______ _______ _____ _____    ______ ____
ROOT
ATOM      1  C   UNL     1       1.460   8.938  18.797  0.00  0.00    +0.000 A 
ATOM      2  C   UNL     1       0.811   9.777  19.669  0.00  0.00    +0.000 A 
ATOM      3  C   UNL     1       0.560   9.212  21.042  0.00  0.00    +0.000 A 
ATOM      4  O   UNL     1       0.178   9.860  22.010  0.00  0.00    +0.000 OA
ATOM      5  N   UNL     1       0.741   7.879  21.197  0.00  0.00    +0.000 N 
ATOM      6  C   UNL     1       1.750   7.258  20.550  0.00  0.00    +0.000 A 
ATOM      7  O   UNL     1       2.358   6.351  21.119  0.00  0.00    +0.000 OA
ATOM      8  N   UNL     1       2.044   7.751  19.286  0.00  0.00    +0.000 N 
ATOM      9  H   UNL     1       0.623   7.557  22.145  0.00  0.00    +0.000 HD
ENDROOT
BRANCH   1  10
ATOM     10  N   UNL     1       1.612   9.256  17.459  0.00  0.00    +0.000 N 
ATOM     11  H   UNL     1       2.398   8.795  17.008  0.00  0.00    +0.000 HD
ATOM     12  H   UNL     1       0.753   9.232  16.922  0.00  0.00    +0.000 HD
ENDBRANCH   1  10
BRANCH   2  13
ATOM     13  N   UNL     1       0.323  11.076  19.358  0.00  0.00    +0.000 N 
ATOM     14  C   UNL     1      -0.998  11.360  18.902  0.00  0.00    +0.000 C 
ATOM     15  O   UNL     1      -1.447  12.497  18.866  0.00  0.00    +0.000 OA
BRANCH  14  16
ATOM     16  C   UNL     1      -1.871  10.245  18.422  0.00  0.00    +0.000 C 
ATOM     17  C   UNL     1      -3.174  10.380  17.664  0.00  0.00    +0.000 C 
ATOM     18  C   UNL     1      -1.921  10.108  16.905  0.00  0.00    +0.000 C 
ENDBRANCH  14  16
BRANCH  13  19
ATOM     19  C   UNL     1       1.113  12.290  19.616  0.00  0.00    +0.000 C 
BRANCH  19  20
ATOM     20  C   UNL     1       2.227  12.659  18.628  0.00  0.00    +0.000 C 
BRANCH  20  21
ATOM     21  C   UNL     1       2.508  14.136  18.458  0.00  0.00    +0.000 C 
ATOM     22  C   UNL     1       1.515  15.019  18.673  0.00  0.00    +0.000 C 
ATOM     23  C   UNL     1       1.633  16.491  18.450  0.00  0.00    +0.000 C 
ATOM     24  C   UNL     1       2.854  16.868  17.617  0.00  0.00    +0.000 C 
ATOM     25  C   UNL     1       4.085  16.105  18.095  0.00  0.00    +0.000 C 
ATOM     26  C   UNL     1       3.877  14.587  17.987  0.00  0.00    +0.000 C 
ENDBRANCH  20  21
ENDBRANCH  19  20
ENDBRANCH  13  19
ENDBRANCH   2  13
BRANCH   8  27
ATOM     27  C   UNL     1       3.215   7.140  18.637  0.00  0.00    +0.000 C 
BRANCH  27  28
ATOM     28  C   UNL     1       3.005   5.782  17.989  0.00  0.00    +0.000 A 
ATOM     29  C   UNL     1       4.114   5.048  17.544  0.00  0.00    +0.000 A 
ATOM     30  C   UNL     1       3.972   3.717  17.133  0.00  0.00    +0.000 A 
ATOM     31  C   UNL     1       2.720   3.108  17.173  0.00  0.00    +0.000 A 
ATOM     32  C   UNL     1       1.605   3.834  17.577  0.00  0.00    +0.000 A 
ATOM     33  C   UNL     1       1.747   5.168  17.977  0.00  0.00    +0.000 A 
ENDBRANCH  27  28
ENDBRANCH   8  27
TORSDOF 8
ENDMDL
MODEL 7
REMARK VINA RESULT:      -6.8      8.239     10.187
REMARK  Name = 
REMARK  8 active torsions:
REMARK  status: ('A' for Active; 'I' for Inactive)
REMARK    1  A    between atoms: N_1  and  C_2
REMARK    2  A    between atoms: C_3  and  N_4
REMARK    3  A    between atoms: N_4  and  C_5
REMARK    4  A    between atoms: C_5  and  C_6
REMARK    5  A    between atoms: C_6  and  C_7
REMARK    6  A    between atoms: C_13  and  C_15
REMARK    7  A    between atoms: N_23  and  C_24
REMARK    8  A    between atoms: C_24  and  C_25
REMARK                            x       y       z     vdW  Elec       q    Type
REMARK                         _______ _______ _______ _____ _____    ______ ____
ROOT
ATOM      1  C   UNL     1      -2.192  13.464  21.300  0.00  0.00    +0.000 A 
ATOM      2  C   UNL     1      -1.151  12.571  21.224  0.00  0.00    +0.000 A 
ATOM      3  C   UNL     1      -1.065  11.584  22.356  0.00  0.00    +0.000 A 
ATOM      4  O   UNL     1      -0.340  10.595  22.374  0.00  0.00    +0.000 OA
ATOM      5  N   UNL     1      -1.828  11.835  23.447  0.00  0.00    +0.000 N 
ATOM      6  C   UNL     1      -3.065  12.356  23.297  0.00  0.00    +0.000 A 
ATOM      7  O   UNL     1      -3.969  11.978  24.043  0.00  0.00    +0.000 OA
ATOM      8  N   UNL     1      -3.212  13.258  22.252  0.00  0.00    +0.000 N 
ATOM      9  H   UNL     1      -1.787  11.116  24.152  0.00  0.00    +0.000 HD
ENDROOT
BRANCH   1  10
ATOM     10  N   UNL     1      -2.301  14.530  20.422  0.00  0.00    +0.000 N 
ATOM     11  H   UNL     1      -1.807  15.366  20.721  0.00  0.00    +0.000 HD
ATOM     12  H   UNL     1      -2.158  14.288  19.449  0.00  0.00    +0.000 HD
ENDBRANCH   1  10
BRANCH   2  13
ATOM     13  N   UNL     1      -0.149  12.554  20.216  0.00  0.00    +0.000 N 
ATOM     14  C   UNL     1       1.141  13.149  20.343  0.00  0.00    +0.000 C 
ATOM     15  O   UNL     1       2.049  12.918  19.556  0.00  0.00    +0.000 OA
BRANCH  14  16
ATOM     16  C   UNL     1       1.406  14.111  21.457  0.00  0.00    +0.000 C 
ATOM     17  C   UNL     1       2.521  15.133  21.521  0.00  0.00    +0.000 C 
ATOM     18  C   UNL     1       1.165  15.569  21.083  0.00  0.00    +0.000 C 
ENDBRANCH  14  16
BRANCH  13  19
ATOM     19  C   UNL     1      -0.304  11.784  18.972  0.00  0.00    +0.000 C 
BRANCH  19  20
ATOM     20  C   UNL     1      -1.332  10.647  18.942  0.00  0.00    +0.000 C 
BRANCH  20  21
ATOM     21  C   UNL     1      -2.257  10.612  17.744  0.00  0.00    +0.000 C 
ATOM     22  C   UNL     1      -2.013   9.731  16.756  0.00  0.00    +0.000 C 
ATOM     23  C   UNL     1      -2.789   9.658  15.482  0.00  0.00    +0.000 C 
ATOM     24  C   UNL     1      -3.649  10.894  15.240  0.00  0.00    +0.000 C 
ATOM     25  C   UNL     1      -4.382  11.295  16.516  0.00  0.00    +0.000 C 
ATOM     26  C   UNL     1      -3.396  11.608  17.650  0.00  0.00    +0.000 C 
ENDBRANCH  20  21
ENDBRANCH  19  20
ENDBRANCH  13  19
ENDBRANCH   2  13
BRANCH   8  27
ATOM     27  C   UNL     1      -4.587  13.734  22.029  0.00  0.00    +0.000 C 
BRANCH  27  28
ATOM     28  C   UNL     1      -5.585  12.713  21.508  0.00  0.00    +0.000 A 
ATOM     29  C   UNL     1      -6.780  12.494  22.209  0.00  0.00    +0.000 A 
ATOM     30  C   UNL     1      -7.804  11.717  21.651  0.00  0.00    +0.000 A 
ATOM     31  C   UNL     1      -7.641  11.162  20.385  0.00  0.00    +0.000 A 
ATOM     32  C   UNL     1      -6.448  11.340  19.694  0.00  0.00    +0.000 A 
ATOM     33  C   UNL     1      -5.422  12.108  20.258  0.00  0.00    +0.000 A 
ENDBRANCH  27  28
ENDBRANCH   8  27
TORSDOF 8
ENDMDL
MODEL 8
REMARK VINA RESULT:      -6.8      1.579      8.011
REMARK  Name = 
REMARK  8 active torsions:
REMARK  status: ('A' for Active; 'I' for Inactive)
REMARK    1  A    between atoms: N_1  and  C_2
REMARK    2  A    between atoms: C_3  and  N_4
REMARK    3  A    between atoms: N_4  and  C_5
REMARK    4  A    between atoms: C_5  and  C_6
REMARK    5  A    between atoms: C_6  and  C_7
REMARK    6  A    between atoms: C_13  and  C_15
REMARK    7  A    between atoms: N_23  and  C_24
REMARK    8  A    between atoms: C_24  and  C_25
REMARK                            x       y       z     vdW  Elec       q    Type
REMARK                         _______ _______ _______ _____ _____    ______ ____
ROOT
ATOM      1  C   UNL     1       4.512   5.035  17.169  0.00  0.00    +0.000 A 
ATOM      2  C   UNL     1       4.573   4.992  18.541  0.00  0.00    +0.000 A 
ATOM      3  C   UNL     1       5.910   4.604  19.115  0.00  0.00    +0.000 A 
ATOM      4  O   UNL     1       6.221   4.698  20.297  0.00  0.00    +0.000 OA
ATOM      5  N   UNL     1       6.817   4.083  18.255  0.00  0.00    +0.000 N 
ATOM      6  C   UNL     1       6.905   4.566  16.997  0.00  0.00    +0.000 A 
ATOM      7  O   UNL     1       8.014   4.664  16.469  0.00  0.00    +0.000 OA
ATOM      8  N   UNL     1       5.706   4.962  16.421  0.00  0.00    +0.000 N 
ATOM      9  H   UNL     1       7.716   3.898  18.670  0.00  0.00    +0.000 HD
ENDROOT
BRANCH   1  10
ATOM     10  N   UNL     1       3.313   5.214  16.501  0.00  0.00    +0.000 N 
ATOM     11  H   UNL     1       2.491   4.981  17.052  0.00  0.00    +0.000 HD
ATOM     12  H   UNL     1       3.240   6.089  15.996  0.00  0.00    +0.000 HD
ENDBRANCH   1  10
BRANCH   2  13
ATOM     13  N   UNL     1       3.483   5.221  19.425  0.00  0.00    +0.000 N 
ATOM     14  C   UNL     1       2.675   4.196  20.000  0.00  0.00    +0.000 C 
ATOM     15  O   UNL     1       1.904   4.413  20.925  0.00  0.00    +0.000 OA
BRANCH  14  16
ATOM     16  C   UNL     1       2.740   2.806  19.452  0.00  0.00    +0.000 C 
ATOM     17  C   UNL     1       1.643   1.764  19.501  0.00  0.00    +0.000 C 
ATOM     18  C   UNL     1       1.820   2.570  18.260  0.00  0.00    +0.000 C 
ENDBRANCH  14  16
BRANCH  13  19
ATOM     19  C   UNL     1       3.168   6.560  19.947  0.00  0.00    +0.000 C 
BRANCH  19  20
ATOM     20  C   UNL     1       2.284   7.483  19.100  0.00  0.00    +0.000 C 
BRANCH  20  21
ATOM     21  C   UNL     1       1.426   8.471  19.861  0.00  0.00    +0.000 C 
ATOM     22  C   UNL     1       1.077   9.627  19.266  0.00  0.00    +0.000 C 
ATOM     23  C   UNL     1       0.316  10.723  19.936  0.00  0.00    +0.000 C 
ATOM     24  C   UNL     1       0.278  10.577  21.454  0.00  0.00    +0.000 C 
ATOM     25  C   UNL     1      -0.028   9.135  21.845  0.00  0.00    +0.000 C 
ATOM     26  C   UNL     1       1.032   8.170  21.294  0.00  0.00    +0.000 C 
ENDBRANCH  20  21
ENDBRANCH  19  20
ENDBRANCH  13  19
ENDBRANCH   2  13
BRANCH   8  27
ATOM     27  C   UNL     1       5.828   5.588  15.095  0.00  0.00    +0.000 C 
BRANCH  27  28
ATOM     28  C   UNL     1       6.116   4.659  13.928  0.00  0.00    +0.000 A 
ATOM     29  C   UNL     1       5.130   3.758  13.501  0.00  0.00    +0.000 A 
ATOM     30  C   UNL     1       5.287   3.038  12.309  0.00  0.00    +0.000 A 
ATOM     31  C   UNL     1       6.428   3.223  11.533  0.00  0.00    +0.000 A 
ATOM     32  C   UNL     1       7.431   4.085  11.961  0.00  0.00    +0.000 A 
ATOM     33  C   UNL     1       7.277   4.795  13.158  0.00  0.00    +0.000 A 
ENDBRANCH  27  28
ENDBRANCH   8  27
TORSDOF 8
ENDMDL
MODEL 9
REMARK VINA RESULT:      -6.8      1.451      7.843
REMARK  Name = 
REMARK  8 active torsions:
REMARK  status: ('A' for Active; 'I' for Inactive)
REMARK    1  A    between atoms: N_1  and  C_2
REMARK    2  A    between atoms: C_3  and  N_4
REMARK    3  A    between atoms: N_4  and  C_5
REMARK    4  A    between atoms: C_5  and  C_6
REMARK    5  A    between atoms: C_6  and  C_7
REMARK    6  A    between atoms: C_13  and  C_15
REMARK    7  A    between atoms: N_23  and  C_24
REMARK    8  A    between atoms: C_24  and  C_25
REMARK                            x       y       z     vdW  Elec       q    Type
REMARK                         _______ _______ _______ _____ _____    ______ ____
ROOT
ATOM      1  C   UNL     1       4.762   5.447  17.089  0.00  0.00    +0.000 A 
ATOM      2  C   UNL     1       4.502   5.284  18.428  0.00  0.00    +0.000 A 
ATOM      3  C   UNL     1       5.546   4.521  19.199  0.00  0.00    +0.000 A 
ATOM      4  O   UNL     1       5.597   4.440  20.421  0.00  0.00    +0.000 OA
ATOM      5  N   UNL     1       6.473   3.851  18.475  0.00  0.00    +0.000 N 
ATOM      6  C   UNL     1       6.953   4.389  17.333  0.00  0.00    +0.000 A 
ATOM      7  O   UNL     1       8.142   4.238  17.053  0.00  0.00    +0.000 OA
ATOM      8  N   UNL     1       6.041   5.125  16.589  0.00  0.00    +0.000 N 
ATOM      9  H   UNL     1       7.187   3.408  19.031  0.00  0.00    +0.000 HD
ENDROOT
BRANCH   1  10
ATOM     10  N   UNL     1       3.820   5.980  16.225  0.00  0.00    +0.000 N 
ATOM     11  H   UNL     1       3.099   6.531  16.685  0.00  0.00    +0.000 HD
ATOM     12  H   UNL     1       4.209   6.416  15.397  0.00  0.00    +0.000 HD
ENDBRANCH   1  10
BRANCH   2  13
ATOM     13  N   UNL     1       3.327   5.718  19.100  0.00  0.00    +0.000 N 
ATOM     14  C   UNL     1       2.319   4.852  19.617  0.00  0.00    +0.000 C 
ATOM     15  O   UNL     1       1.449   5.243  20.383  0.00  0.00    +0.000 OA
BRANCH  14  16
ATOM     16  C   UNL     1       2.292   3.416  19.199  0.00  0.00    +0.000 C 
ATOM     17  C   UNL     1       1.063   2.559  18.989  0.00  0.00    +0.000 C 
ATOM     18  C   UNL     1       1.716   3.188  17.807  0.00  0.00    +0.000 C 
ENDBRANCH  14  16
BRANCH  13  19
ATOM     19  C   UNL     1       3.106   7.129  19.455  0.00  0.00    +0.000 C 
BRANCH  19  20
ATOM     20  C   UNL     1       2.376   8.028  18.450  0.00  0.00    +0.000 C 
BRANCH  20  21
ATOM     21  C   UNL     1       1.309   8.939  19.018  0.00  0.00    +0.000 C 
ATOM     22  C   UNL     1       0.659   9.779  18.190  0.00  0.00    +0.000 C 
ATOM     23  C   UNL     1      -0.345  10.791  18.635  0.00  0.00    +0.000 C 
ATOM     24  C   UNL     1      -0.309  11.039  20.139  0.00  0.00    +0.000 C 
ATOM     25  C   UNL     1      -0.222   9.720  20.899  0.00  0.00    +0.000 C 
ATOM     26  C   UNL     1       1.039   8.934  20.510  0.00  0.00    +0.000 C 
ENDBRANCH  20  21
ENDBRANCH  19  20
ENDBRANCH  13  19
ENDBRANCH   2  13
BRANCH   8  27
ATOM     27  C   UNL     1       6.601   5.798  15.406  0.00  0.00    +0.000 C 
BRANCH  27  28
ATOM     28  C   UNL     1       6.511   5.048  14.088  0.00  0.00    +0.000 A 
ATOM     29  C   UNL     1       7.544   5.175  13.148  0.00  0.00    +0.000 A 
ATOM     30  C   UNL     1       7.590   4.345  12.020  0.00  0.00    +0.000 A 
ATOM     31  C   UNL     1       6.607   3.376  11.832  0.00  0.00    +0.000 A 
ATOM     32  C   UNL     1       5.558   3.263  12.736  0.00  0.00    +0.000 A 
ATOM     33  C   UNL     1       5.507   4.102  13.856  0.00  0.00    +0.000 A 
ENDBRANCH  27  28
ENDBRANCH   8  27
TORSDOF 8
ENDMDL
