MODEL 1
REMARK VINA RESULT:      -7.0      0.000      0.000
REMARK  Name = 
REMARK  7 active torsions:
REMARK  status: ('A' for Active; 'I' for Inactive)
REMARK    1  A    between atoms: C_1  and  C_2
REMARK    2  A    between atoms: C_5  and  C_6
REMARK    3  A    between atoms: N_7  and  C_8
REMARK    4  A    between atoms: C_13  and  N_14
REMARK    5  A    between atoms: N_14  and  C_15
REMARK    6  A    between atoms: C_15  and  N_17
REMARK    7  A    between atoms: N_17  and  C_18
REMARK                            x       y       z     vdW  Elec       q    Type
REMARK                         _______ _______ _______ _____ _____    ______ ____
ROOT
ATOM      1  C   UNL     1       3.444   3.853  19.452  0.00  0.00    +0.000 A 
ATOM      2  C   UNL     1       3.711   2.739  20.279  0.00  0.00    +0.000 A 
ATOM      3  C   UNL     1       2.961   2.438  21.424  0.00  0.00    +0.000 A 
ATOM      4  C   UNL     1       1.871   3.217  21.751  0.00  0.00    +0.000 A 
ATOM      5  C   UNL     1       1.532   4.275  20.917  0.00  0.00    +0.000 A 
ATOM      6  C   UNL     1       2.293   4.604  19.767  0.00  0.00    +0.000 A 
ENDROOT
BRANCH   1  13
ATOM      7  C   UNL     1       6.332   5.330  19.400  0.00  0.00    +0.000 C 
ATOM      8  C   UNL     1       5.587   4.685  18.284  0.00  0.00    +0.000 A 
ATOM      9  C   UNL     1       6.046   4.720  16.972  0.00  0.00    +0.000 A 
ATOM     10  C   UNL     1       5.070   4.144  16.165  0.00  0.00    +0.000 A 
ATOM     11  C   UNL     1       4.043   3.710  16.977  0.00  0.00    +0.000 A 
ATOM     12  C   UNL     1       2.871   2.920  16.478  0.00  0.00    +0.000 C 
ATOM     13  N   UNL     1       4.328   4.059  18.315  0.00  0.00    +0.000 N 
ENDBRANCH   1  13
BRANCH   6  14
ATOM     14  N   UNL     1       1.869   5.758  19.076  0.00  0.00    +0.000 N 
ATOM     15  H   UNL     1       1.046   5.679  18.487  0.00  0.00    +0.000 HD
BRANCH  14  16
ATOM     16  C   UNL     1       2.499   7.000  19.109  0.00  0.00    +0.000 C 
ATOM     17  S   UNL     1       3.228   7.574  17.723  0.00  0.00    +0.000 S 
BRANCH  16  18
ATOM     18  N   UNL     1       2.259   7.700  20.277  0.00  0.00    +0.000 N 
ATOM     19  H   UNL     1       2.981   7.555  20.973  0.00  0.00    +0.000 HD
BRANCH  18  20
ATOM     20  C   UNL     1       1.248   8.603  20.665  0.00  0.00    +0.000 A 
ATOM     21  C   UNL     1       0.778   8.468  21.983  0.00  0.00    +0.000 A 
ATOM     22  C   UNL     1      -0.122   9.390  22.529  0.00  0.00    +0.000 A 
ATOM     23  C   UNL     1      -0.571  10.458  21.760  0.00  0.00    +0.000 A 
ATOM     24  C   UNL     1      -0.121  10.600  20.449  0.00  0.00    +0.000 A 
ATOM     25  C   UNL     1       0.789   9.685  19.909  0.00  0.00    +0.000 A 
ATOM     26  F   UNL     1       1.272   9.955  18.692  0.00  0.00    +0.000 F 
ENDBRANCH  18  20
ENDBRANCH  16  18
ENDBRANCH  14  16
ENDBRANCH   6  14
TORSDOF 5
ENDMDL
MODEL 2
REMARK VINA RESULT:      -6.7      1.969      2.889
REMARK  Name = 
REMARK  7 active torsions:
REMARK  status: ('A' for Active; 'I' for Inactive)
REMARK    1  A    between atoms: C_1  and  C_2
REMARK    2  A    between atoms: C_5  and  C_6
REMARK    3  A    between atoms: N_7  and  C_8
REMARK    4  A    between atoms: C_13  and  N_14
REMARK    5  A    between atoms: N_14  and  C_15
REMARK    6  A    between atoms: C_15  and  N_17
REMARK    7  A    between atoms: N_17  and  C_18
REMARK                            x       y       z     vdW  Elec       q    Type
REMARK                         _______ _______ _______ _____ _____    ______ ____
ROOT
ATOM      1  C   UNL     1       3.965   4.149  17.498  0.00  0.00    +0.000 A 
ATOM      2  C   UNL     1       3.755   2.753  17.432  0.00  0.00    +0.000 A 
ATOM      3  C   UNL     1       2.548   2.142  17.802  0.00  0.00    +0.000 A 
ATOM      4  C   UNL     1       1.481   2.921  18.199  0.00  0.00    +0.000 A 
ATOM      5  C   UNL     1       1.628   4.302  18.202  0.00  0.00    +0.000 A 
ATOM      6  C   UNL     1       2.848   4.934  17.850  0.00  0.00    +0.000 A 
ENDROOT
BRANCH   1  13
ATOM      7  C   UNL     1       5.277   4.259  14.532  0.00  0.00    +0.000 C 
ATOM      8  C   UNL     1       5.852   4.704  15.832  0.00  0.00    +0.000 A 
ATOM      9  C   UNL     1       7.155   5.178  15.938  0.00  0.00    +0.000 A 
ATOM     10  C   UNL     1       7.422   5.387  17.287  0.00  0.00    +0.000 A 
ATOM     11  C   UNL     1       6.279   5.096  18.001  0.00  0.00    +0.000 A 
ATOM     12  C   UNL     1       6.143   5.327  19.476  0.00  0.00    +0.000 C 
ATOM     13  N   UNL     1       5.280   4.638  17.114  0.00  0.00    +0.000 N 
ENDBRANCH   1  13
BRANCH   6  14
ATOM     14  N   UNL     1       2.859   6.337  17.989  0.00  0.00    +0.000 N 
ATOM     15  H   UNL     1       3.310   6.879  17.258  0.00  0.00    +0.000 HD
BRANCH  14  16
ATOM     16  C   UNL     1       2.325   7.051  19.060  0.00  0.00    +0.000 C 
ATOM     17  S   UNL     1       2.174   6.294  20.539  0.00  0.00    +0.000 S 
BRANCH  16  18
ATOM     18  N   UNL     1       2.168   8.397  18.791  0.00  0.00    +0.000 N 
ATOM     19  H   UNL     1       2.930   8.776  18.242  0.00  0.00    +0.000 HD
BRANCH  18  20
ATOM     20  C   UNL     1       1.143   9.321  19.082  0.00  0.00    +0.000 A 
ATOM     21  C   UNL     1       0.337   9.705  17.995  0.00  0.00    +0.000 A 
ATOM     22  C   UNL     1      -0.794  10.507  18.181  0.00  0.00    +0.000 A 
ATOM     23  C   UNL     1      -1.133  10.942  19.458  0.00  0.00    +0.000 A 
ATOM     24  C   UNL     1      -0.339  10.577  20.543  0.00  0.00    +0.000 A 
ATOM     25  C   UNL     1       0.785   9.765  20.358  0.00  0.00    +0.000 A 
ATOM     26  F   UNL     1       1.424   9.352  21.457  0.00  0.00    +0.000 F 
ENDBRANCH  18  20
ENDBRANCH  16  18
ENDBRANCH  14  16
ENDBRANCH   6  14
TORSDOF 5
ENDMDL
MODEL 3
REMARK VINA RESULT:      -6.7      0.954      1.376
REMARK  Name = 
REMARK  7 active torsions:
REMARK  status: ('A' for Active; 'I' for Inactive)
REMARK    1  A    between atoms: C_1  and  C_2
REMARK    2  A    between atoms: C_5  and  C_6
REMARK    3  A    between atoms: N_7  and  C_8
REMARK    4  A    between atoms: C_13  and  N_14
REMARK    5  A    between atoms: N_14  and  C_15
REMARK    6  A    between atoms: C_15  and  N_17
REMARK    7  A    between atoms: N_17  and  C_18
REMARK                            x       y       z     vdW  Elec       q    Type
REMARK                         _______ _______ _______ _____ _____    ______ ____
ROOT
ATOM      1  C   UNL     1       3.470   3.863  19.436  0.00  0.00    +0.000 A 
ATOM      2  C   UNL     1       3.720   2.763  20.287  0.00  0.00    +0.000 A 
ATOM      3  C   UNL     1       2.953   2.488  21.428  0.00  0.00    +0.000 A 
ATOM      4  C   UNL     1       1.863   3.280  21.726  0.00  0.00    +0.000 A 
ATOM      5  C   UNL     1       1.542   4.324  20.868  0.00  0.00    +0.000 A 
ATOM      6  C   UNL     1       2.320   4.627  19.722  0.00  0.00    +0.000 A 
ENDROOT
BRANCH   1  13
ATOM      7  C   UNL     1       6.367   5.324  19.395  0.00  0.00    +0.000 C 
ATOM      8  C   UNL     1       5.632   4.661  18.281  0.00  0.00    +0.000 A 
ATOM      9  C   UNL     1       6.109   4.670  16.975  0.00  0.00    +0.000 A 
ATOM     10  C   UNL     1       5.140   4.084  16.166  0.00  0.00    +0.000 A 
ATOM     11  C   UNL     1       4.100   3.671  16.973  0.00  0.00    +0.000 A 
ATOM     12  C   UNL     1       2.930   2.878  16.473  0.00  0.00    +0.000 C 
ATOM     13  N   UNL     1       4.370   4.044  18.307  0.00  0.00    +0.000 N 
ENDBRANCH   1  13
BRANCH   6  14
ATOM     14  N   UNL     1       1.911   5.770  19.005  0.00  0.00    +0.000 N 
ATOM     15  H   UNL     1       1.122   5.674  18.373  0.00  0.00    +0.000 HD
BRANCH  14  16
ATOM     16  C   UNL     1       2.516   7.025  19.066  0.00  0.00    +0.000 C 
ATOM     17  S   UNL     1       3.402   7.559  17.759  0.00  0.00    +0.000 S 
BRANCH  16  18
ATOM     18  N   UNL     1       2.123   7.763  20.167  0.00  0.00    +0.000 N 
ATOM     19  H   UNL     1       2.581   7.462  21.020  0.00  0.00    +0.000 HD
BRANCH  18  20
ATOM     20  C   UNL     1       1.264   8.869  20.325  0.00  0.00    +0.000 A 
ATOM     21  C   UNL     1       0.759   9.428  19.138  0.00  0.00    +0.000 A 
ATOM     22  C   UNL     1      -0.208  10.439  19.168  0.00  0.00    +0.000 A 
ATOM     23  C   UNL     1      -0.680  10.909  20.388  0.00  0.00    +0.000 A 
ATOM     24  C   UNL     1      -0.183  10.371  21.573  0.00  0.00    +0.000 A 
ATOM     25  C   UNL     1       0.774   9.353  21.542  0.00  0.00    +0.000 A 
ATOM     26  F   UNL     1       1.111   8.799  22.711  0.00  0.00    +0.000 F 
ENDBRANCH  18  20
ENDBRANCH  16  18
ENDBRANCH  14  16
ENDBRANCH   6  14
TORSDOF 5
ENDMDL
MODEL 4
REMARK VINA RESULT:      -6.6      1.964      2.483
REMARK  Name = 
REMARK  7 active torsions:
REMARK  status: ('A' for Active; 'I' for Inactive)
REMARK    1  A    between atoms: C_1  and  C_2
REMARK    2  A    between atoms: C_5  and  C_6
REMARK    3  A    between atoms: N_7  and  C_8
REMARK    4  A    between atoms: C_13  and  N_14
REMARK    5  A    between atoms: N_14  and  C_15
REMARK    6  A    between atoms: C_15  and  N_17
REMARK    7  A    between atoms: N_17  and  C_18
REMARK                            x       y       z     vdW  Elec       q    Type
REMARK                         _______ _______ _______ _____ _____    ______ ____
ROOT
ATOM      1  C   UNL     1       3.987   4.055  17.534  0.00  0.00    +0.000 A 
ATOM      2  C   UNL     1       3.925   2.644  17.511  0.00  0.00    +0.000 A 
ATOM      3  C   UNL     1       2.772   1.922  17.851  0.00  0.00    +0.000 A 
ATOM      4  C   UNL     1       1.613   2.598  18.172  0.00  0.00    +0.000 A 
ATOM      5  C   UNL     1       1.616   3.986  18.129  0.00  0.00    +0.000 A 
ATOM      6  C   UNL     1       2.780   4.730  17.807  0.00  0.00    +0.000 A 
ENDROOT
BRANCH   1  13
ATOM      7  C   UNL     1       6.176   5.385  19.525  0.00  0.00    +0.000 C 
ATOM      8  C   UNL     1       6.223   5.233  18.045  0.00  0.00    +0.000 A 
ATOM      9  C   UNL     1       7.258   5.761  17.281  0.00  0.00    +0.000 A 
ATOM     10  C   UNL     1       6.943   5.558  15.941  0.00  0.00    +0.000 A 
ATOM     11  C   UNL     1       5.752   4.864  15.880  0.00  0.00    +0.000 A 
ATOM     12  C   UNL     1       5.159   4.349  14.604  0.00  0.00    +0.000 C 
ATOM     13  N   UNL     1       5.262   4.667  17.189  0.00  0.00    +0.000 N 
ENDBRANCH   1  13
BRANCH   6  14
ATOM     14  N   UNL     1       2.640   6.131  17.893  0.00  0.00    +0.000 N 
ATOM     15  H   UNL     1       2.775   6.671  17.044  0.00  0.00    +0.000 HD
BRANCH  14  16
ATOM     16  C   UNL     1       2.355   6.847  19.054  0.00  0.00    +0.000 C 
ATOM     17  S   UNL     1       2.410   6.060  20.523  0.00  0.00    +0.000 S 
BRANCH  16  18
ATOM     18  N   UNL     1       2.250   8.209  18.840  0.00  0.00    +0.000 N 
ATOM     19  H   UNL     1       3.055   8.589  18.356  0.00  0.00    +0.000 HD
BRANCH  18  20
ATOM     20  C   UNL     1       1.234   9.149  19.110  0.00  0.00    +0.000 A 
ATOM     21  C   UNL     1       0.479   9.572  18.002  0.00  0.00    +0.000 A 
ATOM     22  C   UNL     1      -0.641  10.395  18.162  0.00  0.00    +0.000 A 
ATOM     23  C   UNL     1      -1.020  10.810  19.434  0.00  0.00    +0.000 A 
ATOM     24  C   UNL     1      -0.277  10.406  20.540  0.00  0.00    +0.000 A 
ATOM     25  C   UNL     1       0.836   9.574  20.381  0.00  0.00    +0.000 A 
ATOM     26  F   UNL     1       1.423   9.124  21.495  0.00  0.00    +0.000 F 
ENDBRANCH  18  20
ENDBRANCH  16  18
ENDBRANCH  14  16
ENDBRANCH   6  14
TORSDOF 5
ENDMDL
MODEL 5
REMARK VINA RESULT:      -6.6      1.856      3.672
REMARK  Name = 
REMARK  7 active torsions:
REMARK  status: ('A' for Active; 'I' for Inactive)
REMARK    1  A    between atoms: C_1  and  C_2
REMARK    2  A    between atoms: C_5  and  C_6
REMARK    3  A    between atoms: N_7  and  C_8
REMARK    4  A    between atoms: C_13  and  N_14
REMARK    5  A    between atoms: N_14  and  C_15
REMARK    6  A    between atoms: C_15  and  N_17
REMARK    7  A    between atoms: N_17  and  C_18
REMARK                            x       y       z     vdW  Elec       q    Type
REMARK                         _______ _______ _______ _____ _____    ______ ____
ROOT
ATOM      1  C   UNL     1       4.016   4.384  17.829  0.00  0.00    +0.000 A 
ATOM      2  C   UNL     1       4.663   3.938  16.655  0.00  0.00    +0.000 A 
ATOM      3  C   UNL     1       5.594   4.716  15.951  0.00  0.00    +0.000 A 
ATOM      4  C   UNL     1       5.955   5.955  16.436  0.00  0.00    +0.000 A 
ATOM      5  C   UNL     1       5.397   6.393  17.631  0.00  0.00    +0.000 A 
ATOM      6  C   UNL     1       4.439   5.627  18.343  0.00  0.00    +0.000 A 
ENDROOT
BRANCH   1  13
ATOM      7  C   UNL     1       4.536   2.085  20.058  0.00  0.00    +0.000 C 
ATOM      8  C   UNL     1       3.259   2.493  19.409  0.00  0.00    +0.000 A 
ATOM      9  C   UNL     1       2.065   1.823  19.646  0.00  0.00    +0.000 A 
ATOM     10  C   UNL     1       1.100   2.364  18.802  0.00  0.00    +0.000 A 
ATOM     11  C   UNL     1       1.681   3.393  18.090  0.00  0.00    +0.000 A 
ATOM     12  C   UNL     1       0.916   4.299  17.173  0.00  0.00    +0.000 C 
ATOM     13  N   UNL     1       3.047   3.482  18.433  0.00  0.00    +0.000 N 
ENDBRANCH   1  13
BRANCH   6  14
ATOM     14  N   UNL     1       3.904   6.250  19.489  0.00  0.00    +0.000 N 
ATOM     15  H   UNL     1       4.519   6.373  20.288  0.00  0.00    +0.000 HD
BRANCH  14  16
ATOM     16  C   UNL     1       2.590   6.692  19.634  0.00  0.00    +0.000 C 
ATOM     17  S   UNL     1       1.568   5.865  20.659  0.00  0.00    +0.000 S 
BRANCH  16  18
ATOM     18  N   UNL     1       2.360   7.915  19.033  0.00  0.00    +0.000 N 
ATOM     19  H   UNL     1       3.007   8.105  18.276  0.00  0.00    +0.000 HD
BRANCH  18  20
ATOM     20  C   UNL     1       1.384   8.914  19.229  0.00  0.00    +0.000 A 
ATOM     21  C   UNL     1       0.681   9.318  18.080  0.00  0.00    +0.000 A 
ATOM     22  C   UNL     1      -0.403  10.198  18.168  0.00  0.00    +0.000 A 
ATOM     23  C   UNL     1      -0.796  10.692  19.407  0.00  0.00    +0.000 A 
ATOM     24  C   UNL     1      -0.103  10.307  20.553  0.00  0.00    +0.000 A 
ATOM     25  C   UNL     1       0.972   9.418  20.466  0.00  0.00    +0.000 A 
ATOM     26  F   UNL     1       1.506   8.996  21.616  0.00  0.00    +0.000 F 
ENDBRANCH  18  20
ENDBRANCH  16  18
ENDBRANCH  14  16
ENDBRANCH   6  14
TORSDOF 5
ENDMDL
MODEL 6
REMARK VINA RESULT:      -6.6      2.580      6.410
REMARK  Name = 
REMARK  7 active torsions:
REMARK  status: ('A' for Active; 'I' for Inactive)
REMARK    1  A    between atoms: C_1  and  C_2
REMARK    2  A    between atoms: C_5  and  C_6
REMARK    3  A    between atoms: N_7  and  C_8
REMARK    4  A    between atoms: C_13  and  N_14
REMARK    5  A    between atoms: N_14  and  C_15
REMARK    6  A    between atoms: C_15  and  N_17
REMARK    7  A    between atoms: N_17  and  C_18
REMARK                            x       y       z     vdW  Elec       q    Type
REMARK                         _______ _______ _______ _____ _____    ______ ____
ROOT
ATOM      1  C   UNL     1       2.947   5.341  19.160  0.00  0.00    +0.000 A 
ATOM      2  C   UNL     1       1.858   4.442  19.113  0.00  0.00    +0.000 A 
ATOM      3  C   UNL     1       2.004   3.055  19.258  0.00  0.00    +0.000 A 
ATOM      4  C   UNL     1       3.249   2.521  19.514  0.00  0.00    +0.000 A 
ATOM      5  C   UNL     1       4.331   3.383  19.643  0.00  0.00    +0.000 A 
ATOM      6  C   UNL     1       4.203   4.786  19.479  0.00  0.00    +0.000 A 
ENDROOT
BRANCH   1  13
ATOM      7  C   UNL     1       1.199   7.309  21.056  0.00  0.00    +0.000 C 
ATOM      8  C   UNL     1       1.906   7.616  19.782  0.00  0.00    +0.000 A 
ATOM      9  C   UNL     1       1.818   8.862  19.171  0.00  0.00    +0.000 A 
ATOM     10  C   UNL     1       2.480   8.783  17.950  0.00  0.00    +0.000 A 
ATOM     11  C   UNL     1       3.016   7.517  17.833  0.00  0.00    +0.000 A 
ATOM     12  C   UNL     1       3.911   7.099  16.705  0.00  0.00    +0.000 C 
ATOM     13  N   UNL     1       2.649   6.751  18.960  0.00  0.00    +0.000 N 
ENDBRANCH   1  13
BRANCH   6  14
ATOM     14  N   UNL     1       5.410   5.512  19.555  0.00  0.00    +0.000 N 
ATOM     15  H   UNL     1       5.406   6.379  20.083  0.00  0.00    +0.000 HD
BRANCH  14  16
ATOM     16  C   UNL     1       6.611   5.154  18.944  0.00  0.00    +0.000 C 
ATOM     17  S   UNL     1       8.046   5.650  19.634  0.00  0.00    +0.000 S 
BRANCH  16  18
ATOM     18  N   UNL     1       6.448   4.241  17.920  0.00  0.00    +0.000 N 
ATOM     19  H   UNL     1       6.408   3.285  18.254  0.00  0.00    +0.000 HD
BRANCH  18  20
ATOM     20  C   UNL     1       6.275   4.380  16.527  0.00  0.00    +0.000 A 
ATOM     21  C   UNL     1       7.413   4.783  15.806  0.00  0.00    +0.000 A 
ATOM     22  C   UNL     1       7.407   4.822  14.407  0.00  0.00    +0.000 A 
ATOM     23  C   UNL     1       6.259   4.464  13.710  0.00  0.00    +0.000 A 
ATOM     24  C   UNL     1       5.121   4.071  14.411  0.00  0.00    +0.000 A 
ATOM     25  C   UNL     1       5.132   4.020  15.808  0.00  0.00    +0.000 A 
ATOM     26  F   UNL     1       4.049   3.513  16.407  0.00  0.00    +0.000 F 
ENDBRANCH  18  20
ENDBRANCH  16  18
ENDBRANCH  14  16
ENDBRANCH   6  14
TORSDOF 5
ENDMDL
MODEL 7
REMARK VINA RESULT:      -6.6      2.690      6.445
REMARK  Name = 
REMARK  7 active torsions:
REMARK  status: ('A' for Active; 'I' for Inactive)
REMARK    1  A    between atoms: C_1  and  C_2
REMARK    2  A    between atoms: C_5  and  C_6
REMARK    3  A    between atoms: N_7  and  C_8
REMARK    4  A    between atoms: C_13  and  N_14
REMARK    5  A    between atoms: N_14  and  C_15
REMARK    6  A    between atoms: C_15  and  N_17
REMARK    7  A    between atoms: N_17  and  C_18
REMARK                            x       y       z     vdW  Elec       q    Type
REMARK                         _______ _______ _______ _____ _____    ______ ____
ROOT
ATOM      1  C   UNL     1       2.984   5.035  18.950  0.00  0.00    +0.000 A 
ATOM      2  C   UNL     1       1.908   4.140  18.755  0.00  0.00    +0.000 A 
ATOM      3  C   UNL     1       2.046   2.747  18.833  0.00  0.00    +0.000 A 
ATOM      4  C   UNL     1       3.267   2.199  19.168  0.00  0.00    +0.000 A 
ATOM      5  C   UNL     1       4.329   3.052  19.442  0.00  0.00    +0.000 A 
ATOM      6  C   UNL     1       4.210   4.462  19.348  0.00  0.00    +0.000 A 
ENDROOT
BRANCH   1  13
ATOM      7  C   UNL     1       4.027   7.064  16.643  0.00  0.00    +0.000 C 
ATOM      8  C   UNL     1       3.133   7.338  17.803  0.00  0.00    +0.000 A 
ATOM      9  C   UNL     1       2.677   8.619  18.095  0.00  0.00    +0.000 A 
ATOM     10  C   UNL     1       1.977   8.555  19.297  0.00  0.00    +0.000 A 
ATOM     11  C   UNL     1       1.957   7.240  19.713  0.00  0.00    +0.000 A 
ATOM     12  C   UNL     1       1.182   6.761  20.903  0.00  0.00    +0.000 C 
ATOM     13  N   UNL     1       2.699   6.454  18.805  0.00  0.00    +0.000 N 
ENDBRANCH   1  13
BRANCH   6  14
ATOM     14  N   UNL     1       5.402   5.181  19.573  0.00  0.00    +0.000 N 
ATOM     15  H   UNL     1       5.438   5.791  20.384  0.00  0.00    +0.000 HD
BRANCH  14  16
ATOM     16  C   UNL     1       6.533   5.150  18.760  0.00  0.00    +0.000 C 
ATOM     17  S   UNL     1       7.894   5.988  19.236  0.00  0.00    +0.000 S 
BRANCH  16  18
ATOM     18  N   UNL     1       6.434   4.237  17.727  0.00  0.00    +0.000 N 
ATOM     19  H   UNL     1       6.431   3.278  18.054  0.00  0.00    +0.000 HD
BRANCH  18  20
ATOM     20  C   UNL     1       6.284   4.377  16.332  0.00  0.00    +0.000 A 
ATOM     21  C   UNL     1       7.433   4.779  15.629  0.00  0.00    +0.000 A 
ATOM     22  C   UNL     1       7.449   4.820  14.230  0.00  0.00    +0.000 A 
ATOM     23  C   UNL     1       6.311   4.463  13.514  0.00  0.00    +0.000 A 
ATOM     24  C   UNL     1       5.163   4.071  14.197  0.00  0.00    +0.000 A 
ATOM     25  C   UNL     1       5.151   4.018  15.594  0.00  0.00    +0.000 A 
ATOM     26  F   UNL     1       4.059   3.513  16.175  0.00  0.00    +0.000 F 
ENDBRANCH  18  20
ENDBRANCH  16  18
ENDBRANCH  14  16
ENDBRANCH   6  14
TORSDOF 5
ENDMDL
MODEL 8
REMARK VINA RESULT:      -6.5      2.906      7.847
REMARK  Name = 
REMARK  7 active torsions:
REMARK  status: ('A' for Active; 'I' for Inactive)
REMARK    1  A    between atoms: C_1  and  C_2
REMARK    2  A    between atoms: C_5  and  C_6
REMARK    3  A    between atoms: N_7  and  C_8
REMARK    4  A    between atoms: C_13  and  N_14
REMARK    5  A    between atoms: N_14  and  C_15
REMARK    6  A    between atoms: C_15  and  N_17
REMARK    7  A    between atoms: N_17  and  C_18
REMARK                            x       y       z     vdW  Elec       q    Type
REMARK                         _______ _______ _______ _____ _____    ______ ____
ROOT
ATOM      1  C   UNL     1      -0.242  11.679  18.877  0.00  0.00    +0.000 A 
ATOM      2  C   UNL     1      -1.387  12.152  18.197  0.00  0.00    +0.000 A 
ATOM      3  C   UNL     1      -2.153  11.351  17.338  0.00  0.00    +0.000 A 
ATOM      4  C   UNL     1      -1.828  10.020  17.173  0.00  0.00    +0.000 A 
ATOM      5  C   UNL     1      -0.755   9.502  17.886  0.00  0.00    +0.000 A 
ATOM      6  C   UNL     1       0.041  10.304  18.743  0.00  0.00    +0.000 A 
ENDROOT
BRANCH   1  13
ATOM      7  C   UNL     1       2.619  13.095  18.298  0.00  0.00    +0.000 C 
ATOM      8  C   UNL     1       1.705  13.263  19.462  0.00  0.00    +0.000 A 
ATOM      9  C   UNL     1       2.045  14.047  20.559  0.00  0.00    +0.000 A 
ATOM     10  C   UNL     1       1.045  13.894  21.515  0.00  0.00    +0.000 A 
ATOM     11  C   UNL     1       0.073  13.067  20.992  0.00  0.00    +0.000 A 
ATOM     12  C   UNL     1      -1.224  12.776  21.683  0.00  0.00    +0.000 C 
ATOM     13  N   UNL     1       0.473  12.633  19.710  0.00  0.00    +0.000 N 
ENDBRANCH   1  13
BRANCH   6  14
ATOM     14  N   UNL     1       1.145   9.647  19.326  0.00  0.00    +0.000 N 
ATOM     15  H   UNL     1       2.044   9.734  18.861  0.00  0.00    +0.000 HD
BRANCH  14  16
ATOM     16  C   UNL     1       1.107   8.864  20.477  0.00  0.00    +0.000 C 
ATOM     17  S   UNL     1      -0.143   9.078  21.560  0.00  0.00    +0.000 S 
BRANCH  16  18
ATOM     18  N   UNL     1       2.040   7.844  20.471  0.00  0.00    +0.000 N 
ATOM     19  H   UNL     1       2.833   8.038  21.072  0.00  0.00    +0.000 HD
BRANCH  18  20
ATOM     20  C   UNL     1       2.081   6.582  19.842  0.00  0.00    +0.000 A 
ATOM     21  C   UNL     1       1.617   5.499  20.610  0.00  0.00    +0.000 A 
ATOM     22  C   UNL     1       1.478   4.224  20.052  0.00  0.00    +0.000 A 
ATOM     23  C   UNL     1       1.807   4.012  18.718  0.00  0.00    +0.000 A 
ATOM     24  C   UNL     1       2.276   5.073  17.947  0.00  0.00    +0.000 A 
ATOM     25  C   UNL     1       2.403   6.351  18.502  0.00  0.00    +0.000 A 
ATOM     26  F   UNL     1       2.737   7.343  17.672  0.00  0.00    +0.000 F 
ENDBRANCH  18  20
ENDBRANCH  16  18
ENDBRANCH  14  16
ENDBRANCH   6  14
TORSDOF 5
ENDMDL
MODEL 9
REMARK VINA RESULT:      -6.5      3.454      7.396
REMARK  Name = 
REMARK  7 active torsions:
REMARK  status: ('A' for Active; 'I' for Inactive)
REMARK    1  A    between atoms: C_1  and  C_2
REMARK    2  A    between atoms: C_5  and  C_6
REMARK    3  A    between atoms: N_7  and  C_8
REMARK    4  A    between atoms: C_13  and  N_14
REMARK    5  A    between atoms: N_14  and  C_15
REMARK    6  A    between atoms: C_15  and  N_17
REMARK    7  A    between atoms: N_17  and  C_18
REMARK                            x       y       z     vdW  Elec       q    Type
REMARK                         _______ _______ _______ _____ _____    ______ ____
ROOT
ATOM      1  C   UNL     1       2.997   5.393  18.310  0.00  0.00    +0.000 A 
ATOM      2  C   UNL     1       2.087   6.443  18.565  0.00  0.00    +0.000 A 
ATOM      3  C   UNL     1       2.327   7.773  18.189  0.00  0.00    +0.000 A 
ATOM      4  C   UNL     1       3.471   8.088  17.487  0.00  0.00    +0.000 A 
ATOM      5  C   UNL     1       4.351   7.067  17.151  0.00  0.00    +0.000 A 
ATOM      6  C   UNL     1       4.132   5.722  17.541  0.00  0.00    +0.000 A 
ENDROOT
BRANCH   1  13
ATOM      7  C   UNL     1       2.724   2.648  16.601  0.00  0.00    +0.000 C 
ATOM      8  C   UNL     1       2.522   2.872  18.060  0.00  0.00    +0.000 A 
ATOM      9  C   UNL     1       2.077   1.862  18.906  0.00  0.00    +0.000 A 
ATOM     10  C   UNL     1       1.873   2.421  20.163  0.00  0.00    +0.000 A 
ATOM     11  C   UNL     1       2.240   3.750  20.107  0.00  0.00    +0.000 A 
ATOM     12  C   UNL     1       2.282   4.648  21.306  0.00  0.00    +0.000 C 
ATOM     13  N   UNL     1       2.629   4.069  18.788  0.00  0.00    +0.000 N 
ENDBRANCH   1  13
BRANCH   6  14
ATOM     14  N   UNL     1       5.162   4.822  17.198  0.00  0.00    +0.000 N 
ATOM     15  H   UNL     1       4.942   3.830  17.199  0.00  0.00    +0.000 HD
BRANCH  14  16
ATOM     16  C   UNL     1       6.473   5.173  16.879  0.00  0.00    +0.000 C 
ATOM     17  S   UNL     1       7.679   4.891  17.996  0.00  0.00    +0.000 S 
BRANCH  16  18
ATOM     18  N   UNL     1       6.629   5.542  15.556  0.00  0.00    +0.000 N 
ATOM     19  H   UNL     1       6.835   6.528  15.449  0.00  0.00    +0.000 HD
BRANCH  18  20
ATOM     20  C   UNL     1       6.612   4.815  14.347  0.00  0.00    +0.000 A 
ATOM     21  C   UNL     1       5.472   4.023  14.124  0.00  0.00    +0.000 A 
ATOM     22  C   UNL     1       5.275   3.366  12.905  0.00  0.00    +0.000 A 
ATOM     23  C   UNL     1       6.220   3.488  11.892  0.00  0.00    +0.000 A 
ATOM     24  C   UNL     1       7.358   4.263  12.102  0.00  0.00    +0.000 A 
ATOM     25  C   UNL     1       7.549   4.929  13.316  0.00  0.00    +0.000 A 
ATOM     26  F   UNL     1       8.597   5.754  13.399  0.00  0.00    +0.000 F 
ENDBRANCH  18  20
ENDBRANCH  16  18
ENDBRANCH  14  16
ENDBRANCH   6  14
TORSDOF 5
ENDMDL
