MODEL 1
REMARK VINA RESULT:      -7.0      0.000      0.000
REMARK  Name = 
REMARK  12 active torsions:
REMARK  status: ('A' for Active; 'I' for Inactive)
REMARK    1  A    between atoms: C_1  and  C_2
REMARK    2  A    between atoms: C_2  and  O_3
REMARK    3  A    between atoms: O_3  and  C_4
REMARK    4  A    between atoms: C_4  and  C_6
REMARK    5  A    between atoms: C_7  and  C_8
REMARK    6  A    between atoms: C_8  and  S_9
REMARK    7  A    between atoms: S_9  and  C_10
REMARK    8  A    between atoms: C_15  and  C_16
REMARK    9  A    between atoms: N_19  and  C_20
REMARK   10  A    between atoms: C_24  and  N_25
REMARK   11  A    between atoms: C_26  and  C_27
REMARK   12  A    between atoms: C_29  and  C_30
REMARK                            x       y       z     vdW  Elec       q    Type
REMARK                         _______ _______ _______ _____ _____    ______ ____
ROOT
ATOM      1  C   UNL     1       2.589   5.321  17.918  0.00  0.00    +0.000 C 
ATOM      2  C   UNL     1       2.908   6.584  18.288  0.00  0.00    +0.000 C 
ATOM      3  O   UNL     1       4.191   7.090  18.049  0.00  0.00    +0.000 OA
ATOM      4  C   UNL     1       5.085   6.432  17.214  0.00  0.00    +0.000 C 
ATOM      5  C   UNL     1       4.853   5.172  16.791  0.00  0.00    +0.000 C 
ATOM      6  C   UNL     1       3.621   4.417  17.259  0.00  0.00    +0.000 C 
ENDROOT
BRANCH   6   7
ATOM      7  C   UNL     1       4.029   3.278  18.202  0.00  0.00    +0.000 A 
ATOM      8  C   UNL     1       3.734   1.938  17.888  0.00  0.00    +0.000 A 
ATOM      9  C   UNL     1       4.091   0.908  18.756  0.00  0.00    +0.000 A 
ATOM     10  C   UNL     1       4.751   1.198  19.947  0.00  0.00    +0.000 A 
ATOM     11  C   UNL     1       5.058   2.519  20.268  0.00  0.00    +0.000 A 
ATOM     12  C   UNL     1       4.700   3.555  19.402  0.00  0.00    +0.000 A 
ENDBRANCH   6   7
BRANCH   4  13
ATOM     13  N   UNL     1       6.201   7.182  16.921  0.00  0.00    +0.000 N 
ATOM     14  H   UNL     1       6.203   8.071  17.412  0.00  0.00    +0.000 HD
ATOM     15  H   UNL     1       7.089   6.689  16.986  0.00  0.00    +0.000 HD
ENDBRANCH   4  13
BRANCH   1  16
ATOM     16  C   UNL     1       1.250   4.680  18.035  0.00  0.00    +0.000 C 
ATOM     17  O   UNL     1       0.564   4.390  17.066  0.00  0.00    +0.000 OA
BRANCH  16  18
ATOM     18  O   UNL     1       0.907   4.459  19.322  0.00  0.00    +0.000 OA
BRANCH  18  20
ATOM     19  C   UNL     1       1.447   2.792  20.995  0.00  0.00    +0.000 C 
ATOM     20  C   UNL     1       0.698   3.095  19.710  0.00  0.00    +0.000 C 
ENDBRANCH  18  20
ENDBRANCH  16  18
ENDBRANCH   1  16
BRANCH   5  21
ATOM     21  C   UNL     1       5.755   4.506  15.917  0.00  0.00    +0.000 C 
ATOM     22  N   UNL     1       6.488   3.944  15.207  0.00  0.00    +0.000 NA
ENDBRANCH   5  21
BRANCH   2  23
ATOM     23  C   UNL     1       2.041   7.594  19.021  0.00  0.00    +0.000 C 
BRANCH  23  24
ATOM     24  S   UNL     1       2.156   9.227  18.225  0.00  0.00    +0.000 S 
BRANCH  24  25
ATOM     25  C   UNL     1       0.468   9.834  18.375  0.00  0.00    +0.000 A 
ATOM     26  N   UNL     1      -0.323   9.770  17.272  0.00  0.00    +0.000 NA
ATOM     27  C   UNL     1      -1.592  10.266  17.350  0.00  0.00    +0.000 A 
ATOM     28  C   UNL     1      -2.112  10.847  18.505  0.00  0.00    +0.000 A 
ATOM     29  C   UNL     1      -1.298  10.872  19.639  0.00  0.00    +0.000 A 
ATOM     30  C   UNL     1       0.007  10.367  19.580  0.00  0.00    +0.000 A 
ATOM     31  C   UNL     1      -3.525  11.374  18.563  0.00  0.00    +0.000 C 
ATOM     32  N   UNL     1      -4.102  11.632  17.236  0.00  0.00    +0.000 NA
ATOM     33  C   UNL     1      -5.517  11.984  17.356  0.00  0.00    +0.000 C 
ATOM     34  C   UNL     1      -3.917  10.458  16.371  0.00  0.00    +0.000 C 
ATOM     35  C   UNL     1      -2.424  10.239  16.092  0.00  0.00    +0.000 C 
BRANCH  30  36
ATOM     36  C   UNL     1       0.811  10.427  20.760  0.00  0.00    +0.000 C 
ATOM     37  N   UNL     1       1.427  10.440  21.745  0.00  0.00    +0.000 NA
ENDBRANCH  30  36
ENDBRANCH  24  25
ENDBRANCH  23  24
ENDBRANCH   2  23
TORSDOF 10
ENDMDL
MODEL 2
REMARK VINA RESULT:      -6.6      3.122      9.559
REMARK  Name = 
REMARK  12 active torsions:
REMARK  status: ('A' for Active; 'I' for Inactive)
REMARK    1  A    between atoms: C_1  and  C_2
REMARK    2  A    between atoms: C_2  and  O_3
REMARK    3  A    between atoms: O_3  and  C_4
REMARK    4  A    between atoms: C_4  and  C_6
REMARK    5  A    between atoms: C_7  and  C_8
REMARK    6  A    between atoms: C_8  and  S_9
REMARK    7  A    between atoms: S_9  and  C_10
REMARK    8  A    between atoms: C_15  and  C_16
REMARK    9  A    between atoms: N_19  and  C_20
REMARK   10  A    between atoms: C_24  and  N_25
REMARK   11  A    between atoms: C_26  and  C_27
REMARK   12  A    between atoms: C_29  and  C_30
REMARK                            x       y       z     vdW  Elec       q    Type
REMARK                         _______ _______ _______ _____ _____    ______ ____
ROOT
ATOM      1  C   UNL     1      -0.227  10.657  19.755  0.00  0.00    +0.000 C 
ATOM      2  C   UNL     1       0.549   9.654  20.227  0.00  0.00    +0.000 C 
ATOM      3  O   UNL     1       0.630   9.406  21.602  0.00  0.00    +0.000 OA
ATOM      4  C   UNL     1      -0.258   9.991  22.495  0.00  0.00    +0.000 C 
ATOM      5  C   UNL     1      -1.074  10.996  22.118  0.00  0.00    +0.000 C 
ATOM      6  C   UNL     1      -1.009  11.552  20.706  0.00  0.00    +0.000 C 
ENDROOT
BRANCH   6   7
ATOM      7  C   UNL     1      -0.424  12.969  20.725  0.00  0.00    +0.000 A 
ATOM      8  C   UNL     1      -1.218  14.084  20.396  0.00  0.00    +0.000 A 
ATOM      9  C   UNL     1      -0.677  15.369  20.397  0.00  0.00    +0.000 A 
ATOM     10  C   UNL     1       0.660  15.561  20.732  0.00  0.00    +0.000 A 
ATOM     11  C   UNL     1       1.457  14.469  21.070  0.00  0.00    +0.000 A 
ATOM     12  C   UNL     1       0.920  13.180  21.067  0.00  0.00    +0.000 A 
ENDBRANCH   6   7
BRANCH   4  13
ATOM     13  N   UNL     1      -0.174   9.462  23.764  0.00  0.00    +0.000 N 
ATOM     14  H   UNL     1      -0.410  10.144  24.478  0.00  0.00    +0.000 HD
ATOM     15  H   UNL     1      -0.641   8.567  23.896  0.00  0.00    +0.000 HD
ENDBRANCH   4  13
BRANCH   1  16
ATOM     16  C   UNL     1      -0.470  10.985  18.323  0.00  0.00    +0.000 C 
ATOM     17  O   UNL     1      -0.104  12.032  17.809  0.00  0.00    +0.000 OA
BRANCH  16  18
ATOM     18  O   UNL     1      -1.122   9.993  17.681  0.00  0.00    +0.000 OA
BRANCH  18  20
ATOM     19  C   UNL     1      -2.630  10.271  15.804  0.00  0.00    +0.000 C 
ATOM     20  C   UNL     1      -2.485  10.244  17.315  0.00  0.00    +0.000 C 
ENDBRANCH  18  20
ENDBRANCH  16  18
ENDBRANCH   1  16
BRANCH   5  21
ATOM     21  C   UNL     1      -2.001  11.580  23.025  0.00  0.00    +0.000 C 
ATOM     22  N   UNL     1      -2.748  12.071  23.771  0.00  0.00    +0.000 NA
ENDBRANCH   5  21
BRANCH   2  23
ATOM     23  C   UNL     1       1.454   8.718  19.441  0.00  0.00    +0.000 C 
BRANCH  23  24
ATOM     24  S   UNL     1       1.827   7.228  20.417  0.00  0.00    +0.000 S 
BRANCH  24  25
ATOM     25  C   UNL     1       2.707   6.210  19.220  0.00  0.00    +0.000 A 
ATOM     26  N   UNL     1       3.609   6.828  18.414  0.00  0.00    +0.000 NA
ATOM     27  C   UNL     1       4.255   6.084  17.469  0.00  0.00    +0.000 A 
ATOM     28  C   UNL     1       4.025   4.722  17.284  0.00  0.00    +0.000 A 
ATOM     29  C   UNL     1       3.121   4.097  18.145  0.00  0.00    +0.000 A 
ATOM     30  C   UNL     1       2.449   4.841  19.122  0.00  0.00    +0.000 A 
ATOM     31  C   UNL     1       4.766   3.925  16.239  0.00  0.00    +0.000 C 
ATOM     32  N   UNL     1       5.365   4.762  15.188  0.00  0.00    +0.000 NA
ATOM     33  C   UNL     1       6.198   3.948  14.303  0.00  0.00    +0.000 C 
ATOM     34  C   UNL     1       6.140   5.853  15.796  0.00  0.00    +0.000 C 
ATOM     35  C   UNL     1       5.203   6.810  16.546  0.00  0.00    +0.000 C 
BRANCH  30  36
ATOM     36  C   UNL     1       1.521   4.164  19.972  0.00  0.00    +0.000 C 
ATOM     37  N   UNL     1       0.812   3.586  20.688  0.00  0.00    +0.000 NA
ENDBRANCH  30  36
ENDBRANCH  24  25
ENDBRANCH  23  24
ENDBRANCH   2  23
TORSDOF 10
ENDMDL
MODEL 3
REMARK VINA RESULT:      -6.5      2.782      9.221
REMARK  Name = 
REMARK  12 active torsions:
REMARK  status: ('A' for Active; 'I' for Inactive)
REMARK    1  A    between atoms: C_1  and  C_2
REMARK    2  A    between atoms: C_2  and  O_3
REMARK    3  A    between atoms: O_3  and  C_4
REMARK    4  A    between atoms: C_4  and  C_6
REMARK    5  A    between atoms: C_7  and  C_8
REMARK    6  A    between atoms: C_8  and  S_9
REMARK    7  A    between atoms: S_9  and  C_10
REMARK    8  A    between atoms: C_15  and  C_16
REMARK    9  A    between atoms: N_19  and  C_20
REMARK   10  A    between atoms: C_24  and  N_25
REMARK   11  A    between atoms: C_26  and  C_27
REMARK   12  A    between atoms: C_29  and  C_30
REMARK                            x       y       z     vdW  Elec       q    Type
REMARK                         _______ _______ _______ _____ _____    ______ ____
ROOT
ATOM      1  C   UNL     1       0.658   9.699  19.745  0.00  0.00    +0.000 C 
ATOM      2  C   UNL     1       1.289   8.833  20.573  0.00  0.00    +0.000 C 
ATOM      3  O   UNL     1       1.102   8.912  21.959  0.00  0.00    +0.000 OA
ATOM      4  C   UNL     1       0.091   9.689  22.508  0.00  0.00    +0.000 C 
ATOM      5  C   UNL     1      -0.596  10.579  21.763  0.00  0.00    +0.000 C 
ATOM      6  C   UNL     1      -0.246  10.791  20.301  0.00  0.00    +0.000 C 
ENDROOT
BRANCH   6   7
ATOM      7  C   UNL     1       0.388  12.174  20.106  0.00  0.00    +0.000 A 
ATOM      8  C   UNL     1      -0.250  13.160  19.331  0.00  0.00    +0.000 A 
ATOM      9  C   UNL     1       0.338  14.410  19.143  0.00  0.00    +0.000 A 
ATOM     10  C   UNL     1       1.568  14.695  19.729  0.00  0.00    +0.000 A 
ATOM     11  C   UNL     1       2.209  13.734  20.507  0.00  0.00    +0.000 A 
ATOM     12  C   UNL     1       1.624  12.479  20.695  0.00  0.00    +0.000 A 
ENDBRANCH   6   7
BRANCH   4  13
ATOM     13  N   UNL     1      -0.085   9.469  23.856  0.00  0.00    +0.000 N 
ATOM     14  H   UNL     1      -1.063   9.342  24.098  0.00  0.00    +0.000 HD
ATOM     15  H   UNL     1       0.522   8.764  24.267  0.00  0.00    +0.000 HD
ENDBRANCH   4  13
BRANCH   1  16
ATOM     16  C   UNL     1       0.700   9.684  18.257  0.00  0.00    +0.000 C 
ATOM     17  O   UNL     1       1.681  10.033  17.616  0.00  0.00    +0.000 OA
BRANCH  16  18
ATOM     18  O   UNL     1      -0.455   9.236  17.723  0.00  0.00    +0.000 OA
BRANCH  18  20
ATOM     19  C   UNL     1      -2.799   9.852  17.708  0.00  0.00    +0.000 C 
ATOM     20  C   UNL     1      -1.392  10.227  17.281  0.00  0.00    +0.000 C 
ENDBRANCH  18  20
ENDBRANCH  16  18
ENDBRANCH   1  16
BRANCH   5  21
ATOM     21  C   UNL     1      -1.648  11.358  22.319  0.00  0.00    +0.000 C 
ATOM     22  N   UNL     1      -2.511  11.983  22.787  0.00  0.00    +0.000 NA
ENDBRANCH   5  21
BRANCH   2  23
ATOM     23  C   UNL     1       2.281   7.740  20.209  0.00  0.00    +0.000 C 
BRANCH  23  24
ATOM     24  S   UNL     1       1.407   6.185  19.846  0.00  0.00    +0.000 S 
BRANCH  24  25
ATOM     25  C   UNL     1       2.497   5.420  18.634  0.00  0.00    +0.000 A 
ATOM     26  N   UNL     1       3.510   6.177  18.135  0.00  0.00    +0.000 NA
ATOM     27  C   UNL     1       4.320   5.632  17.181  0.00  0.00    +0.000 A 
ATOM     28  C   UNL     1       4.151   4.341  16.685  0.00  0.00    +0.000 A 
ATOM     29  C   UNL     1       3.128   3.566  17.235  0.00  0.00    +0.000 A 
ATOM     30  C   UNL     1       2.286   4.106  18.215  0.00  0.00    +0.000 A 
ATOM     31  C   UNL     1       5.074   3.763  15.640  0.00  0.00    +0.000 C 
ATOM     32  N   UNL     1       5.824   4.788  14.899  0.00  0.00    +0.000 NA
ATOM     33  C   UNL     1       6.811   4.160  14.020  0.00  0.00    +0.000 C 
ATOM     34  C   UNL     1       6.464   5.720  15.839  0.00  0.00    +0.000 C 
ATOM     35  C   UNL     1       5.395   6.517  16.599  0.00  0.00    +0.000 C 
BRANCH  30  36
ATOM     36  C   UNL     1       1.241   3.282  18.740  0.00  0.00    +0.000 C 
ATOM     37  N   UNL     1       0.380   2.598  19.112  0.00  0.00    +0.000 NA
ENDBRANCH  30  36
ENDBRANCH  24  25
ENDBRANCH  23  24
ENDBRANCH   2  23
TORSDOF 10
ENDMDL
MODEL 4
REMARK VINA RESULT:      -6.5      3.198      9.584
REMARK  Name = 
REMARK  12 active torsions:
REMARK  status: ('A' for Active; 'I' for Inactive)
REMARK    1  A    between atoms: C_1  and  C_2
REMARK    2  A    between atoms: C_2  and  O_3
REMARK    3  A    between atoms: O_3  and  C_4
REMARK    4  A    between atoms: C_4  and  C_6
REMARK    5  A    between atoms: C_7  and  C_8
REMARK    6  A    between atoms: C_8  and  S_9
REMARK    7  A    between atoms: S_9  and  C_10
REMARK    8  A    between atoms: C_15  and  C_16
REMARK    9  A    between atoms: N_19  and  C_20
REMARK   10  A    between atoms: C_24  and  N_25
REMARK   11  A    between atoms: C_26  and  C_27
REMARK   12  A    between atoms: C_29  and  C_30
REMARK                            x       y       z     vdW  Elec       q    Type
REMARK                         _______ _______ _______ _____ _____    ______ ____
ROOT
ATOM      1  C   UNL     1       0.093  10.496  19.933  0.00  0.00    +0.000 C 
ATOM      2  C   UNL     1       0.843   9.523  20.501  0.00  0.00    +0.000 C 
ATOM      3  O   UNL     1       0.816   9.323  21.886  0.00  0.00    +0.000 OA
ATOM      4  C   UNL     1      -0.150   9.923  22.684  0.00  0.00    +0.000 C 
ATOM      5  C   UNL     1      -0.947  10.900  22.207  0.00  0.00    +0.000 C 
ATOM      6  C   UNL     1      -0.776  11.408  20.787  0.00  0.00    +0.000 C 
ENDROOT
BRANCH   6   7
ATOM      7  C   UNL     1      -0.215  12.836  20.802  0.00  0.00    +0.000 A 
ATOM      8  C   UNL     1       1.038  13.115  21.379  0.00  0.00    +0.000 A 
ATOM      9  C   UNL     1       1.535  14.418  21.407  0.00  0.00    +0.000 A 
ATOM     10  C   UNL     1       0.793  15.458  20.855  0.00  0.00    +0.000 A 
ATOM     11  C   UNL     1      -0.445  15.197  20.271  0.00  0.00    +0.000 A 
ATOM     12  C   UNL     1      -0.949  13.894  20.244  0.00  0.00    +0.000 A 
ENDBRANCH   6   7
BRANCH   4  13
ATOM     13  N   UNL     1      -0.160   9.439  23.973  0.00  0.00    +0.000 N 
ATOM     14  H   UNL     1       0.776   9.243  24.315  0.00  0.00    +0.000 HD
ATOM     15  H   UNL     1      -0.723   9.969  24.634  0.00  0.00    +0.000 HD
ENDBRANCH   4  13
BRANCH   1  16
ATOM     16  C   UNL     1      -0.038  10.770  18.475  0.00  0.00    +0.000 C 
ATOM     17  O   UNL     1      -0.709  10.076  17.725  0.00  0.00    +0.000 OA
BRANCH  16  18
ATOM     18  O   UNL     1       0.657  11.865  18.103  0.00  0.00    +0.000 OA
BRANCH  18  20
ATOM     19  C   UNL     1       2.723  13.130  18.154  0.00  0.00    +0.000 C 
ATOM     20  C   UNL     1       2.086  11.753  18.095  0.00  0.00    +0.000 C 
ENDBRANCH  18  20
ENDBRANCH  16  18
ENDBRANCH   1  16
BRANCH   5  21
ATOM     21  C   UNL     1      -1.952  11.498  23.016  0.00  0.00    +0.000 C 
ATOM     22  N   UNL     1      -2.787  11.976  23.672  0.00  0.00    +0.000 NA
ENDBRANCH   5  21
BRANCH   2  23
ATOM     23  C   UNL     1       1.822   8.576  19.824  0.00  0.00    +0.000 C 
BRANCH  23  24
ATOM     24  S   UNL     1       1.602   6.882  20.450  0.00  0.00    +0.000 S 
BRANCH  24  25
ATOM     25  C   UNL     1       2.606   5.927  19.299  0.00  0.00    +0.000 A 
ATOM     26  N   UNL     1       3.353   6.615  18.397  0.00  0.00    +0.000 NA
ATOM     27  C   UNL     1       4.086   5.911  17.486  0.00  0.00    +0.000 A 
ATOM     28  C   UNL     1       4.096   4.520  17.429  0.00  0.00    +0.000 A 
ATOM     29  C   UNL     1       3.351   3.828  18.386  0.00  0.00    +0.000 A 
ATOM     30  C   UNL     1       2.593   4.531  19.330  0.00  0.00    +0.000 A 
ATOM     31  C   UNL     1       4.929   3.771  16.417  0.00  0.00    +0.000 C 
ATOM     32  N   UNL     1       5.329   4.598  15.270  0.00  0.00    +0.000 NA
ATOM     33  C   UNL     1       6.261   3.864  14.414  0.00  0.00    +0.000 C 
ATOM     34  C   UNL     1       5.919   5.859  15.742  0.00  0.00    +0.000 C 
ATOM     35  C   UNL     1       4.855   6.703  16.456  0.00  0.00    +0.000 C 
BRANCH  30  36
ATOM     36  C   UNL     1       1.832   3.783  20.282  0.00  0.00    +0.000 C 
ATOM     37  N   UNL     1       1.193   3.226  21.076  0.00  0.00    +0.000 NA
ENDBRANCH  30  36
ENDBRANCH  24  25
ENDBRANCH  23  24
ENDBRANCH   2  23
TORSDOF 10
ENDMDL
MODEL 5
REMARK VINA RESULT:      -6.5      2.487      3.321
REMARK  Name = 
REMARK  12 active torsions:
REMARK  status: ('A' for Active; 'I' for Inactive)
REMARK    1  A    between atoms: C_1  and  C_2
REMARK    2  A    between atoms: C_2  and  O_3
REMARK    3  A    between atoms: O_3  and  C_4
REMARK    4  A    between atoms: C_4  and  C_6
REMARK    5  A    between atoms: C_7  and  C_8
REMARK    6  A    between atoms: C_8  and  S_9
REMARK    7  A    between atoms: S_9  and  C_10
REMARK    8  A    between atoms: C_15  and  C_16
REMARK    9  A    between atoms: N_19  and  C_20
REMARK   10  A    between atoms: C_24  and  N_25
REMARK   11  A    between atoms: C_26  and  C_27
REMARK   12  A    between atoms: C_29  and  C_30
REMARK                            x       y       z     vdW  Elec       q    Type
REMARK                         _______ _______ _______ _____ _____    ______ ____
ROOT
ATOM      1  C   UNL     1       2.742   5.375  17.919  0.00  0.00    +0.000 C 
ATOM      2  C   UNL     1       3.163   6.612  18.276  0.00  0.00    +0.000 C 
ATOM      3  O   UNL     1       4.464   7.032  17.978  0.00  0.00    +0.000 OA
ATOM      4  C   UNL     1       5.271   6.319  17.101  0.00  0.00    +0.000 C 
ATOM      5  C   UNL     1       4.936   5.080  16.687  0.00  0.00    +0.000 C 
ATOM      6  C   UNL     1       3.679   4.407  17.210  0.00  0.00    +0.000 C 
ENDROOT
BRANCH   6   7
ATOM      7  C   UNL     1       4.052   3.239  18.131  0.00  0.00    +0.000 A 
ATOM      8  C   UNL     1       3.717   1.914  17.792  0.00  0.00    +0.000 A 
ATOM      9  C   UNL     1       4.043   0.857  18.640  0.00  0.00    +0.000 A 
ATOM     10  C   UNL     1       4.712   1.105  19.836  0.00  0.00    +0.000 A 
ATOM     11  C   UNL     1       5.059   2.409  20.182  0.00  0.00    +0.000 A 
ATOM     12  C   UNL     1       4.732   3.472  19.336  0.00  0.00    +0.000 A 
ENDBRANCH   6   7
BRANCH   4  13
ATOM     13  N   UNL     1       6.421   6.994  16.757  0.00  0.00    +0.000 N 
ATOM     14  H   UNL     1       6.748   7.597  17.506  0.00  0.00    +0.000 HD
ATOM     15  H   UNL     1       7.160   6.422  16.354  0.00  0.00    +0.000 HD
ENDBRANCH   4  13
BRANCH   1  16
ATOM     16  C   UNL     1       1.370   4.826  18.098  0.00  0.00    +0.000 C 
ATOM     17  O   UNL     1       0.638   4.546  17.160  0.00  0.00    +0.000 OA
BRANCH  16  18
ATOM     18  O   UNL     1       1.053   4.671  19.401  0.00  0.00    +0.000 OA
BRANCH  18  20
ATOM     19  C   UNL     1       1.527   3.125  21.206  0.00  0.00    +0.000 C 
ATOM     20  C   UNL     1       0.849   3.330  19.863  0.00  0.00    +0.000 C 
ENDBRANCH  18  20
ENDBRANCH  16  18
ENDBRANCH   1  16
BRANCH   5  21
ATOM     21  C   UNL     1       5.749   4.359  15.770  0.00  0.00    +0.000 C 
ATOM     22  N   UNL     1       6.426   3.782  15.018  0.00  0.00    +0.000 NA
ENDBRANCH   5  21
BRANCH   2  23
ATOM     23  C   UNL     1       2.401   7.675  19.051  0.00  0.00    +0.000 C 
BRANCH  23  24
ATOM     24  S   UNL     1       1.436   8.720  17.916  0.00  0.00    +0.000 S 
BRANCH  24  25
ATOM     25  C   UNL     1       1.454  10.307  18.765  0.00  0.00    +0.000 A 
ATOM     26  N   UNL     1       2.085  11.342  18.150  0.00  0.00    +0.000 NA
ATOM     27  C   UNL     1       2.149  12.542  18.797  0.00  0.00    +0.000 A 
ATOM     28  C   UNL     1       1.609  12.755  20.063  0.00  0.00    +0.000 A 
ATOM     29  C   UNL     1       0.933  11.692  20.664  0.00  0.00    +0.000 A 
ATOM     30  C   UNL     1       0.855  10.452  20.018  0.00  0.00    +0.000 A 
ATOM     31  C   UNL     1       1.685  14.100  20.744  0.00  0.00    +0.000 C 
ATOM     32  N   UNL     1       2.729  14.973  20.188  0.00  0.00    +0.000 NA
ATOM     33  C   UNL     1       2.643  16.308  20.780  0.00  0.00    +0.000 C 
ATOM     34  C   UNL     1       2.608  15.030  18.724  0.00  0.00    +0.000 C 
ATOM     35  C   UNL     1       2.912  13.654  18.117  0.00  0.00    +0.000 C 
BRANCH  30  36
ATOM     36  C   UNL     1       0.166   9.386  20.677  0.00  0.00    +0.000 C 
ATOM     37  N   UNL     1      -0.343   8.507  21.238  0.00  0.00    +0.000 NA
ENDBRANCH  30  36
ENDBRANCH  24  25
ENDBRANCH  23  24
ENDBRANCH   2  23
TORSDOF 10
ENDMDL
MODEL 6
REMARK VINA RESULT:      -6.4      2.812      9.297
REMARK  Name = 
REMARK  12 active torsions:
REMARK  status: ('A' for Active; 'I' for Inactive)
REMARK    1  A    between atoms: C_1  and  C_2
REMARK    2  A    between atoms: C_2  and  O_3
REMARK    3  A    between atoms: O_3  and  C_4
REMARK    4  A    between atoms: C_4  and  C_6
REMARK    5  A    between atoms: C_7  and  C_8
REMARK    6  A    between atoms: C_8  and  S_9
REMARK    7  A    between atoms: S_9  and  C_10
REMARK    8  A    between atoms: C_15  and  C_16
REMARK    9  A    between atoms: N_19  and  C_20
REMARK   10  A    between atoms: C_24  and  N_25
REMARK   11  A    between atoms: C_26  and  C_27
REMARK   12  A    between atoms: C_29  and  C_30
REMARK                            x       y       z     vdW  Elec       q    Type
REMARK                         _______ _______ _______ _____ _____    ______ ____
ROOT
ATOM      1  C   UNL     1       0.271  10.442  20.030  0.00  0.00    +0.000 C 
ATOM      2  C   UNL     1       1.361  10.010  19.353  0.00  0.00    +0.000 C 
ATOM      3  O   UNL     1       1.927  10.799  18.344  0.00  0.00    +0.000 OA
ATOM      4  C   UNL     1       1.565  12.129  18.177  0.00  0.00    +0.000 C 
ATOM      5  C   UNL     1       0.495  12.651  18.811  0.00  0.00    +0.000 C 
ATOM      6  C   UNL     1      -0.377  11.777  19.695  0.00  0.00    +0.000 C 
ENDROOT
BRANCH   6   7
ATOM      7  C   UNL     1      -1.748  11.568  19.039  0.00  0.00    +0.000 A 
ATOM      8  C   UNL     1      -2.905  12.163  19.574  0.00  0.00    +0.000 A 
ATOM      9  C   UNL     1      -4.152  11.956  18.985  0.00  0.00    +0.000 A 
ATOM     10  C   UNL     1      -4.260  11.157  17.850  0.00  0.00    +0.000 A 
ATOM     11  C   UNL     1      -3.123  10.568  17.302  0.00  0.00    +0.000 A 
ATOM     12  C   UNL     1      -1.872  10.771  17.891  0.00  0.00    +0.000 A 
ENDBRANCH   6   7
BRANCH   4  13
ATOM     13  N   UNL     1       2.379  12.802  17.294  0.00  0.00    +0.000 N 
ATOM     14  H   UNL     1       2.261  13.809  17.357  0.00  0.00    +0.000 HD
ATOM     15  H   UNL     1       3.356  12.515  17.293  0.00  0.00    +0.000 HD
ENDBRANCH   4  13
BRANCH   1  16
ATOM     16  C   UNL     1      -0.387   9.750  21.173  0.00  0.00    +0.000 C 
ATOM     17  O   UNL     1      -1.123   8.785  21.032  0.00  0.00    +0.000 OA
BRANCH  16  18
ATOM     18  O   UNL     1      -0.062  10.311  22.357  0.00  0.00    +0.000 OA
BRANCH  18  20
ATOM     19  C   UNL     1      -1.578  12.078  23.029  0.00  0.00    +0.000 C 
ATOM     20  C   UNL     1      -1.145  10.638  23.238  0.00  0.00    +0.000 C 
ENDBRANCH  18  20
ENDBRANCH  16  18
ENDBRANCH   1  16
BRANCH   5  21
ATOM     21  C   UNL     1       0.138  14.019  18.660  0.00  0.00    +0.000 C 
ATOM     22  N   UNL     1      -0.139  15.142  18.527  0.00  0.00    +0.000 NA
ENDBRANCH   5  21
BRANCH   2  23
ATOM     23  C   UNL     1       2.089   8.683  19.494  0.00  0.00    +0.000 C 
BRANCH  23  24
ATOM     24  S   UNL     1       2.554   8.037  17.857  0.00  0.00    +0.000 S 
BRANCH  24  25
ATOM     25  C   UNL     1       3.235   6.423  18.274  0.00  0.00    +0.000 A 
ATOM     26  N   UNL     1       2.744   5.801  19.377  0.00  0.00    +0.000 NA
ATOM     27  C   UNL     1       3.278   4.597  19.737  0.00  0.00    +0.000 A 
ATOM     28  C   UNL     1       4.310   3.981  19.033  0.00  0.00    +0.000 A 
ATOM     29  C   UNL     1       4.777   4.617  17.882  0.00  0.00    +0.000 A 
ATOM     30  C   UNL     1       4.243   5.852  17.495  0.00  0.00    +0.000 A 
ATOM     31  C   UNL     1       4.868   2.642  19.450  0.00  0.00    +0.000 C 
ATOM     32  N   UNL     1       4.567   2.298  20.847  0.00  0.00    +0.000 NA
ATOM     33  C   UNL     1       4.993   0.929  21.137  0.00  0.00    +0.000 C 
ATOM     34  C   UNL     1       3.131   2.476  21.110  0.00  0.00    +0.000 C 
ATOM     35  C   UNL     1       2.757   3.961  21.003  0.00  0.00    +0.000 C 
BRANCH  30  36
ATOM     36  C   UNL     1       4.761   6.476  16.317  0.00  0.00    +0.000 C 
ATOM     37  N   UNL     1       5.235   6.962  15.375  0.00  0.00    +0.000 NA
ENDBRANCH  30  36
ENDBRANCH  24  25
ENDBRANCH  23  24
ENDBRANCH   2  23
TORSDOF 10
ENDMDL
MODEL 7
REMARK VINA RESULT:      -6.4      4.372     11.386
REMARK  Name = 
REMARK  12 active torsions:
REMARK  status: ('A' for Active; 'I' for Inactive)
REMARK    1  A    between atoms: C_1  and  C_2
REMARK    2  A    between atoms: C_2  and  O_3
REMARK    3  A    between atoms: O_3  and  C_4
REMARK    4  A    between atoms: C_4  and  C_6
REMARK    5  A    between atoms: C_7  and  C_8
REMARK    6  A    between atoms: C_8  and  S_9
REMARK    7  A    between atoms: S_9  and  C_10
REMARK    8  A    between atoms: C_15  and  C_16
REMARK    9  A    between atoms: N_19  and  C_20
REMARK   10  A    between atoms: C_24  and  N_25
REMARK   11  A    between atoms: C_26  and  C_27
REMARK   12  A    between atoms: C_29  and  C_30
REMARK                            x       y       z     vdW  Elec       q    Type
REMARK                         _______ _______ _______ _____ _____    ______ ____
ROOT
ATOM      1  C   UNL     1      -4.754  12.232  19.792  0.00  0.00    +0.000 C 
ATOM      2  C   UNL     1      -3.455  12.037  20.119  0.00  0.00    +0.000 C 
ATOM      3  O   UNL     1      -2.997  12.326  21.410  0.00  0.00    +0.000 OA
ATOM      4  C   UNL     1      -3.881  12.571  22.453  0.00  0.00    +0.000 C 
ATOM      5  C   UNL     1      -5.195  12.776  22.227  0.00  0.00    +0.000 C 
ATOM      6  C   UNL     1      -5.738  12.792  20.809  0.00  0.00    +0.000 C 
ENDROOT
BRANCH   6   7
ATOM      7  C   UNL     1      -6.167  14.214  20.426  0.00  0.00    +0.000 A 
ATOM      8  C   UNL     1      -5.218  15.244  20.290  0.00  0.00    +0.000 A 
ATOM      9  C   UNL     1      -5.614  16.539  19.959  0.00  0.00    +0.000 A 
ATOM     10  C   UNL     1      -6.961  16.824  19.753  0.00  0.00    +0.000 A 
ATOM     11  C   UNL     1      -7.912  15.813  19.874  0.00  0.00    +0.000 A 
ATOM     12  C   UNL     1      -7.520  14.515  20.209  0.00  0.00    +0.000 A 
ENDBRANCH   6   7
BRANCH   4  13
ATOM     13  N   UNL     1      -3.265  12.612  23.684  0.00  0.00    +0.000 N 
ATOM     14  H   UNL     1      -2.865  11.714  23.940  0.00  0.00    +0.000 HD
ATOM     15  H   UNL     1      -2.624  13.390  23.826  0.00  0.00    +0.000 HD
ENDBRANCH   4  13
BRANCH   1  16
ATOM     16  C   UNL     1      -5.394  11.896  18.491  0.00  0.00    +0.000 C 
ATOM     17  O   UNL     1      -5.829  10.783  18.231  0.00  0.00    +0.000 OA
BRANCH  16  18
ATOM     18  O   UNL     1      -5.439  12.958  17.660  0.00  0.00    +0.000 OA
BRANCH  18  20
ATOM     19  C   UNL     1      -6.852  14.625  16.613  0.00  0.00    +0.000 C 
ATOM     20  C   UNL     1      -6.653  13.153  16.922  0.00  0.00    +0.000 C 
ENDBRANCH  18  20
ENDBRANCH  16  18
ENDBRANCH   1  16
BRANCH   5  21
ATOM     21  C   UNL     1      -6.105  13.002  23.295  0.00  0.00    +0.000 C 
ATOM     22  N   UNL     1      -6.837  13.194  24.180  0.00  0.00    +0.000 NA
ENDBRANCH   5  21
BRANCH   2  23
ATOM     23  C   UNL     1      -2.321  11.565  19.223  0.00  0.00    +0.000 C 
BRANCH  23  24
ATOM     24  S   UNL     1      -0.719  12.128  19.875  0.00  0.00    +0.000 S 
BRANCH  24  25
ATOM     25  C   UNL     1       0.201  10.583  19.989  0.00  0.00    +0.000 A 
ATOM     26  N   UNL     1       0.818  10.137  18.864  0.00  0.00    +0.000 NA
ATOM     27  C   UNL     1       1.483   8.945  18.916  0.00  0.00    +0.000 A 
ATOM     28  C   UNL     1       1.549   8.160  20.064  0.00  0.00    +0.000 A 
ATOM     29  C   UNL     1       0.939   8.651  21.220  0.00  0.00    +0.000 A 
ATOM     30  C   UNL     1       0.253   9.871  21.188  0.00  0.00    +0.000 A 
ATOM     31  C   UNL     1       2.304   6.853  20.091  0.00  0.00    +0.000 C 
ATOM     32  N   UNL     1       2.545   6.295  18.753  0.00  0.00    +0.000 NA
ATOM     33  C   UNL     1       3.415   5.122  18.840  0.00  0.00    +0.000 C 
ATOM     34  C   UNL     1       3.124   7.324  17.877  0.00  0.00    +0.000 C 
ATOM     35  C   UNL     1       2.104   8.444  17.635  0.00  0.00    +0.000 C 
BRANCH  30  36
ATOM     36  C   UNL     1      -0.370  10.330  22.391  0.00  0.00    +0.000 C 
ATOM     37  N   UNL     1      -0.891  10.648  23.379  0.00  0.00    +0.000 NA
ENDBRANCH  30  36
ENDBRANCH  24  25
ENDBRANCH  23  24
ENDBRANCH   2  23
TORSDOF 10
ENDMDL
MODEL 8
REMARK VINA RESULT:      -6.3      3.663     10.524
REMARK  Name = 
REMARK  12 active torsions:
REMARK  status: ('A' for Active; 'I' for Inactive)
REMARK    1  A    between atoms: C_1  and  C_2
REMARK    2  A    between atoms: C_2  and  O_3
REMARK    3  A    between atoms: O_3  and  C_4
REMARK    4  A    between atoms: C_4  and  C_6
REMARK    5  A    between atoms: C_7  and  C_8
REMARK    6  A    between atoms: C_8  and  S_9
REMARK    7  A    between atoms: S_9  and  C_10
REMARK    8  A    between atoms: C_15  and  C_16
REMARK    9  A    between atoms: N_19  and  C_20
REMARK   10  A    between atoms: C_24  and  N_25
REMARK   11  A    between atoms: C_26  and  C_27
REMARK   12  A    between atoms: C_29  and  C_30
REMARK                            x       y       z     vdW  Elec       q    Type
REMARK                         _______ _______ _______ _____ _____    ______ ____
ROOT
ATOM      1  C   UNL     1      -3.756  11.838  19.156  0.00  0.00    +0.000 C 
ATOM      2  C   UNL     1      -2.513  12.279  19.462  0.00  0.00    +0.000 C 
ATOM      3  O   UNL     1      -2.285  12.993  20.645  0.00  0.00    +0.000 OA
ATOM      4  C   UNL     1      -3.241  13.051  21.650  0.00  0.00    +0.000 C 
ATOM      5  C   UNL     1      -4.506  12.633  21.442  0.00  0.00    +0.000 C 
ATOM      6  C   UNL     1      -4.934  12.127  20.075  0.00  0.00    +0.000 C 
ENDROOT
BRANCH   6   7
ATOM      7  C   UNL     1      -5.900  13.125  19.424  0.00  0.00    +0.000 A 
ATOM      8  C   UNL     1      -7.051  12.681  18.745  0.00  0.00    +0.000 A 
ATOM      9  C   UNL     1      -7.917  13.590  18.139  0.00  0.00    +0.000 A 
ATOM     10  C   UNL     1      -7.651  14.955  18.207  0.00  0.00    +0.000 A 
ATOM     11  C   UNL     1      -6.521  15.411  18.883  0.00  0.00    +0.000 A 
ATOM     12  C   UNL     1      -5.649  14.504  19.488  0.00  0.00    +0.000 A 
ENDBRANCH   6   7
BRANCH   4  13
ATOM     13  N   UNL     1      -2.762  13.600  22.818  0.00  0.00    +0.000 N 
ATOM     14  H   UNL     1      -2.387  12.895  23.446  0.00  0.00    +0.000 HD
ATOM     15  H   UNL     1      -2.144  14.400  22.704  0.00  0.00    +0.000 HD
ENDBRANCH   4  13
BRANCH   1  16
ATOM     16  C   UNL     1      -4.130  11.004  17.981  0.00  0.00    +0.000 C 
ATOM     17  O   UNL     1      -4.285   9.793  18.047  0.00  0.00    +0.000 OA
BRANCH  16  18
ATOM     18  O   UNL     1      -4.282  11.745  16.863  0.00  0.00    +0.000 OA
BRANCH  18  20
ATOM     19  C   UNL     1      -2.654  10.444  15.625  0.00  0.00    +0.000 C 
ATOM     20  C   UNL     1      -4.028  11.091  15.613  0.00  0.00    +0.000 C 
ENDBRANCH  18  20
ENDBRANCH  16  18
ENDBRANCH   1  16
BRANCH   5  21
ATOM     21  C   UNL     1      -5.480  12.670  22.477  0.00  0.00    +0.000 C 
ATOM     22  N   UNL     1      -6.268  12.713  23.333  0.00  0.00    +0.000 NA
ENDBRANCH   5  21
BRANCH   2  23
ATOM     23  C   UNL     1      -1.243  12.155  18.636  0.00  0.00    +0.000 C 
BRANCH  23  24
ATOM     24  S   UNL     1       0.224  12.372  19.690  0.00  0.00    +0.000 S 
BRANCH  24  25
ATOM     25  C   UNL     1       0.776  10.673  19.916  0.00  0.00    +0.000 A 
ATOM     26  N   UNL     1       1.448  10.090  18.889  0.00  0.00    +0.000 NA
ATOM     27  C   UNL     1       1.836   8.788  19.021  0.00  0.00    +0.000 A 
ATOM     28  C   UNL     1       1.565   8.024  20.154  0.00  0.00    +0.000 A 
ATOM     29  C   UNL     1       0.905   8.650  21.213  0.00  0.00    +0.000 A 
ATOM     30  C   UNL     1       0.499   9.985  21.099  0.00  0.00    +0.000 A 
ATOM     31  C   UNL     1       2.020   6.589  20.274  0.00  0.00    +0.000 C 
ATOM     32  N   UNL     1       2.337   5.973  18.978  0.00  0.00    +0.000 NA
ATOM     33  C   UNL     1       2.922   4.646  19.176  0.00  0.00    +0.000 C 
ATOM     34  C   UNL     1       3.242   6.844  18.214  0.00  0.00    +0.000 C 
ATOM     35  C   UNL     1       2.524   8.148  17.840  0.00  0.00    +0.000 C 
BRANCH  30  36
ATOM     36  C   UNL     1      -0.188  10.582  22.201  0.00  0.00    +0.000 C 
ATOM     37  N   UNL     1      -0.715  11.116  23.088  0.00  0.00    +0.000 NA
ENDBRANCH  30  36
ENDBRANCH  24  25
ENDBRANCH  23  24
ENDBRANCH   2  23
TORSDOF 10
ENDMDL
MODEL 9
REMARK VINA RESULT:      -6.3      4.125     10.980
REMARK  Name = 
REMARK  12 active torsions:
REMARK  status: ('A' for Active; 'I' for Inactive)
REMARK    1  A    between atoms: C_1  and  C_2
REMARK    2  A    between atoms: C_2  and  O_3
REMARK    3  A    between atoms: O_3  and  C_4
REMARK    4  A    between atoms: C_4  and  C_6
REMARK    5  A    between atoms: C_7  and  C_8
REMARK    6  A    between atoms: C_8  and  S_9
REMARK    7  A    between atoms: S_9  and  C_10
REMARK    8  A    between atoms: C_15  and  C_16
REMARK    9  A    between atoms: N_19  and  C_20
REMARK   10  A    between atoms: C_24  and  N_25
REMARK   11  A    between atoms: C_26  and  C_27
REMARK   12  A    between atoms: C_29  and  C_30
REMARK                            x       y       z     vdW  Elec       q    Type
REMARK                         _______ _______ _______ _____ _____    ______ ____
ROOT
ATOM      1  C   UNL     1      -4.333  12.303  19.476  0.00  0.00    +0.000 C 
ATOM      2  C   UNL     1      -3.046  12.258  19.894  0.00  0.00    +0.000 C 
ATOM      3  O   UNL     1      -2.723  12.537  21.228  0.00  0.00    +0.000 OA
ATOM      4  C   UNL     1      -3.703  12.616  22.208  0.00  0.00    +0.000 C 
ATOM      5  C   UNL     1      -5.013  12.665  21.890  0.00  0.00    +0.000 C 
ATOM      6  C   UNL     1      -5.452  12.683  20.437  0.00  0.00    +0.000 C 
ENDROOT
BRANCH   6   7
ATOM      7  C   UNL     1      -6.032  14.057  20.080  0.00  0.00    +0.000 A 
ATOM      8  C   UNL     1      -5.228  15.212  20.106  0.00  0.00    +0.000 A 
ATOM      9  C   UNL     1      -5.765  16.462  19.798  0.00  0.00    +0.000 A 
ATOM     10  C   UNL     1      -7.109  16.576  19.455  0.00  0.00    +0.000 A 
ATOM     11  C   UNL     1      -7.916  15.441  19.415  0.00  0.00    +0.000 A 
ATOM     12  C   UNL     1      -7.384  14.188  19.726  0.00  0.00    +0.000 A 
ENDBRANCH   6   7
BRANCH   4  13
ATOM     13  N   UNL     1      -3.186  12.673  23.483  0.00  0.00    +0.000 N 
ATOM     14  H   UNL     1      -3.123  13.626  23.827  0.00  0.00    +0.000 HD
ATOM     15  H   UNL     1      -3.607  12.034  24.154  0.00  0.00    +0.000 HD
ENDBRANCH   4  13
BRANCH   1  16
ATOM     16  C   UNL     1      -4.831  11.955  18.117  0.00  0.00    +0.000 C 
ATOM     17  O   UNL     1      -5.610  12.661  17.493  0.00  0.00    +0.000 OA
BRANCH  16  18
ATOM     18  O   UNL     1      -4.314  10.791  17.673  0.00  0.00    +0.000 OA
BRANCH  18  20
ATOM     19  C   UNL     1      -2.697  10.778  15.868  0.00  0.00    +0.000 C 
ATOM     20  C   UNL     1      -4.159  10.651  16.254  0.00  0.00    +0.000 C 
ENDBRANCH  18  20
ENDBRANCH  16  18
ENDBRANCH   1  16
BRANCH   5  21
ATOM     21  C   UNL     1      -6.018  12.721  22.894  0.00  0.00    +0.000 C 
ATOM     22  N   UNL     1      -6.848  12.782  23.709  0.00  0.00    +0.000 NA
ENDBRANCH   5  21
BRANCH   2  23
ATOM     23  C   UNL     1      -1.801  11.978  19.069  0.00  0.00    +0.000 C 
BRANCH  23  24
ATOM     24  S   UNL     1      -0.303  12.291  20.054  0.00  0.00    +0.000 S 
BRANCH  24  25
ATOM     25  C   UNL     1       0.473  10.666  20.077  0.00  0.00    +0.000 A 
ATOM     26  N   UNL     1       1.125  10.265  18.954  0.00  0.00    +0.000 NA
ATOM     27  C   UNL     1       1.682   9.019  18.934  0.00  0.00    +0.000 A 
ATOM     28  C   UNL     1       1.604   8.134  20.007  0.00  0.00    +0.000 A 
ATOM     29  C   UNL     1       0.962   8.576  21.165  0.00  0.00    +0.000 A 
ATOM     30  C   UNL     1       0.385   9.850  21.207  0.00  0.00    +0.000 A 
ATOM     31  C   UNL     1       2.243   6.767  19.957  0.00  0.00    +0.000 C 
ATOM     32  N   UNL     1       2.526   6.309  18.589  0.00  0.00    +0.000 NA
ATOM     33  C   UNL     1       3.285   5.059  18.619  0.00  0.00    +0.000 C 
ATOM     34  C   UNL     1       3.246   7.353  17.848  0.00  0.00    +0.000 C 
ATOM     35  C   UNL     1       2.343   8.578  17.651  0.00  0.00    +0.000 C 
BRANCH  30  36
ATOM     36  C   UNL     1      -0.276  10.257  22.408  0.00  0.00    +0.000 C 
ATOM     37  N   UNL     1      -0.821  10.531  23.396  0.00  0.00    +0.000 NA
ENDBRANCH  30  36
ENDBRANCH  24  25
ENDBRANCH  23  24
ENDBRANCH   2  23
TORSDOF 10
ENDMDL
