MODEL 1
REMARK VINA RESULT:      -8.4      0.000      0.000
REMARK  Name = 
REMARK  2 active torsions:
REMARK  status: ('A' for Active; 'I' for Inactive)
REMARK    1  A    between atoms: N_3  and  C_4
REMARK    2  A    between atoms: N_17  and  C_18
REMARK                            x       y       z     vdW  Elec       q    Type
REMARK                         _______ _______ _______ _____ _____    ______ ____
ROOT
ATOM      1  O   UNL     1       0.935  11.621  20.888  0.00  0.00    +0.000 OA
ATOM      2  C   UNL     1       1.053  11.088  19.786  0.00  0.00    +0.000 C 
ATOM      3  N   UNL     1       1.233  11.791  18.616  0.00  0.00    +0.000 N 
ATOM      4  N   UNL     1       0.952   9.715  19.621  0.00  0.00    +0.000 N 
ATOM      5  C   UNL     1       1.373   8.950  18.436  0.00  0.00    +0.000 C 
ATOM      6  C   UNL     1       2.516   7.967  18.761  0.00  0.00    +0.000 C 
ATOM      7  N   UNL     1       2.168   7.147  19.930  0.00  0.00    +0.000 N 
ATOM      8  C   UNL     1       1.776   7.917  21.126  0.00  0.00    +0.000 C 
ATOM      9  C   UNL     1       0.620   8.874  20.778  0.00  0.00    +0.000 C 
ATOM     10  H   UNL     1       0.784  11.359  17.821  0.00  0.00    +0.000 HD
ENDROOT
BRANCH   3  11
ATOM     11  C   UNL     1       1.368  13.188  18.548  0.00  0.00    +0.000 A 
ATOM     12  C   UNL     1       2.654  13.698  18.363  0.00  0.00    +0.000 A 
ATOM     13  C   UNL     1       2.850  15.072  18.249  0.00  0.00    +0.000 A 
ATOM     14  C   UNL     1       1.803  15.977  18.371  0.00  0.00    +0.000 A 
ATOM     15  N   UNL     1       2.068  17.287  18.282  0.00  0.00    +0.000 NA
ATOM     16  C   UNL     1       1.041  18.150  18.447  0.00  0.00    +0.000 A 
ATOM     17  C   UNL     1      -0.260  17.762  18.701  0.00  0.00    +0.000 A 
ATOM     18  C   UNL     1      -0.529  16.398  18.780  0.00  0.00    +0.000 A 
ATOM     19  C   UNL     1       0.512  15.465  18.608  0.00  0.00    +0.000 A 
ATOM     20  C   UNL     1       0.296  14.074  18.671  0.00  0.00    +0.000 A 
ENDBRANCH   3  11
BRANCH   7  21
ATOM     21  C   UNL     1       2.213   5.760  19.897  0.00  0.00    +0.000 A 
ATOM     22  C   UNL     1       1.067   5.001  20.239  0.00  0.00    +0.000 A 
ATOM     23  C   UNL     1       1.023   3.606  20.189  0.00  0.00    +0.000 A 
ATOM     24  C   UNL     1       2.129   2.877  19.777  0.00  0.00    +0.000 A 
ATOM     25  C   UNL     1       3.276   3.596  19.441  0.00  0.00    +0.000 A 
ATOM     26  N   UNL     1       4.495   3.120  19.007  0.00  0.00    +0.000 N 
ATOM     27  C   UNL     1       5.369   4.152  18.823  0.00  0.00    +0.000 A 
ATOM     28  C   UNL     1       4.710   5.311  19.151  0.00  0.00    +0.000 A 
ATOM     29  C   UNL     1       3.356   4.992  19.503  0.00  0.00    +0.000 A 
ATOM     30  H   UNL     1       4.706   2.143  18.863  0.00  0.00    +0.000 HD
ENDBRANCH   7  21
TORSDOF 2
ENDMDL
MODEL 2
REMARK VINA RESULT:      -8.3      6.607      7.408
REMARK  Name = 
REMARK  2 active torsions:
REMARK  status: ('A' for Active; 'I' for Inactive)
REMARK    1  A    between atoms: N_3  and  C_4
REMARK    2  A    between atoms: N_17  and  C_18
REMARK                            x       y       z     vdW  Elec       q    Type
REMARK                         _______ _______ _______ _____ _____    ______ ____
ROOT
ATOM      1  O   UNL     1       7.172   9.440  17.141  0.00  0.00    +0.000 OA
ATOM      2  C   UNL     1       7.603   8.526  17.842  0.00  0.00    +0.000 C 
ATOM      3  N   UNL     1       8.669   8.667  18.703  0.00  0.00    +0.000 N 
ATOM      4  N   UNL     1       7.083   7.243  17.779  0.00  0.00    +0.000 N 
ATOM      5  C   UNL     1       7.297   6.170  18.762  0.00  0.00    +0.000 C 
ATOM      6  C   UNL     1       5.983   5.749  19.452  0.00  0.00    +0.000 C 
ATOM      7  N   UNL     1       4.947   5.466  18.449  0.00  0.00    +0.000 N 
ATOM      8  C   UNL     1       4.712   6.555  17.483  0.00  0.00    +0.000 C 
ATOM      9  C   UNL     1       6.036   6.940  16.794  0.00  0.00    +0.000 C 
ATOM     10  H   UNL     1       9.236   7.833  18.771  0.00  0.00    +0.000 HD
ENDROOT
BRANCH   3  11
ATOM     11  C   UNL     1       9.346   9.877  18.931  0.00  0.00    +0.000 A 
ATOM     12  C   UNL     1       9.340  10.379  20.232  0.00  0.00    +0.000 A 
ATOM     13  C   UNL     1      10.023  11.554  20.531  0.00  0.00    +0.000 A 
ATOM     14  C   UNL     1      10.679  12.293  19.553  0.00  0.00    +0.000 A 
ATOM     15  N   UNL     1      11.291  13.431  19.905  0.00  0.00    +0.000 NA
ATOM     16  C   UNL     1      11.884  14.155  18.930  0.00  0.00    +0.000 A 
ATOM     17  C   UNL     1      11.896  13.791  17.598  0.00  0.00    +0.000 A 
ATOM     18  C   UNL     1      11.268  12.599  17.242  0.00  0.00    +0.000 A 
ATOM     19  C   UNL     1      10.643  11.813  18.229  0.00  0.00    +0.000 A 
ATOM     20  C   UNL     1       9.999  10.596  17.927  0.00  0.00    +0.000 A 
ENDBRANCH   3  11
BRANCH   7  21
ATOM     21  C   UNL     1       4.252   4.264  18.428  0.00  0.00    +0.000 A 
ATOM     22  C   UNL     1       4.504   3.312  17.409  0.00  0.00    +0.000 A 
ATOM     23  C   UNL     1       3.876   2.066  17.345  0.00  0.00    +0.000 A 
ATOM     24  C   UNL     1       2.957   1.686  18.313  0.00  0.00    +0.000 A 
ATOM     25  C   UNL     1       2.680   2.607  19.324  0.00  0.00    +0.000 A 
ATOM     26  N   UNL     1       1.818   2.479  20.392  0.00  0.00    +0.000 N 
ATOM     27  C   UNL     1       1.807   3.626  21.132  0.00  0.00    +0.000 A 
ATOM     28  C   UNL     1       2.668   4.511  20.531  0.00  0.00    +0.000 A 
ATOM     29  C   UNL     1       3.278   3.870  19.401  0.00  0.00    +0.000 A 
ATOM     30  H   UNL     1       1.264   1.657  20.582  0.00  0.00    +0.000 HD
ENDBRANCH   7  21
TORSDOF 2
ENDMDL
MODEL 3
REMARK VINA RESULT:      -8.2      1.113      1.830
REMARK  Name = 
REMARK  2 active torsions:
REMARK  status: ('A' for Active; 'I' for Inactive)
REMARK    1  A    between atoms: N_3  and  C_4
REMARK    2  A    between atoms: N_17  and  C_18
REMARK                            x       y       z     vdW  Elec       q    Type
REMARK                         _______ _______ _______ _____ _____    ______ ____
ROOT
ATOM      1  O   UNL     1       1.115  11.138  20.568  0.00  0.00    +0.000 OA
ATOM      2  C   UNL     1       1.234  10.800  19.392  0.00  0.00    +0.000 C 
ATOM      3  N   UNL     1       1.336  11.696  18.350  0.00  0.00    +0.000 N 
ATOM      4  N   UNL     1       1.213   9.470  19.004  0.00  0.00    +0.000 N 
ATOM      5  C   UNL     1       1.645   8.938  17.702  0.00  0.00    +0.000 C 
ATOM      6  C   UNL     1       2.856   7.991  17.839  0.00  0.00    +0.000 C 
ATOM      7  N   UNL     1       2.594   6.971  18.863  0.00  0.00    +0.000 N 
ATOM      8  C   UNL     1       2.190   7.507  20.176  0.00  0.00    +0.000 C 
ATOM      9  C   UNL     1       0.967   8.431  20.012  0.00  0.00    +0.000 C 
ATOM     10  H   UNL     1       0.891  11.370  17.503  0.00  0.00    +0.000 HD
ENDROOT
BRANCH   3  11
ATOM     11  C   UNL     1       1.382  13.091  18.510  0.00  0.00    +0.000 A 
ATOM     12  C   UNL     1       2.641  13.692  18.515  0.00  0.00    +0.000 A 
ATOM     13  C   UNL     1       2.754  15.075  18.632  0.00  0.00    +0.000 A 
ATOM     14  C   UNL     1       1.642  15.892  18.805  0.00  0.00    +0.000 A 
ATOM     15  N   UNL     1       1.826  17.212  18.942  0.00  0.00    +0.000 NA
ATOM     16  C   UNL     1       0.734  17.980  19.153  0.00  0.00    +0.000 A 
ATOM     17  C   UNL     1      -0.554  17.487  19.234  0.00  0.00    +0.000 A 
ATOM     18  C   UNL     1      -0.736  16.115  19.078  0.00  0.00    +0.000 A 
ATOM     19  C   UNL     1       0.374  15.279  18.851  0.00  0.00    +0.000 A 
ATOM     20  C   UNL     1       0.247  13.886  18.679  0.00  0.00    +0.000 A 
ENDBRANCH   3  11
BRANCH   7  21
ATOM     21  C   UNL     1       2.723   5.614  18.600  0.00  0.00    +0.000 A 
ATOM     22  C   UNL     1       3.478   5.172  17.487  0.00  0.00    +0.000 A 
ATOM     23  C   UNL     1       3.688   3.825  17.182  0.00  0.00    +0.000 A 
ATOM     24  C   UNL     1       3.159   2.826  17.988  0.00  0.00    +0.000 A 
ATOM     25  C   UNL     1       2.403   3.231  19.088  0.00  0.00    +0.000 A 
ATOM     26  N   UNL     1       1.775   2.450  20.035  0.00  0.00    +0.000 N 
ATOM     27  C   UNL     1       1.103   3.235  20.927  0.00  0.00    +0.000 A 
ATOM     28  C   UNL     1       1.292   4.541  20.548  0.00  0.00    +0.000 A 
ATOM     29  C   UNL     1       2.158   4.572  19.405  0.00  0.00    +0.000 A 
ATOM     30  H   UNL     1       1.799   1.441  20.049  0.00  0.00    +0.000 HD
ENDBRANCH   7  21
TORSDOF 2
ENDMDL
MODEL 4
REMARK VINA RESULT:      -8.2      1.199      1.236
REMARK  Name = 
REMARK  2 active torsions:
REMARK  status: ('A' for Active; 'I' for Inactive)
REMARK    1  A    between atoms: N_3  and  C_4
REMARK    2  A    between atoms: N_17  and  C_18
REMARK                            x       y       z     vdW  Elec       q    Type
REMARK                         _______ _______ _______ _____ _____    ______ ____
ROOT
ATOM      1  O   UNL     1       1.082  11.186  20.621  0.00  0.00    +0.000 OA
ATOM      2  C   UNL     1       1.127  10.879  19.431  0.00  0.00    +0.000 C 
ATOM      3  N   UNL     1       1.136  11.801  18.407  0.00  0.00    +0.000 N 
ATOM      4  N   UNL     1       1.109   9.558  19.012  0.00  0.00    +0.000 N 
ATOM      5  C   UNL     1       1.462   9.067  17.671  0.00  0.00    +0.000 C 
ATOM      6  C   UNL     1       2.699   8.148  17.700  0.00  0.00    +0.000 C 
ATOM      7  N   UNL     1       2.532   7.097  18.714  0.00  0.00    +0.000 N 
ATOM      8  C   UNL     1       2.208   7.593  20.065  0.00  0.00    +0.000 C 
ATOM      9  C   UNL     1       0.957   8.490  20.009  0.00  0.00    +0.000 C 
ATOM     10  H   UNL     1       0.641  11.485  17.585  0.00  0.00    +0.000 HD
ENDROOT
BRANCH   3  11
ATOM     11  C   UNL     1       1.162  13.193  18.599  0.00  0.00    +0.000 A 
ATOM     12  C   UNL     1       2.408  13.820  18.565  0.00  0.00    +0.000 A 
ATOM     13  C   UNL     1       2.499  15.201  18.711  0.00  0.00    +0.000 A 
ATOM     14  C   UNL     1       1.380  15.991  18.950  0.00  0.00    +0.000 A 
ATOM     15  N   UNL     1       1.544  17.311  19.111  0.00  0.00    +0.000 NA
ATOM     16  C   UNL     1       0.447  18.051  19.386  0.00  0.00    +0.000 A 
ATOM     17  C   UNL     1      -0.826  17.531  19.509  0.00  0.00    +0.000 A 
ATOM     18  C   UNL     1      -0.988  16.159  19.327  0.00  0.00    +0.000 A 
ATOM     19  C   UNL     1       0.127  15.352  19.034  0.00  0.00    +0.000 A 
ATOM     20  C   UNL     1       0.020  13.961  18.835  0.00  0.00    +0.000 A 
ENDBRANCH   3  11
BRANCH   7  21
ATOM     21  C   UNL     1       2.673   5.750  18.409  0.00  0.00    +0.000 A 
ATOM     22  C   UNL     1       1.570   4.871  18.536  0.00  0.00    +0.000 A 
ATOM     23  C   UNL     1       1.623   3.515  18.208  0.00  0.00    +0.000 A 
ATOM     24  C   UNL     1       2.792   2.950  17.717  0.00  0.00    +0.000 A 
ATOM     25  C   UNL     1       3.899   3.789  17.590  0.00  0.00    +0.000 A 
ATOM     26  N   UNL     1       5.163   3.483  17.133  0.00  0.00    +0.000 N 
ATOM     27  C   UNL     1       5.971   4.581  17.203  0.00  0.00    +0.000 A 
ATOM     28  C   UNL     1       5.222   5.610  17.719  0.00  0.00    +0.000 A 
ATOM     29  C   UNL     1       3.881   5.146  17.931  0.00  0.00    +0.000 A 
ATOM     30  H   UNL     1       5.447   2.570  16.811  0.00  0.00    +0.000 HD
ENDBRANCH   7  21
TORSDOF 2
ENDMDL
MODEL 5
REMARK VINA RESULT:      -8.1      1.471      1.952
REMARK  Name = 
REMARK  2 active torsions:
REMARK  status: ('A' for Active; 'I' for Inactive)
REMARK    1  A    between atoms: N_3  and  C_4
REMARK    2  A    between atoms: N_17  and  C_18
REMARK                            x       y       z     vdW  Elec       q    Type
REMARK                         _______ _______ _______ _____ _____    ______ ____
ROOT
ATOM      1  O   UNL     1       0.991  11.077  20.710  0.00  0.00    +0.000 OA
ATOM      2  C   UNL     1       1.074  10.835  19.507  0.00  0.00    +0.000 C 
ATOM      3  N   UNL     1       1.082  11.809  18.534  0.00  0.00    +0.000 N 
ATOM      4  N   UNL     1       1.104   9.537  19.020  0.00  0.00    +0.000 N 
ATOM      5  C   UNL     1       1.503   9.127  17.665  0.00  0.00    +0.000 C 
ATOM      6  C   UNL     1       2.766   8.241  17.679  0.00  0.00    +0.000 C 
ATOM      7  N   UNL     1       2.604   7.135  18.633  0.00  0.00    +0.000 N 
ATOM      8  C   UNL     1       2.233   7.550  19.999  0.00  0.00    +0.000 C 
ATOM      9  C   UNL     1       0.958   8.415  19.956  0.00  0.00    +0.000 C 
ATOM     10  H   UNL     1       0.616  11.523  17.683  0.00  0.00    +0.000 HD
ENDROOT
BRANCH   3  11
ATOM     11  C   UNL     1       1.064  13.189  18.798  0.00  0.00    +0.000 A 
ATOM     12  C   UNL     1      -0.146  13.859  18.615  0.00  0.00    +0.000 A 
ATOM     13  C   UNL     1      -0.240  15.219  18.895  0.00  0.00    +0.000 A 
ATOM     14  C   UNL     1       0.859  15.963  19.307  0.00  0.00    +0.000 A 
ATOM     15  N   UNL     1       0.705  17.275  19.530  0.00  0.00    +0.000 NA
ATOM     16  C   UNL     1       1.798  17.986  19.886  0.00  0.00    +0.000 A 
ATOM     17  C   UNL     1       3.058  17.442  20.033  0.00  0.00    +0.000 A 
ATOM     18  C   UNL     1       3.208  16.075  19.811  0.00  0.00    +0.000 A 
ATOM     19  C   UNL     1       2.093  15.297  19.443  0.00  0.00    +0.000 A 
ATOM     20  C   UNL     1       2.185  13.910  19.213  0.00  0.00    +0.000 A 
ENDBRANCH   3  11
BRANCH   7  21
ATOM     21  C   UNL     1       2.791   5.810  18.262  0.00  0.00    +0.000 A 
ATOM     22  C   UNL     1       1.689   4.922  18.210  0.00  0.00    +0.000 A 
ATOM     23  C   UNL     1       1.791   3.589  17.807  0.00  0.00    +0.000 A 
ATOM     24  C   UNL     1       3.012   3.059  17.415  0.00  0.00    +0.000 A 
ATOM     25  C   UNL     1       4.118   3.908  17.464  0.00  0.00    +0.000 A 
ATOM     26  N   UNL     1       5.428   3.634  17.132  0.00  0.00    +0.000 N 
ATOM     27  C   UNL     1       6.213   4.728  17.359  0.00  0.00    +0.000 A 
ATOM     28  C   UNL     1       5.402   5.720  17.852  0.00  0.00    +0.000 A 
ATOM     29  C   UNL     1       4.049   5.241  17.884  0.00  0.00    +0.000 A 
ATOM     30  H   UNL     1       5.755   2.744  16.787  0.00  0.00    +0.000 HD
ENDBRANCH   7  21
TORSDOF 2
ENDMDL
MODEL 6
REMARK VINA RESULT:      -8.1      3.079      9.573
REMARK  Name = 
REMARK  2 active torsions:
REMARK  status: ('A' for Active; 'I' for Inactive)
REMARK    1  A    between atoms: N_3  and  C_4
REMARK    2  A    between atoms: N_17  and  C_18
REMARK                            x       y       z     vdW  Elec       q    Type
REMARK                         _______ _______ _______ _____ _____    ______ ____
ROOT
ATOM      1  O   UNL     1       1.994   9.262  17.322  0.00  0.00    +0.000 OA
ATOM      2  C   UNL     1       1.620   8.835  18.413  0.00  0.00    +0.000 C 
ATOM      3  N   UNL     1       1.966   7.595  18.903  0.00  0.00    +0.000 N 
ATOM      4  N   UNL     1       0.757   9.553  19.226  0.00  0.00    +0.000 N 
ATOM      5  C   UNL     1       0.492   9.296  20.650  0.00  0.00    +0.000 C 
ATOM      6  C   UNL     1       0.941  10.472  21.541  0.00  0.00    +0.000 C 
ATOM      7  N   UNL     1       0.395  11.738  21.032  0.00  0.00    +0.000 N 
ATOM      8  C   UNL     1       0.688  12.007  19.612  0.00  0.00    +0.000 C 
ATOM      9  C   UNL     1       0.209  10.827  18.744  0.00  0.00    +0.000 C 
ATOM     10  H   UNL     1       1.232   7.166  19.450  0.00  0.00    +0.000 HD
ENDROOT
BRANCH   3  11
ATOM     11  C   UNL     1       2.832   6.702  18.250  0.00  0.00    +0.000 A 
ATOM     12  C   UNL     1       2.390   5.390  18.081  0.00  0.00    +0.000 A 
ATOM     13  C   UNL     1       3.185   4.465  17.409  0.00  0.00    +0.000 A 
ATOM     14  C   UNL     1       4.453   4.789  16.939  0.00  0.00    +0.000 A 
ATOM     15  N   UNL     1       5.177   3.842  16.329  0.00  0.00    +0.000 NA
ATOM     16  C   UNL     1       6.423   4.169  15.920  0.00  0.00    +0.000 A 
ATOM     17  C   UNL     1       6.991   5.416  16.093  0.00  0.00    +0.000 A 
ATOM     18  C   UNL     1       6.226   6.399  16.717  0.00  0.00    +0.000 A 
ATOM     19  C   UNL     1       4.920   6.101  17.154  0.00  0.00    +0.000 A 
ATOM     20  C   UNL     1       4.100   7.057  17.786  0.00  0.00    +0.000 A 
ENDBRANCH   3  11
BRANCH   7  21
ATOM     21  C   UNL     1      -0.335  12.601  21.837  0.00  0.00    +0.000 A 
ATOM     22  C   UNL     1      -1.553  12.174  22.421  0.00  0.00    +0.000 A 
ATOM     23  C   UNL     1      -2.321  12.969  23.274  0.00  0.00    +0.000 A 
ATOM     24  C   UNL     1      -1.908  14.251  23.610  0.00  0.00    +0.000 A 
ATOM     25  C   UNL     1      -0.716  14.704  23.043  0.00  0.00    +0.000 A 
ATOM     26  N   UNL     1      -0.092  15.922  23.210  0.00  0.00    +0.000 N 
ATOM     27  C   UNL     1       1.038  15.984  22.447  0.00  0.00    +0.000 A 
ATOM     28  C   UNL     1       1.142  14.793  21.770  0.00  0.00    +0.000 A 
ATOM     29  C   UNL     1       0.062  13.937  22.168  0.00  0.00    +0.000 A 
ATOM     30  H   UNL     1      -0.437  16.663  23.802  0.00  0.00    +0.000 HD
ENDBRANCH   7  21
TORSDOF 2
ENDMDL
MODEL 7
REMARK VINA RESULT:      -8.0      3.170      9.607
REMARK  Name = 
REMARK  2 active torsions:
REMARK  status: ('A' for Active; 'I' for Inactive)
REMARK    1  A    between atoms: N_3  and  C_4
REMARK    2  A    between atoms: N_17  and  C_18
REMARK                            x       y       z     vdW  Elec       q    Type
REMARK                         _______ _______ _______ _____ _____    ______ ____
ROOT
ATOM      1  O   UNL     1       1.907   9.322  17.281  0.00  0.00    +0.000 OA
ATOM      2  C   UNL     1       1.626   8.995  18.433  0.00  0.00    +0.000 C 
ATOM      3  N   UNL     1       1.973   7.782  18.985  0.00  0.00    +0.000 N 
ATOM      4  N   UNL     1       0.872   9.808  19.264  0.00  0.00    +0.000 N 
ATOM      5  C   UNL     1       0.736   9.672  20.723  0.00  0.00    +0.000 C 
ATOM      6  C   UNL     1       1.311  10.891  21.472  0.00  0.00    +0.000 C 
ATOM      7  N   UNL     1       0.763  12.137  20.918  0.00  0.00    +0.000 N 
ATOM      8  C   UNL     1       0.928  12.286  19.459  0.00  0.00    +0.000 C 
ATOM      9  C   UNL     1       0.326  11.066  18.736  0.00  0.00    +0.000 C 
ATOM     10  H   UNL     1       1.280   7.427  19.630  0.00  0.00    +0.000 HD
ENDROOT
BRANCH   3  11
ATOM     11  C   UNL     1       2.740   6.806  18.327  0.00  0.00    +0.000 A 
ATOM     12  C   UNL     1       2.279   5.490  18.375  0.00  0.00    +0.000 A 
ATOM     13  C   UNL     1       2.973   4.482  17.711  0.00  0.00    +0.000 A 
ATOM     14  C   UNL     1       4.162   4.729  17.035  0.00  0.00    +0.000 A 
ATOM     15  N   UNL     1       4.794   3.707  16.445  0.00  0.00    +0.000 NA
ATOM     16  C   UNL     1       5.970   3.964  15.831  0.00  0.00    +0.000 A 
ATOM     17  C   UNL     1       6.556   5.214  15.777  0.00  0.00    +0.000 A 
ATOM     18  C   UNL     1       5.885   6.274  16.383  0.00  0.00    +0.000 A 
ATOM     19  C   UNL     1       4.654   6.049  17.029  0.00  0.00    +0.000 A 
ATOM     20  C   UNL     1       3.930   7.085  17.653  0.00  0.00    +0.000 A 
ENDBRANCH   3  11
BRANCH   7  21
ATOM     21  C   UNL     1       0.145  13.089  21.717  0.00  0.00    +0.000 A 
ATOM     22  C   UNL     1       0.676  14.400  21.805  0.00  0.00    +0.000 A 
ATOM     23  C   UNL     1       0.087  15.421  22.554  0.00  0.00    +0.000 A 
ATOM     24  C   UNL     1      -1.087  15.197  23.258  0.00  0.00    +0.000 A 
ATOM     25  C   UNL     1      -1.629  13.912  23.198  0.00  0.00    +0.000 A 
ATOM     26  N   UNL     1      -2.773  13.432  23.799  0.00  0.00    +0.000 N 
ATOM     27  C   UNL     1      -2.932  12.105  23.522  0.00  0.00    +0.000 A 
ATOM     28  C   UNL     1      -1.873  11.719  22.738  0.00  0.00    +0.000 A 
ATOM     29  C   UNL     1      -1.049  12.864  22.475  0.00  0.00    +0.000 A 
ATOM     30  H   UNL     1      -3.390  13.986  24.374  0.00  0.00    +0.000 HD
ENDBRANCH   7  21
TORSDOF 2
ENDMDL
MODEL 8
REMARK VINA RESULT:      -7.9      1.330      2.347
REMARK  Name = 
REMARK  2 active torsions:
REMARK  status: ('A' for Active; 'I' for Inactive)
REMARK    1  A    between atoms: N_3  and  C_4
REMARK    2  A    between atoms: N_17  and  C_18
REMARK                            x       y       z     vdW  Elec       q    Type
REMARK                         _______ _______ _______ _____ _____    ______ ____
ROOT
ATOM      1  O   UNL     1       0.968  10.985  20.747  0.00  0.00    +0.000 OA
ATOM      2  C   UNL     1       1.094  10.703  19.556  0.00  0.00    +0.000 C 
ATOM      3  N   UNL     1       1.152  11.646  18.553  0.00  0.00    +0.000 N 
ATOM      4  N   UNL     1       1.129   9.391  19.113  0.00  0.00    +0.000 N 
ATOM      5  C   UNL     1       1.576   8.933  17.787  0.00  0.00    +0.000 C 
ATOM      6  C   UNL     1       2.827   8.036  17.879  0.00  0.00    +0.000 C 
ATOM      7  N   UNL     1       2.615   6.962  18.861  0.00  0.00    +0.000 N 
ATOM      8  C   UNL     1       2.196   7.425  20.197  0.00  0.00    +0.000 C 
ATOM      9  C   UNL     1       0.934   8.300  20.077  0.00  0.00    +0.000 C 
ATOM     10  H   UNL     1       0.716  11.337  17.695  0.00  0.00    +0.000 HD
ENDROOT
BRANCH   3  11
ATOM     11  C   UNL     1       1.139  13.033  18.772  0.00  0.00    +0.000 A 
ATOM     12  C   UNL     1      -0.071  13.700  18.578  0.00  0.00    +0.000 A 
ATOM     13  C   UNL     1      -0.160  15.069  18.815  0.00  0.00    +0.000 A 
ATOM     14  C   UNL     1       0.945  15.824  19.192  0.00  0.00    +0.000 A 
ATOM     15  N   UNL     1       0.795  17.143  19.374  0.00  0.00    +0.000 NA
ATOM     16  C   UNL     1       1.892  17.862  19.697  0.00  0.00    +0.000 A 
ATOM     17  C   UNL     1       3.154  17.320  19.850  0.00  0.00    +0.000 A 
ATOM     18  C   UNL     1       3.298  15.946  19.672  0.00  0.00    +0.000 A 
ATOM     19  C   UNL     1       2.178  15.159  19.339  0.00  0.00    +0.000 A 
ATOM     20  C   UNL     1       2.265  13.765  19.153  0.00  0.00    +0.000 A 
ENDBRANCH   3  11
BRANCH   7  21
ATOM     21  C   UNL     1       2.801   5.624  18.540  0.00  0.00    +0.000 A 
ATOM     22  C   UNL     1       3.668   5.259  17.481  0.00  0.00    +0.000 A 
ATOM     23  C   UNL     1       3.937   3.935  17.127  0.00  0.00    +0.000 A 
ATOM     24  C   UNL     1       3.361   2.884  17.826  0.00  0.00    +0.000 A 
ATOM     25  C   UNL     1       2.495   3.212  18.869  0.00  0.00    +0.000 A 
ATOM     26  N   UNL     1       1.801   2.369  19.710  0.00  0.00    +0.000 N 
ATOM     27  C   UNL     1       1.030   3.091  20.575  0.00  0.00    +0.000 A 
ATOM     28  C   UNL     1       1.221   4.419  20.284  0.00  0.00    +0.000 A 
ATOM     29  C   UNL     1       2.190   4.529  19.231  0.00  0.00    +0.000 A 
ATOM     30  H   UNL     1       1.849   1.361  19.673  0.00  0.00    +0.000 HD
ENDBRANCH   7  21
TORSDOF 2
ENDMDL
MODEL 9
REMARK VINA RESULT:      -7.8      0.731      1.434
REMARK  Name = 
REMARK  2 active torsions:
REMARK  status: ('A' for Active; 'I' for Inactive)
REMARK    1  A    between atoms: N_3  and  C_4
REMARK    2  A    between atoms: N_17  and  C_18
REMARK                            x       y       z     vdW  Elec       q    Type
REMARK                         _______ _______ _______ _____ _____    ______ ____
ROOT
ATOM      1  O   UNL     1       0.799  11.348  21.222  0.00  0.00    +0.000 OA
ATOM      2  C   UNL     1       0.800  10.815  20.114  0.00  0.00    +0.000 C 
ATOM      3  N   UNL     1       0.765  11.518  18.931  0.00  0.00    +0.000 N 
ATOM      4  N   UNL     1       0.774   9.437  19.963  0.00  0.00    +0.000 N 
ATOM      5  C   UNL     1       1.078   8.693  18.731  0.00  0.00    +0.000 C 
ATOM      6  C   UNL     1       2.322   7.795  18.892  0.00  0.00    +0.000 C 
ATOM      7  N   UNL     1       2.200   6.963  20.097  0.00  0.00    +0.000 N 
ATOM      8  C   UNL     1       1.925   7.714  21.337  0.00  0.00    +0.000 C 
ATOM      9  C   UNL     1       0.667   8.585  21.155  0.00  0.00    +0.000 C 
ATOM     10  H   UNL     1       0.240  11.049  18.206  0.00  0.00    +0.000 HD
ENDROOT
BRANCH   3  11
ATOM     11  C   UNL     1       0.790  12.921  18.846  0.00  0.00    +0.000 A 
ATOM     12  C   UNL     1      -0.392  13.600  19.140  0.00  0.00    +0.000 A 
ATOM     13  C   UNL     1      -0.424  14.992  19.111  0.00  0.00    +0.000 A 
ATOM     14  C   UNL     1       0.684  15.745  18.739  0.00  0.00    +0.000 A 
ATOM     15  N   UNL     1       0.575  17.080  18.702  0.00  0.00    +0.000 NA
ATOM     16  C   UNL     1       1.651  17.788  18.295  0.00  0.00    +0.000 A 
ATOM     17  C   UNL     1       2.851  17.220  17.916  0.00  0.00    +0.000 A 
ATOM     18  C   UNL     1       2.960  15.832  17.969  0.00  0.00    +0.000 A 
ATOM     19  C   UNL     1       1.863  15.057  18.393  0.00  0.00    +0.000 A 
ATOM     20  C   UNL     1       1.919  13.651  18.471  0.00  0.00    +0.000 A 
ENDBRANCH   3  11
BRANCH   7  21
ATOM     21  C   UNL     1       2.338   5.582  20.056  0.00  0.00    +0.000 A 
ATOM     22  C   UNL     1       1.252   4.747  20.416  0.00  0.00    +0.000 A 
ATOM     23  C   UNL     1       1.301   3.352  20.360  0.00  0.00    +0.000 A 
ATOM     24  C   UNL     1       2.446   2.700  19.924  0.00  0.00    +0.000 A 
ATOM     25  C   UNL     1       3.536   3.497  19.571  0.00  0.00    +0.000 A 
ATOM     26  N   UNL     1       4.776   3.105  19.113  0.00  0.00    +0.000 N 
ATOM     27  C   UNL     1       5.575   4.195  18.920  0.00  0.00    +0.000 A 
ATOM     28  C   UNL     1       4.846   5.306  19.265  0.00  0.00    +0.000 A 
ATOM     29  C   UNL     1       3.523   4.895  19.639  0.00  0.00    +0.000 A 
ATOM     30  H   UNL     1       5.050   2.146  18.962  0.00  0.00    +0.000 HD
ENDBRANCH   7  21
TORSDOF 2
ENDMDL
