MODEL 1
REMARK VINA RESULT:      -8.6      0.000      0.000
REMARK  Name = 
REMARK  8 active torsions:
REMARK  status: ('A' for Active; 'I' for Inactive)
REMARK    1  A    between atoms: C_1  and  C_2
REMARK    2  A    between atoms: C_8  and  C_9
REMARK    3  A    between atoms: C_11  and  N_12
REMARK    4  A    between atoms: N_12  and  CA_13
REMARK    5  A    between atoms: CA_13  and  C_14
REMARK    6  A    between atoms: CA_13  and  C_16
REMARK    7  A    between atoms: C_14  and  O_15
REMARK    8  A    between atoms: C_24  and  C_25
REMARK                            x       y       z     vdW  Elec       q    Type
REMARK                         _______ _______ _______ _____ _____    ______ ____
ROOT
ATOM      1  C   UNL     1      -0.591  10.799  18.228  0.00  0.00    +0.000 A 
ATOM      2  C   UNL     1      -0.005   9.559  17.888  0.00  0.00    +0.000 A 
ATOM      3  C   UNL     1       1.359   9.312  17.993  0.00  0.00    +0.000 A 
ATOM      4  C   UNL     1       2.098  10.344  18.556  0.00  0.00    +0.000 A 
ATOM      5  N   UNL     1       1.598  11.541  18.959  0.00  0.00    +0.000 NA
ATOM      6  C   UNL     1       0.255  11.763  18.825  0.00  0.00    +0.000 A 
ENDROOT
BRANCH   1  14
ATOM      7  C   UNL     1      -5.637  12.335  20.500  0.00  0.00    +0.000 C 
ATOM      8  C   UNL     1      -5.471  12.086  19.047  0.00  0.00    +0.000 A 
ATOM      9  N   UNL     1      -6.516  12.143  18.211  0.00  0.00    +0.000 NA
ATOM     10  N   UNL     1      -5.987  11.799  17.019  0.00  0.00    +0.000 N 
ATOM     11  C   UNL     1      -4.657  11.492  17.062  0.00  0.00    +0.000 A 
ATOM     12  C   UNL     1      -3.766  11.038  16.090  0.00  0.00    +0.000 A 
ATOM     13  C   UNL     1      -2.448  10.782  16.505  0.00  0.00    +0.000 A 
ATOM     14  C   UNL     1      -2.005  11.019  17.825  0.00  0.00    +0.000 A 
ATOM     15  C   UNL     1      -2.936  11.536  18.747  0.00  0.00    +0.000 A 
ATOM     16  C   UNL     1      -4.278  11.723  18.377  0.00  0.00    +0.000 A 
ATOM     17  H   UNL     1      -6.602  11.775  16.215  0.00  0.00    +0.000 HD
ENDBRANCH   1  14
BRANCH   6  18
ATOM     18  C   UNL     1      -0.195  13.077  19.366  0.00  0.00    +0.000 A 
ATOM     19  C   UNL     1      -0.269  14.256  18.590  0.00  0.00    +0.000 A 
ATOM     20  C   UNL     1      -0.586  15.502  19.130  0.00  0.00    +0.000 A 
ATOM     21  C   UNL     1      -0.923  15.623  20.476  0.00  0.00    +0.000 A 
ATOM     22  C   UNL     1      -0.954  14.468  21.276  0.00  0.00    +0.000 A 
ATOM     23  C   UNL     1      -1.302  14.236  22.637  0.00  0.00    +0.000 A 
ATOM     24  C   UNL     1      -1.147  12.891  22.882  0.00  0.00    +0.000 A 
ATOM     25  N   UNL     1      -0.711  12.307  21.722  0.00  0.00    +0.000 N 
ATOM     26  C   UNL     1      -0.593  13.240  20.716  0.00  0.00    +0.000 A 
ATOM     27  H   UNL     1      -0.545  11.318  21.576  0.00  0.00    +0.000 HD
ENDBRANCH   6  18
BRANCH   3  28
ATOM     28  N   UNL     1       1.947   8.111  17.623  0.00  0.00    +0.000 N 
ATOM     29  H   UNL     1       1.401   7.522  17.005  0.00  0.00    +0.000 HD
BRANCH  28  30
ATOM     30  CA  UNL     1       2.885   7.373  18.491  0.00  0.00    +0.000 C 
BRANCH  30  31
ATOM     31  C   UNL     1       3.660   6.359  17.657  0.00  0.00    +0.000 A 
ATOM     32  C   UNL     1       4.644   6.800  16.755  0.00  0.00    +0.000 A 
ATOM     33  C   UNL     1       5.348   5.891  15.962  0.00  0.00    +0.000 A 
ATOM     34  C   UNL     1       5.079   4.528  16.056  0.00  0.00    +0.000 A 
ATOM     35  C   UNL     1       4.123   4.071  16.959  0.00  0.00    +0.000 A 
ATOM     36  C   UNL     1       3.427   4.978  17.761  0.00  0.00    +0.000 A 
ENDBRANCH  30  31
BRANCH  30  37
ATOM     37  C   UNL     1       2.171   6.713  19.701  0.00  0.00    +0.000 C 
BRANCH  37  38
ATOM     38  O   UNL     1       2.130   7.550  20.858  0.00  0.00    +0.000 OA
ATOM     39  H   UNL     1       2.439   6.997  21.598  0.00  0.00    +0.000 HD
ENDBRANCH  37  38
ENDBRANCH  30  37
ENDBRANCH  28  30
ENDBRANCH   3  28
TORSDOF 7
ENDMDL
MODEL 2
REMARK VINA RESULT:      -8.3      2.079      2.835
REMARK  Name = 
REMARK  8 active torsions:
REMARK  status: ('A' for Active; 'I' for Inactive)
REMARK    1  A    between atoms: C_1  and  C_2
REMARK    2  A    between atoms: C_8  and  C_9
REMARK    3  A    between atoms: C_11  and  N_12
REMARK    4  A    between atoms: N_12  and  CA_13
REMARK    5  A    between atoms: CA_13  and  C_14
REMARK    6  A    between atoms: CA_13  and  C_16
REMARK    7  A    between atoms: C_14  and  O_15
REMARK    8  A    between atoms: C_24  and  C_25
REMARK                            x       y       z     vdW  Elec       q    Type
REMARK                         _______ _______ _______ _____ _____    ______ ____
ROOT
ATOM      1  C   UNL     1      -0.450  10.166  20.098  0.00  0.00    +0.000 A 
ATOM      2  C   UNL     1       0.147   8.886  20.082  0.00  0.00    +0.000 A 
ATOM      3  C   UNL     1       1.229   8.545  20.887  0.00  0.00    +0.000 A 
ATOM      4  C   UNL     1       1.618   9.526  21.789  0.00  0.00    +0.000 A 
ATOM      5  N   UNL     1       1.056  10.757  21.903  0.00  0.00    +0.000 NA
ATOM      6  C   UNL     1       0.007  11.072  21.083  0.00  0.00    +0.000 A 
ENDROOT
BRANCH   1  14
ATOM      7  C   UNL     1      -5.633  12.526  19.357  0.00  0.00    +0.000 C 
ATOM      8  C   UNL     1      -4.805  12.071  18.214  0.00  0.00    +0.000 A 
ATOM      9  N   UNL     1      -5.266  12.128  16.958  0.00  0.00    +0.000 NA
ATOM     10  N   UNL     1      -4.275  11.575  16.230  0.00  0.00    +0.000 N 
ATOM     11  C   UNL     1      -3.214  11.134  16.969  0.00  0.00    +0.000 A 
ATOM     12  C   UNL     1      -2.043  10.462  16.622  0.00  0.00    +0.000 A 
ATOM     13  C   UNL     1      -1.170  10.122  17.670  0.00  0.00    +0.000 A 
ATOM     14  C   UNL     1      -1.416  10.482  19.013  0.00  0.00    +0.000 A 
ATOM     15  C   UNL     1      -2.586  11.214  19.293  0.00  0.00    +0.000 A 
ATOM     16  C   UNL     1      -3.513  11.495  18.276  0.00  0.00    +0.000 A 
ATOM     17  H   UNL     1      -4.400  11.511  15.227  0.00  0.00    +0.000 HD
ENDBRANCH   1  14
BRANCH   6  18
ATOM     18  C   UNL     1      -0.578  12.417  21.346  0.00  0.00    +0.000 A 
ATOM     19  C   UNL     1      -0.153  13.594  20.687  0.00  0.00    +0.000 A 
ATOM     20  C   UNL     1      -0.631  14.863  21.016  0.00  0.00    +0.000 A 
ATOM     21  C   UNL     1      -1.623  15.016  21.981  0.00  0.00    +0.000 A 
ATOM     22  C   UNL     1      -2.147  13.871  22.605  0.00  0.00    +0.000 A 
ATOM     23  C   UNL     1      -3.179  13.671  23.565  0.00  0.00    +0.000 A 
ATOM     24  C   UNL     1      -3.263  12.321  23.812  0.00  0.00    +0.000 A 
ATOM     25  N   UNL     1      -2.315  11.700  23.042  0.00  0.00    +0.000 N 
ATOM     26  C   UNL     1      -1.622  12.616  22.283  0.00  0.00    +0.000 A 
ATOM     27  H   UNL     1      -2.159  10.701  22.975  0.00  0.00    +0.000 HD
ENDBRANCH   6  18
BRANCH   3  28
ATOM     28  N   UNL     1       1.846   7.303  20.847  0.00  0.00    +0.000 N 
ATOM     29  H   UNL     1       2.617   7.170  21.491  0.00  0.00    +0.000 HD
BRANCH  28  30
ATOM     30  CA  UNL     1       1.936   6.488  19.619  0.00  0.00    +0.000 C 
BRANCH  30  31
ATOM     31  C   UNL     1       1.832   5.010  19.982  0.00  0.00    +0.000 A 
ATOM     32  C   UNL     1       1.411   4.080  19.015  0.00  0.00    +0.000 A 
ATOM     33  C   UNL     1       1.284   2.726  19.333  0.00  0.00    +0.000 A 
ATOM     34  C   UNL     1       1.575   2.280  20.619  0.00  0.00    +0.000 A 
ATOM     35  C   UNL     1       2.014   3.183  21.584  0.00  0.00    +0.000 A 
ATOM     36  C   UNL     1       2.153   4.535  21.264  0.00  0.00    +0.000 A 
ENDBRANCH  30  31
BRANCH  30  37
ATOM     37  C   UNL     1       3.213   6.802  18.796  0.00  0.00    +0.000 C 
BRANCH  37  38
ATOM     38  O   UNL     1       3.052   7.902  17.900  0.00  0.00    +0.000 OA
ATOM     39  H   UNL     1       3.533   8.646  18.302  0.00  0.00    +0.000 HD
ENDBRANCH  37  38
ENDBRANCH  30  37
ENDBRANCH  28  30
ENDBRANCH   3  28
TORSDOF 7
ENDMDL
MODEL 3
REMARK VINA RESULT:      -8.2      2.062      2.828
REMARK  Name = 
REMARK  8 active torsions:
REMARK  status: ('A' for Active; 'I' for Inactive)
REMARK    1  A    between atoms: C_1  and  C_2
REMARK    2  A    between atoms: C_8  and  C_9
REMARK    3  A    between atoms: C_11  and  N_12
REMARK    4  A    between atoms: N_12  and  CA_13
REMARK    5  A    between atoms: CA_13  and  C_14
REMARK    6  A    between atoms: CA_13  and  C_16
REMARK    7  A    between atoms: C_14  and  O_15
REMARK    8  A    between atoms: C_24  and  C_25
REMARK                            x       y       z     vdW  Elec       q    Type
REMARK                         _______ _______ _______ _____ _____    ______ ____
ROOT
ATOM      1  C   UNL     1      -0.358  10.031  20.129  0.00  0.00    +0.000 A 
ATOM      2  C   UNL     1       0.196   8.732  20.091  0.00  0.00    +0.000 A 
ATOM      3  C   UNL     1       1.274   8.345  20.881  0.00  0.00    +0.000 A 
ATOM      4  C   UNL     1       1.705   9.303  21.790  0.00  0.00    +0.000 A 
ATOM      5  N   UNL     1       1.187  10.551  21.923  0.00  0.00    +0.000 NA
ATOM      6  C   UNL     1       0.141  10.910  21.118  0.00  0.00    +0.000 A 
ENDROOT
BRANCH   1  14
ATOM      7  C   UNL     1      -5.505  12.493  19.480  0.00  0.00    +0.000 C 
ATOM      8  C   UNL     1      -4.691  12.055  18.320  0.00  0.00    +0.000 A 
ATOM      9  N   UNL     1      -5.158  12.154  17.069  0.00  0.00    +0.000 NA
ATOM     10  N   UNL     1      -4.180  11.603  16.321  0.00  0.00    +0.000 N 
ATOM     11  C   UNL     1      -3.122  11.126  17.042  0.00  0.00    +0.000 A 
ATOM     12  C   UNL     1      -1.964  10.445  16.671  0.00  0.00    +0.000 A 
ATOM     13  C   UNL     1      -1.091  10.063  17.704  0.00  0.00    +0.000 A 
ATOM     14  C   UNL     1      -1.324  10.391  19.058  0.00  0.00    +0.000 A 
ATOM     15  C   UNL     1      -2.480  11.135  19.364  0.00  0.00    +0.000 A 
ATOM     16  C   UNL     1      -3.408  11.457  18.359  0.00  0.00    +0.000 A 
ATOM     17  H   UNL     1      -4.311  11.569  15.317  0.00  0.00    +0.000 HD
ENDBRANCH   1  14
BRANCH   6  18
ATOM     18  C   UNL     1      -0.396  12.271  21.402  0.00  0.00    +0.000 A 
ATOM     19  C   UNL     1       0.088  13.445  20.779  0.00  0.00    +0.000 A 
ATOM     20  C   UNL     1      -0.346  14.724  21.130  0.00  0.00    +0.000 A 
ATOM     21  C   UNL     1      -1.350  14.894  22.079  0.00  0.00    +0.000 A 
ATOM     22  C   UNL     1      -1.932  13.756  22.665  0.00  0.00    +0.000 A 
ATOM     23  C   UNL     1      -2.990  13.576  23.600  0.00  0.00    +0.000 A 
ATOM     24  C   UNL     1      -3.132  12.225  23.813  0.00  0.00    +0.000 A 
ATOM     25  N   UNL     1      -2.194  11.585  23.047  0.00  0.00    +0.000 N 
ATOM     26  C   UNL     1      -1.450  12.490  22.323  0.00  0.00    +0.000 A 
ATOM     27  H   UNL     1      -2.076  10.582  22.959  0.00  0.00    +0.000 HD
ENDBRANCH   6  18
BRANCH   3  28
ATOM     28  N   UNL     1       1.849   7.085  20.821  0.00  0.00    +0.000 N 
ATOM     29  H   UNL     1       2.439   6.828  21.604  0.00  0.00    +0.000 HD
BRANCH  28  30
ATOM     30  CA  UNL     1       2.208   6.423  19.551  0.00  0.00    +0.000 C 
BRANCH  30  31
ATOM     31  C   UNL     1       1.786   4.958  19.603  0.00  0.00    +0.000 A 
ATOM     32  C   UNL     1       1.541   4.344  20.844  0.00  0.00    +0.000 A 
ATOM     33  C   UNL     1       1.180   2.996  20.916  0.00  0.00    +0.000 A 
ATOM     34  C   UNL     1       1.059   2.242  19.752  0.00  0.00    +0.000 A 
ATOM     35  C   UNL     1       1.276   2.839  18.513  0.00  0.00    +0.000 A 
ATOM     36  C   UNL     1       1.626   4.189  18.439  0.00  0.00    +0.000 A 
ENDBRANCH  30  31
BRANCH  30  37
ATOM     37  C   UNL     1       3.711   6.589  19.204  0.00  0.00    +0.000 C 
BRANCH  37  38
ATOM     38  O   UNL     1       4.548   5.627  19.848  0.00  0.00    +0.000 OA
ATOM     39  H   UNL     1       5.033   5.176  19.134  0.00  0.00    +0.000 HD
ENDBRANCH  37  38
ENDBRANCH  30  37
ENDBRANCH  28  30
ENDBRANCH   3  28
TORSDOF 7
ENDMDL
MODEL 4
REMARK VINA RESULT:      -8.2      2.045      3.137
REMARK  Name = 
REMARK  8 active torsions:
REMARK  status: ('A' for Active; 'I' for Inactive)
REMARK    1  A    between atoms: C_1  and  C_2
REMARK    2  A    between atoms: C_8  and  C_9
REMARK    3  A    between atoms: C_11  and  N_12
REMARK    4  A    between atoms: N_12  and  CA_13
REMARK    5  A    between atoms: CA_13  and  C_14
REMARK    6  A    between atoms: CA_13  and  C_16
REMARK    7  A    between atoms: C_14  and  O_15
REMARK    8  A    between atoms: C_24  and  C_25
REMARK                            x       y       z     vdW  Elec       q    Type
REMARK                         _______ _______ _______ _____ _____    ______ ____
ROOT
ATOM      1  C   UNL     1      -0.403   9.928  20.289  0.00  0.00    +0.000 A 
ATOM      2  C   UNL     1       0.376   8.778  20.030  0.00  0.00    +0.000 A 
ATOM      3  C   UNL     1       1.447   8.393  20.829  0.00  0.00    +0.000 A 
ATOM      4  C   UNL     1       1.635   9.168  21.967  0.00  0.00    +0.000 A 
ATOM      5  N   UNL     1       0.894  10.252  22.311  0.00  0.00    +0.000 NA
ATOM      6  C   UNL     1      -0.140  10.619  21.495  0.00  0.00    +0.000 A 
ENDROOT
BRANCH   1  14
ATOM      7  C   UNL     1      -5.550  12.404  19.693  0.00  0.00    +0.000 C 
ATOM      8  C   UNL     1      -4.698  12.070  18.526  0.00  0.00    +0.000 A 
ATOM      9  N   UNL     1      -5.128  12.271  17.275  0.00  0.00    +0.000 NA
ATOM     10  N   UNL     1      -4.124  11.792  16.513  0.00  0.00    +0.000 N 
ATOM     11  C   UNL     1      -3.083  11.262  17.223  0.00  0.00    +0.000 A 
ATOM     12  C   UNL     1      -1.909  10.622  16.831  0.00  0.00    +0.000 A 
ATOM     13  C   UNL     1      -1.063  10.160  17.855  0.00  0.00    +0.000 A 
ATOM     14  C   UNL     1      -1.340  10.372  19.224  0.00  0.00    +0.000 A 
ATOM     15  C   UNL     1      -2.511  11.079  19.556  0.00  0.00    +0.000 A 
ATOM     16  C   UNL     1      -3.411  11.479  18.554  0.00  0.00    +0.000 A 
ATOM     17  H   UNL     1      -4.225  11.841  15.506  0.00  0.00    +0.000 HD
ENDBRANCH   1  14
BRANCH   6  18
ATOM     18  C   UNL     1      -0.930  11.774  22.008  0.00  0.00    +0.000 A 
ATOM     19  C   UNL     1      -1.949  11.651  22.981  0.00  0.00    +0.000 A 
ATOM     20  C   UNL     1      -2.755  12.719  23.375  0.00  0.00    +0.000 A 
ATOM     21  C   UNL     1      -2.535  13.996  22.866  0.00  0.00    +0.000 A 
ATOM     22  C   UNL     1      -1.476  14.195  21.963  0.00  0.00    +0.000 A 
ATOM     23  C   UNL     1      -0.953  15.350  21.315  0.00  0.00    +0.000 A 
ATOM     24  C   UNL     1       0.105  14.946  20.534  0.00  0.00    +0.000 A 
ATOM     25  N   UNL     1       0.233  13.590  20.681  0.00  0.00    +0.000 N 
ATOM     26  C   UNL     1      -0.710  13.099  21.557  0.00  0.00    +0.000 A 
ATOM     27  H   UNL     1       0.948  13.007  20.262  0.00  0.00    +0.000 HD
ENDBRANCH   6  18
BRANCH   3  28
ATOM     28  N   UNL     1       2.241   7.288  20.559  0.00  0.00    +0.000 N 
ATOM     29  H   UNL     1       3.160   7.287  20.987  0.00  0.00    +0.000 HD
BRANCH  28  30
ATOM     30  CA  UNL     1       2.160   6.529  19.296  0.00  0.00    +0.000 C 
BRANCH  30  31
ATOM     31  C   UNL     1       1.876   5.062  19.601  0.00  0.00    +0.000 A 
ATOM     32  C   UNL     1       1.872   4.612  20.933  0.00  0.00    +0.000 A 
ATOM     33  C   UNL     1       1.641   3.267  21.233  0.00  0.00    +0.000 A 
ATOM     34  C   UNL     1       1.410   2.353  20.209  0.00  0.00    +0.000 A 
ATOM     35  C   UNL     1       1.389   2.784  18.885  0.00  0.00    +0.000 A 
ATOM     36  C   UNL     1       1.609   4.130  18.585  0.00  0.00    +0.000 A 
ENDBRANCH  30  31
BRANCH  30  37
ATOM     37  C   UNL     1       3.427   6.710  18.418  0.00  0.00    +0.000 C 
BRANCH  37  38
ATOM     38  O   UNL     1       3.344   7.824  17.528  0.00  0.00    +0.000 OA
ATOM     39  H   UNL     1       3.567   7.478  16.646  0.00  0.00    +0.000 HD
ENDBRANCH  37  38
ENDBRANCH  30  37
ENDBRANCH  28  30
ENDBRANCH   3  28
TORSDOF 7
ENDMDL
MODEL 5
REMARK VINA RESULT:      -8.2      3.126     10.178
REMARK  Name = 
REMARK  8 active torsions:
REMARK  status: ('A' for Active; 'I' for Inactive)
REMARK    1  A    between atoms: C_1  and  C_2
REMARK    2  A    between atoms: C_8  and  C_9
REMARK    3  A    between atoms: C_11  and  N_12
REMARK    4  A    between atoms: N_12  and  CA_13
REMARK    5  A    between atoms: CA_13  and  C_14
REMARK    6  A    between atoms: CA_13  and  C_16
REMARK    7  A    between atoms: C_14  and  O_15
REMARK    8  A    between atoms: C_24  and  C_25
REMARK                            x       y       z     vdW  Elec       q    Type
REMARK                         _______ _______ _______ _____ _____    ______ ____
ROOT
ATOM      1  C   UNL     1       3.778   7.009  17.762  0.00  0.00    +0.000 A 
ATOM      2  C   UNL     1       3.328   8.333  17.560  0.00  0.00    +0.000 A 
ATOM      3  C   UNL     1       2.128   8.812  18.073  0.00  0.00    +0.000 A 
ATOM      4  C   UNL     1       1.446   7.921  18.892  0.00  0.00    +0.000 A 
ATOM      5  N   UNL     1       1.843   6.655  19.179  0.00  0.00    +0.000 NA
ATOM      6  C   UNL     1       3.018   6.204  18.642  0.00  0.00    +0.000 A 
ENDROOT
BRANCH   1  14
ATOM      7  C   UNL     1       4.932   3.695  13.216  0.00  0.00    +0.000 C 
ATOM      8  C   UNL     1       5.987   4.473  13.910  0.00  0.00    +0.000 A 
ATOM      9  N   UNL     1       7.271   4.378  13.545  0.00  0.00    +0.000 NA
ATOM     10  N   UNL     1       7.913   5.162  14.435  0.00  0.00    +0.000 N 
ATOM     11  C   UNL     1       7.099   5.728  15.376  0.00  0.00    +0.000 A 
ATOM     12  C   UNL     1       7.362   6.531  16.484  0.00  0.00    +0.000 A 
ATOM     13  C   UNL     1       6.261   6.908  17.273  0.00  0.00    +0.000 A 
ATOM     14  C   UNL     1       4.934   6.550  16.948  0.00  0.00    +0.000 A 
ATOM     15  C   UNL     1       4.726   5.789  15.782  0.00  0.00    +0.000 A 
ATOM     16  C   UNL     1       5.816   5.333  15.023  0.00  0.00    +0.000 A 
ATOM     17  H   UNL     1       8.919   5.250  14.353  0.00  0.00    +0.000 HD
ENDBRANCH   1  14
BRANCH   6  18
ATOM     18  C   UNL     1       3.392   4.830  19.082  0.00  0.00    +0.000 A 
ATOM     19  C   UNL     1       4.673   4.493  19.577  0.00  0.00    +0.000 A 
ATOM     20  C   UNL     1       5.048   3.184  19.884  0.00  0.00    +0.000 A 
ATOM     21  C   UNL     1       4.128   2.144  19.782  0.00  0.00    +0.000 A 
ATOM     22  C   UNL     1       2.813   2.435  19.382  0.00  0.00    +0.000 A 
ATOM     23  C   UNL     1       1.641   1.640  19.233  0.00  0.00    +0.000 A 
ATOM     24  C   UNL     1       0.627   2.468  18.810  0.00  0.00    +0.000 A 
ATOM     25  N   UNL     1       1.146   3.730  18.690  0.00  0.00    +0.000 N 
ATOM     26  C   UNL     1       2.478   3.749  19.043  0.00  0.00    +0.000 A 
ATOM     27  H   UNL     1       0.634   4.566  18.435  0.00  0.00    +0.000 HD
ENDBRANCH   6  18
BRANCH   3  28
ATOM     28  N   UNL     1       1.660  10.098  17.845  0.00  0.00    +0.000 N 
ATOM     29  H   UNL     1       2.186  10.649  17.177  0.00  0.00    +0.000 HD
BRANCH  28  30
ATOM     30  CA  UNL     1       0.964  10.896  18.874  0.00  0.00    +0.000 C 
BRANCH  30  31
ATOM     31  C   UNL     1      -0.530  10.927  18.568  0.00  0.00    +0.000 A 
ATOM     32  C   UNL     1      -1.068  10.049  17.611  0.00  0.00    +0.000 A 
ATOM     33  C   UNL     1      -2.429  10.079  17.298  0.00  0.00    +0.000 A 
ATOM     34  C   UNL     1      -3.272  10.986  17.933  0.00  0.00    +0.000 A 
ATOM     35  C   UNL     1      -2.761  11.849  18.899  0.00  0.00    +0.000 A 
ATOM     36  C   UNL     1      -1.403  11.812  19.222  0.00  0.00    +0.000 A 
ENDBRANCH  30  31
BRANCH  30  37
ATOM     37  C   UNL     1       1.563  12.320  19.019  0.00  0.00    +0.000 C 
BRANCH  37  38
ATOM     38  O   UNL     1       1.846  12.944  17.767  0.00  0.00    +0.000 OA
ATOM     39  H   UNL     1       0.985  13.221  17.406  0.00  0.00    +0.000 HD
ENDBRANCH  37  38
ENDBRANCH  30  37
ENDBRANCH  28  30
ENDBRANCH   3  28
TORSDOF 7
ENDMDL
MODEL 6
REMARK VINA RESULT:      -8.1      3.692      7.612
REMARK  Name = 
REMARK  8 active torsions:
REMARK  status: ('A' for Active; 'I' for Inactive)
REMARK    1  A    between atoms: C_1  and  C_2
REMARK    2  A    between atoms: C_8  and  C_9
REMARK    3  A    between atoms: C_11  and  N_12
REMARK    4  A    between atoms: N_12  and  CA_13
REMARK    5  A    between atoms: CA_13  and  C_14
REMARK    6  A    between atoms: CA_13  and  C_16
REMARK    7  A    between atoms: C_14  and  O_15
REMARK    8  A    between atoms: C_24  and  C_25
REMARK                            x       y       z     vdW  Elec       q    Type
REMARK                         _______ _______ _______ _____ _____    ______ ____
ROOT
ATOM      1  C   UNL     1       0.510  11.857  19.682  0.00  0.00    +0.000 A 
ATOM      2  C   UNL     1       1.426  12.824  20.153  0.00  0.00    +0.000 A 
ATOM      3  C   UNL     1       1.456  14.132  19.680  0.00  0.00    +0.000 A 
ATOM      4  C   UNL     1       0.447  14.451  18.780  0.00  0.00    +0.000 A 
ATOM      5  N   UNL     1      -0.501  13.592  18.326  0.00  0.00    +0.000 NA
ATOM      6  C   UNL     1      -0.493  12.307  18.792  0.00  0.00    +0.000 A 
ENDROOT
BRANCH   1  14
ATOM      7  C   UNL     1       3.183   7.151  17.762  0.00  0.00    +0.000 C 
ATOM      8  C   UNL     1       2.500   7.186  19.078  0.00  0.00    +0.000 A 
ATOM      9  N   UNL     1       2.419   6.092  19.846  0.00  0.00    +0.000 NA
ATOM     10  N   UNL     1       1.683   6.498  20.901  0.00  0.00    +0.000 N 
ATOM     11  C   UNL     1       1.261   7.795  20.826  0.00  0.00    +0.000 A 
ATOM     12  C   UNL     1       0.448   8.568  21.653  0.00  0.00    +0.000 A 
ATOM     13  C   UNL     1       0.185   9.885  21.238  0.00  0.00    +0.000 A 
ATOM     14  C   UNL     1       0.752  10.443  20.071  0.00  0.00    +0.000 A 
ATOM     15  C   UNL     1       1.616   9.633  19.309  0.00  0.00    +0.000 A 
ATOM     16  C   UNL     1       1.828   8.290  19.659  0.00  0.00    +0.000 A 
ATOM     17  H   UNL     1       1.490   5.826  21.633  0.00  0.00    +0.000 HD
ENDBRANCH   1  14
BRANCH   6  18
ATOM     18  C   UNL     1      -1.621  11.475  18.285  0.00  0.00    +0.000 A 
ATOM     19  C   UNL     1      -1.445  10.352  17.444  0.00  0.00    +0.000 A 
ATOM     20  C   UNL     1      -2.512   9.646  16.887  0.00  0.00    +0.000 A 
ATOM     21  C   UNL     1      -3.824   9.983  17.205  0.00  0.00    +0.000 A 
ATOM     22  C   UNL     1      -4.057  11.034  18.108  0.00  0.00    +0.000 A 
ATOM     23  C   UNL     1      -5.240  11.585  18.678  0.00  0.00    +0.000 A 
ATOM     24  C   UNL     1      -4.862  12.612  19.511  0.00  0.00    +0.000 A 
ATOM     25  N   UNL     1      -3.496  12.706  19.459  0.00  0.00    +0.000 N 
ATOM     26  C   UNL     1      -2.970  11.748  18.620  0.00  0.00    +0.000 A 
ATOM     27  H   UNL     1      -2.919  13.342  19.996  0.00  0.00    +0.000 HD
ENDBRANCH   6  18
BRANCH   3  28
ATOM     28  N   UNL     1       2.378  15.076  20.107  0.00  0.00    +0.000 N 
ATOM     29  H   UNL     1       2.378  15.279  21.100  0.00  0.00    +0.000 HD
BRANCH  28  30
ATOM     30  CA  UNL     1       2.836  16.195  19.260  0.00  0.00    +0.000 C 
BRANCH  30  31
ATOM     31  C   UNL     1       4.290  15.966  18.857  0.00  0.00    +0.000 A 
ATOM     32  C   UNL     1       4.640  14.824  18.115  0.00  0.00    +0.000 A 
ATOM     33  C   UNL     1       5.968  14.583  17.758  0.00  0.00    +0.000 A 
ATOM     34  C   UNL     1       6.966  15.475  18.137  0.00  0.00    +0.000 A 
ATOM     35  C   UNL     1       6.636  16.623  18.853  0.00  0.00    +0.000 A 
ATOM     36  C   UNL     1       5.306  16.872  19.200  0.00  0.00    +0.000 A 
ENDBRANCH  30  31
BRANCH  30  37
ATOM     37  C   UNL     1       2.626  17.573  19.942  0.00  0.00    +0.000 C 
BRANCH  37  38
ATOM     38  O   UNL     1       1.818  18.465  19.175  0.00  0.00    +0.000 OA
ATOM     39  H   UNL     1       1.651  18.014  18.328  0.00  0.00    +0.000 HD
ENDBRANCH  37  38
ENDBRANCH  30  37
ENDBRANCH  28  30
ENDBRANCH   3  28
TORSDOF 7
ENDMDL
MODEL 7
REMARK VINA RESULT:      -8.1      0.904      1.874
REMARK  Name = 
REMARK  8 active torsions:
REMARK  status: ('A' for Active; 'I' for Inactive)
REMARK    1  A    between atoms: C_1  and  C_2
REMARK    2  A    between atoms: C_8  and  C_9
REMARK    3  A    between atoms: C_11  and  N_12
REMARK    4  A    between atoms: N_12  and  CA_13
REMARK    5  A    between atoms: CA_13  and  C_14
REMARK    6  A    between atoms: CA_13  and  C_16
REMARK    7  A    between atoms: C_14  and  O_15
REMARK    8  A    between atoms: C_24  and  C_25
REMARK                            x       y       z     vdW  Elec       q    Type
REMARK                         _______ _______ _______ _____ _____    ______ ____
ROOT
ATOM      1  C   UNL     1      -0.937  10.887  18.579  0.00  0.00    +0.000 A 
ATOM      2  C   UNL     1      -0.213   9.769  18.106  0.00  0.00    +0.000 A 
ATOM      3  C   UNL     1       1.144   9.589  18.350  0.00  0.00    +0.000 A 
ATOM      4  C   UNL     1       1.719  10.539  19.184  0.00  0.00    +0.000 A 
ATOM      5  N   UNL     1       1.075  11.606  19.722  0.00  0.00    +0.000 NA
ATOM      6  C   UNL     1      -0.255  11.770  19.447  0.00  0.00    +0.000 A 
ENDROOT
BRANCH   1  14
ATOM      7  C   UNL     1      -6.259  12.110  20.356  0.00  0.00    +0.000 C 
ATOM      8  C   UNL     1      -5.922  11.971  18.919  0.00  0.00    +0.000 A 
ATOM      9  N   UNL     1      -6.868  12.057  17.975  0.00  0.00    +0.000 NA
ATOM     10  N   UNL     1      -6.197  11.815  16.830  0.00  0.00    +0.000 N 
ATOM     11  C   UNL     1      -4.869  11.544  17.004  0.00  0.00    +0.000 A 
ATOM     12  C   UNL     1      -3.859  11.186  16.112  0.00  0.00    +0.000 A 
ATOM     13  C   UNL     1      -2.587  10.939  16.657  0.00  0.00    +0.000 A 
ATOM     14  C   UNL     1      -2.304  11.094  18.032  0.00  0.00    +0.000 A 
ATOM     15  C   UNL     1      -3.350  11.517  18.874  0.00  0.00    +0.000 A 
ATOM     16  C   UNL     1      -4.648  11.691  18.367  0.00  0.00    +0.000 A 
ATOM     17  H   UNL     1      -6.716  11.831  15.961  0.00  0.00    +0.000 HD
ENDBRANCH   1  14
BRANCH   6  18
ATOM     18  C   UNL     1      -0.875  12.930  20.148  0.00  0.00    +0.000 A 
ATOM     19  C   UNL     1      -1.653  12.805  21.322  0.00  0.00    +0.000 A 
ATOM     20  C   UNL     1      -2.319  13.882  21.909  0.00  0.00    +0.000 A 
ATOM     21  C   UNL     1      -2.181  15.166  21.390  0.00  0.00    +0.000 A 
ATOM     22  C   UNL     1      -1.347  15.363  20.276  0.00  0.00    +0.000 A 
ATOM     23  C   UNL     1      -0.949  16.522  19.551  0.00  0.00    +0.000 A 
ATOM     24  C   UNL     1      -0.106  16.113  18.543  0.00  0.00    +0.000 A 
ATOM     25  N   UNL     1       0.013  14.751  18.630  0.00  0.00    +0.000 N 
ATOM     26  C   UNL     1      -0.723  14.260  19.686  0.00  0.00    +0.000 A 
ATOM     27  H   UNL     1       0.599  14.163  18.050  0.00  0.00    +0.000 HD
ENDBRANCH   6  18
BRANCH   3  28
ATOM     28  N   UNL     1       1.871   8.516  17.856  0.00  0.00    +0.000 N 
ATOM     29  H   UNL     1       1.473   8.042  17.054  0.00  0.00    +0.000 HD
BRANCH  28  30
ATOM     30  CA  UNL     1       2.719   7.658  18.706  0.00  0.00    +0.000 C 
BRANCH  30  31
ATOM     31  C   UNL     1       3.467   6.655  17.833  0.00  0.00    +0.000 A 
ATOM     32  C   UNL     1       3.165   5.285  17.924  0.00  0.00    +0.000 A 
ATOM     33  C   UNL     1       3.856   4.348  17.153  0.00  0.00    +0.000 A 
ATOM     34  C   UNL     1       4.858   4.763  16.281  0.00  0.00    +0.000 A 
ATOM     35  C   UNL     1       5.156   6.118  16.161  0.00  0.00    +0.000 A 
ATOM     36  C   UNL     1       4.458   7.057  16.923  0.00  0.00    +0.000 A 
ENDBRANCH  30  31
BRANCH  30  37
ATOM     37  C   UNL     1       1.910   6.964  19.834  0.00  0.00    +0.000 C 
BRANCH  37  38
ATOM     38  O   UNL     1       2.022   7.621  21.097  0.00  0.00    +0.000 OA
ATOM     39  H   UNL     1       2.819   8.178  21.038  0.00  0.00    +0.000 HD
ENDBRANCH  37  38
ENDBRANCH  30  37
ENDBRANCH  28  30
ENDBRANCH   3  28
TORSDOF 7
ENDMDL
MODEL 8
REMARK VINA RESULT:      -8.1      2.203      3.530
REMARK  Name = 
REMARK  8 active torsions:
REMARK  status: ('A' for Active; 'I' for Inactive)
REMARK    1  A    between atoms: C_1  and  C_2
REMARK    2  A    between atoms: C_8  and  C_9
REMARK    3  A    between atoms: C_11  and  N_12
REMARK    4  A    between atoms: N_12  and  CA_13
REMARK    5  A    between atoms: CA_13  and  C_14
REMARK    6  A    between atoms: CA_13  and  C_16
REMARK    7  A    between atoms: C_14  and  O_15
REMARK    8  A    between atoms: C_24  and  C_25
REMARK                            x       y       z     vdW  Elec       q    Type
REMARK                         _______ _______ _______ _____ _____    ______ ____
ROOT
ATOM      1  C   UNL     1      -0.454  10.122  20.472  0.00  0.00    +0.000 A 
ATOM      2  C   UNL     1       0.328   9.033  20.023  0.00  0.00    +0.000 A 
ATOM      3  C   UNL     1       1.444   8.569  20.710  0.00  0.00    +0.000 A 
ATOM      4  C   UNL     1       1.679   9.190  21.931  0.00  0.00    +0.000 A 
ATOM      5  N   UNL     1       0.940  10.202  22.453  0.00  0.00    +0.000 NA
ATOM      6  C   UNL     1      -0.140  10.652  21.745  0.00  0.00    +0.000 A 
ENDROOT
BRANCH   1  14
ATOM      7  C   UNL     1      -2.365   9.342  15.113  0.00  0.00    +0.000 C 
ATOM      8  C   UNL     1      -2.970  10.342  16.026  0.00  0.00    +0.000 A 
ATOM      9  N   UNL     1      -3.948  11.157  15.611  0.00  0.00    +0.000 NA
ATOM     10  N   UNL     1      -4.179  11.946  16.680  0.00  0.00    +0.000 N 
ATOM     11  C   UNL     1      -3.368  11.694  17.750  0.00  0.00    +0.000 A 
ATOM     12  C   UNL     1      -3.237  12.308  18.995  0.00  0.00    +0.000 A 
ATOM     13  C   UNL     1      -2.250  11.799  19.856  0.00  0.00    +0.000 A 
ATOM     14  C   UNL     1      -1.451  10.682  19.522  0.00  0.00    +0.000 A 
ATOM     15  C   UNL     1      -1.671  10.066  18.276  0.00  0.00    +0.000 A 
ATOM     16  C   UNL     1      -2.595  10.606  17.366  0.00  0.00    +0.000 A 
ATOM     17  H   UNL     1      -4.897  12.655  16.602  0.00  0.00    +0.000 HD
ENDBRANCH   1  14
BRANCH   6  18
ATOM     18  C   UNL     1      -0.920  11.711  22.446  0.00  0.00    +0.000 A 
ATOM     19  C   UNL     1      -2.089  11.449  23.198  0.00  0.00    +0.000 A 
ATOM     20  C   UNL     1      -2.871  12.459  23.759  0.00  0.00    +0.000 A 
ATOM     21  C   UNL     1      -2.483  13.792  23.661  0.00  0.00    +0.000 A 
ATOM     22  C   UNL     1      -1.281  14.103  23.002  0.00  0.00    +0.000 A 
ATOM     23  C   UNL     1      -0.581  15.322  22.778  0.00  0.00    +0.000 A 
ATOM     24  C   UNL     1       0.558  15.023  22.067  0.00  0.00    +0.000 A 
ATOM     25  N   UNL     1       0.566  13.671  21.847  0.00  0.00    +0.000 N 
ATOM     26  C   UNL     1      -0.538  13.075  22.415  0.00  0.00    +0.000 A 
ATOM     27  H   UNL     1       1.298  13.144  21.385  0.00  0.00    +0.000 HD
ENDBRANCH   6  18
BRANCH   3  28
ATOM     28  N   UNL     1       2.240   7.528  20.256  0.00  0.00    +0.000 N 
ATOM     29  H   UNL     1       3.208   7.546  20.554  0.00  0.00    +0.000 HD
BRANCH  28  30
ATOM     30  CA  UNL     1       2.017   6.850  18.964  0.00  0.00    +0.000 C 
BRANCH  30  31
ATOM     31  C   UNL     1       1.725   5.373  19.207  0.00  0.00    +0.000 A 
ATOM     32  C   UNL     1       1.664   4.482  18.121  0.00  0.00    +0.000 A 
ATOM     33  C   UNL     1       1.372   3.131  18.320  0.00  0.00    +0.000 A 
ATOM     34  C   UNL     1       1.134   2.649  19.603  0.00  0.00    +0.000 A 
ATOM     35  C   UNL     1       1.211   3.512  20.694  0.00  0.00    +0.000 A 
ATOM     36  C   UNL     1       1.515   4.860  20.498  0.00  0.00    +0.000 A 
ENDBRANCH  30  31
BRANCH  30  37
ATOM     37  C   UNL     1       3.198   7.058  17.978  0.00  0.00    +0.000 C 
BRANCH  37  38
ATOM     38  O   UNL     1       4.419   6.471  18.427  0.00  0.00    +0.000 OA
ATOM     39  H   UNL     1       4.855   7.147  18.976  0.00  0.00    +0.000 HD
ENDBRANCH  37  38
ENDBRANCH  30  37
ENDBRANCH  28  30
ENDBRANCH   3  28
TORSDOF 7
ENDMDL
MODEL 9
REMARK VINA RESULT:      -8.0      1.989      3.015
REMARK  Name = 
REMARK  8 active torsions:
REMARK  status: ('A' for Active; 'I' for Inactive)
REMARK    1  A    between atoms: C_1  and  C_2
REMARK    2  A    between atoms: C_8  and  C_9
REMARK    3  A    between atoms: C_11  and  N_12
REMARK    4  A    between atoms: N_12  and  CA_13
REMARK    5  A    between atoms: CA_13  and  C_14
REMARK    6  A    between atoms: CA_13  and  C_16
REMARK    7  A    between atoms: C_14  and  O_15
REMARK    8  A    between atoms: C_24  and  C_25
REMARK                            x       y       z     vdW  Elec       q    Type
REMARK                         _______ _______ _______ _____ _____    ______ ____
ROOT
ATOM      1  C   UNL     1      -0.517  10.185  19.970  0.00  0.00    +0.000 A 
ATOM      2  C   UNL     1       0.125   8.927  19.973  0.00  0.00    +0.000 A 
ATOM      3  C   UNL     1       1.243   8.649  20.752  0.00  0.00    +0.000 A 
ATOM      4  C   UNL     1       1.626   9.671  21.611  0.00  0.00    +0.000 A 
ATOM      5  N   UNL     1       1.024  10.884  21.706  0.00  0.00    +0.000 NA
ATOM      6  C   UNL     1      -0.061  11.137  20.912  0.00  0.00    +0.000 A 
ENDROOT
BRANCH   1  14
ATOM      7  C   UNL     1      -5.703  12.554  19.286  0.00  0.00    +0.000 C 
ATOM      8  C   UNL     1      -4.933  12.004  18.144  0.00  0.00    +0.000 A 
ATOM      9  N   UNL     1      -5.450  11.975  16.910  0.00  0.00    +0.000 NA
ATOM     10  N   UNL     1      -4.499  11.355  16.181  0.00  0.00    +0.000 N 
ATOM     11  C   UNL     1      -3.410  10.956  16.903  0.00  0.00    +0.000 A 
ATOM     12  C   UNL     1      -2.262  10.244  16.556  0.00  0.00    +0.000 A 
ATOM     13  C   UNL     1      -1.346   9.971  17.586  0.00  0.00    +0.000 A 
ATOM     14  C   UNL     1      -1.528  10.433  18.909  0.00  0.00    +0.000 A 
ATOM     15  C   UNL     1      -2.676  11.200  19.185  0.00  0.00    +0.000 A 
ATOM     16  C   UNL     1      -3.645  11.417  18.192  0.00  0.00    +0.000 A 
ATOM     17  H   UNL     1      -4.670  11.219  15.193  0.00  0.00    +0.000 HD
ENDBRANCH   1  14
BRANCH   6  18
ATOM     18  C   UNL     1      -0.685  12.469  21.152  0.00  0.00    +0.000 A 
ATOM     19  C   UNL     1      -1.633  12.712  22.173  0.00  0.00    +0.000 A 
ATOM     20  C   UNL     1      -2.292  13.933  22.322  0.00  0.00    +0.000 A 
ATOM     21  C   UNL     1      -1.980  15.009  21.495  0.00  0.00    +0.000 A 
ATOM     22  C   UNL     1      -0.980  14.851  20.521  0.00  0.00    +0.000 A 
ATOM     23  C   UNL     1      -0.392  15.739  19.576  0.00  0.00    +0.000 A 
ATOM     24  C   UNL     1       0.555  15.031  18.873  0.00  0.00    +0.000 A 
ATOM     25  N   UNL     1       0.553  13.748  19.353  0.00  0.00    +0.000 N 
ATOM     26  C   UNL     1      -0.364  13.605  20.370  0.00  0.00    +0.000 A 
ATOM     27  H   UNL     1       1.171  12.999  19.061  0.00  0.00    +0.000 HD
ENDBRANCH   6  18
BRANCH   3  28
ATOM     28  N   UNL     1       1.903   7.429  20.729  0.00  0.00    +0.000 N 
ATOM     29  H   UNL     1       2.705   7.347  21.344  0.00  0.00    +0.000 HD
BRANCH  28  30
ATOM     30  CA  UNL     1       1.971   6.572  19.529  0.00  0.00    +0.000 C 
BRANCH  30  31
ATOM     31  C   UNL     1       1.858   5.108  19.941  0.00  0.00    +0.000 A 
ATOM     32  C   UNL     1       1.392   4.155  19.019  0.00  0.00    +0.000 A 
ATOM     33  C   UNL     1       1.256   2.813  19.384  0.00  0.00    +0.000 A 
ATOM     34  C   UNL     1       1.582   2.404  20.674  0.00  0.00    +0.000 A 
ATOM     35  C   UNL     1       2.066   3.330  21.594  0.00  0.00    +0.000 A 
ATOM     36  C   UNL     1       2.213   4.670  21.227  0.00  0.00    +0.000 A 
ENDBRANCH  30  31
BRANCH  30  37
ATOM     37  C   UNL     1       3.242   6.846  18.681  0.00  0.00    +0.000 C 
BRANCH  37  38
ATOM     38  O   UNL     1       3.083   7.924  17.757  0.00  0.00    +0.000 OA
ATOM     39  H   UNL     1       2.144   8.175  17.800  0.00  0.00    +0.000 HD
ENDBRANCH  37  38
ENDBRANCH  30  37
ENDBRANCH  28  30
ENDBRANCH   3  28
TORSDOF 7
ENDMDL
