MODEL 1
REMARK VINA RESULT:      -7.7      0.000      0.000
REMARK  Name = 
REMARK  13 active torsions:
REMARK  status: ('A' for Active; 'I' for Inactive)
REMARK    1  A    between atoms: C_1  and  C_2
REMARK    2  A    between atoms: N_7  and  C_8
REMARK    3  A    between atoms: C_8  and  C_9
REMARK    4  A    between atoms: C_9  and  C_10
REMARK    5  A    between atoms: C_9  and  C_11
REMARK    6  A    between atoms: C_15  and  C_16
REMARK    7  A    between atoms: N_18  and  C_19
REMARK    8  A    between atoms: C_19  and  C_20
REMARK    9  A    between atoms: C_20  and  C_21
REMARK   10  A    between atoms: C_21  and  N_22
REMARK   11  A    between atoms: N_22  and  C_23
REMARK   12  A    between atoms: N_22  and  C_24
REMARK   13  A    between atoms: C_24  and  C_25
REMARK                            x       y       z     vdW  Elec       q    Type
REMARK                         _______ _______ _______ _____ _____    ______ ____
ROOT
ATOM      1  C   UNL     1       5.947   4.623  18.889  0.00  0.00    +0.000 C 
ATOM      2  O   UNL     1       6.035   5.155  19.994  0.00  0.00    +0.000 OA
ATOM      3  N   UNL     1       5.219   3.481  18.680  0.00  0.00    +0.000 N 
ATOM      4  H   UNL     1       5.127   3.117  17.738  0.00  0.00    +0.000 HD
ENDROOT
BRANCH   1  15
ATOM      5  C   UNL     1       8.128   7.034  18.805  0.00  0.00    +0.000 C 
ATOM      6  C   UNL     1       7.540   6.203  17.729  0.00  0.00    +0.000 A 
ATOM      7  O   UNL     1       7.965   6.494  16.466  0.00  0.00    +0.000 OA
ATOM      8  C   UNL     1       7.329   5.656  15.608  0.00  0.00    +0.000 A 
ATOM      9  N   UNL     1       7.499   5.685  14.267  0.00  0.00    +0.000 NA
ATOM     10  C   UNL     1       6.815   4.783  13.636  0.00  0.00    +0.000 A 
ATOM     11  N   UNL     1       5.977   3.844  14.218  0.00  0.00    +0.000 N 
ATOM     12  C   UNL     1       5.764   3.825  15.591  0.00  0.00    +0.000 A 
ATOM     13  O   UNL     1       5.007   3.026  16.138  0.00  0.00    +0.000 OA
ATOM     14  C   UNL     1       6.509   4.813  16.325  0.00  0.00    +0.000 A 
ATOM     15  C   UNL     1       6.612   5.164  17.707  0.00  0.00    +0.000 A 
BRANCH  11  16
ATOM     16  C   UNL     1       5.334   2.811  13.411  0.00  0.00    +0.000 C 
BRANCH  16  17
ATOM     17  C   UNL     1       5.524   2.996  11.894  0.00  0.00    +0.000 C 
ATOM     18  C   UNL     1       6.188   1.783  11.242  0.00  0.00    +0.000 C 
ATOM     19  C   UNL     1       4.161   3.247  11.239  0.00  0.00    +0.000 C 
ENDBRANCH  16  17
ENDBRANCH  11  16
ENDBRANCH   1  15
BRANCH   3  20
ATOM     20  C   UNL     1       4.461   2.776  19.686  0.00  0.00    +0.000 C 
BRANCH  20  21
ATOM     21  C   UNL     1       2.995   2.743  19.265  0.00  0.00    +0.000 C 
BRANCH  21  22
ATOM     22  C   UNL     1       2.589   4.023  18.539  0.00  0.00    +0.000 C 
BRANCH  22  23
ATOM     23  N   UNL     1       1.865   4.979  19.409  0.00  0.00    +0.000 NA
ATOM     24  C   UNL     1       1.404   4.332  20.638  0.00  0.00    +0.000 C 
BRANCH  23  25
ATOM     25  C   UNL     1       2.768   6.109  19.705  0.00  0.00    +0.000 C 
BRANCH  25  26
ATOM     26  C   UNL     1       2.183   7.482  19.453  0.00  0.00    +0.000 A 
ATOM     27  C   UNL     1       2.308   8.078  18.189  0.00  0.00    +0.000 A 
ATOM     28  C   UNL     1       1.668   9.285  17.909  0.00  0.00    +0.000 A 
ATOM     29  C   UNL     1       0.914   9.919  18.895  0.00  0.00    +0.000 A 
ATOM     30  C   UNL     1       0.828   9.365  20.170  0.00  0.00    +0.000 A 
ATOM     31  C   UNL     1       1.457   8.150  20.450  0.00  0.00    +0.000 A 
ENDBRANCH  25  26
ENDBRANCH  23  25
ENDBRANCH  22  23
ENDBRANCH  21  22
ENDBRANCH  20  21
ENDBRANCH   3  20
TORSDOF 9
ENDMDL
MODEL 2
REMARK VINA RESULT:      -7.7      2.889      8.219
REMARK  Name = 
REMARK  13 active torsions:
REMARK  status: ('A' for Active; 'I' for Inactive)
REMARK    1  A    between atoms: C_1  and  C_2
REMARK    2  A    between atoms: N_7  and  C_8
REMARK    3  A    between atoms: C_8  and  C_9
REMARK    4  A    between atoms: C_9  and  C_10
REMARK    5  A    between atoms: C_9  and  C_11
REMARK    6  A    between atoms: C_15  and  C_16
REMARK    7  A    between atoms: N_18  and  C_19
REMARK    8  A    between atoms: C_19  and  C_20
REMARK    9  A    between atoms: C_20  and  C_21
REMARK   10  A    between atoms: C_21  and  N_22
REMARK   11  A    between atoms: N_22  and  C_23
REMARK   12  A    between atoms: N_22  and  C_24
REMARK   13  A    between atoms: C_24  and  C_25
REMARK                            x       y       z     vdW  Elec       q    Type
REMARK                         _______ _______ _______ _____ _____    ______ ____
ROOT
ATOM      1  C   UNL     1       2.628   6.397  19.750  0.00  0.00    +0.000 C 
ATOM      2  O   UNL     1       3.777   6.038  19.998  0.00  0.00    +0.000 OA
ATOM      3  N   UNL     1       1.533   5.660  20.118  0.00  0.00    +0.000 N 
ATOM      4  H   UNL     1       0.605   6.031  19.945  0.00  0.00    +0.000 HD
ENDROOT
BRANCH   1  15
ATOM      5  C   UNL     1       3.708   7.277  16.812  0.00  0.00    +0.000 C 
ATOM      6  C   UNL     1       2.828   7.968  17.783  0.00  0.00    +0.000 A 
ATOM      7  O   UNL     1       2.391   9.203  17.402  0.00  0.00    +0.000 OA
ATOM      8  C   UNL     1       1.612   9.696  18.398  0.00  0.00    +0.000 A 
ATOM      9  N   UNL     1       1.031  10.917  18.362  0.00  0.00    +0.000 NA
ATOM     10  C   UNL     1       0.309  11.181  19.405  0.00  0.00    +0.000 A 
ATOM     11  N   UNL     1       0.104  10.337  20.486  0.00  0.00    +0.000 N 
ATOM     12  C   UNL     1       0.724   9.094  20.555  0.00  0.00    +0.000 A 
ATOM     13  O   UNL     1       0.588   8.332  21.509  0.00  0.00    +0.000 OA
ATOM     14  C   UNL     1       1.534   8.767  19.411  0.00  0.00    +0.000 A 
ATOM     15  C   UNL     1       2.335   7.640  19.044  0.00  0.00    +0.000 A 
BRANCH  11  16
ATOM     16  C   UNL     1      -0.813  10.705  21.561  0.00  0.00    +0.000 C 
BRANCH  16  17
ATOM     17  C   UNL     1      -1.228  12.188  21.546  0.00  0.00    +0.000 C 
ATOM     18  C   UNL     1      -2.722  12.367  21.273  0.00  0.00    +0.000 C 
ATOM     19  C   UNL     1      -0.874  12.828  22.892  0.00  0.00    +0.000 C 
ENDBRANCH  16  17
ENDBRANCH  11  16
ENDBRANCH   1  15
BRANCH   3  20
ATOM     20  C   UNL     1       1.569   4.411  20.840  0.00  0.00    +0.000 C 
BRANCH  20  21
ATOM     21  C   UNL     1       0.894   3.335  19.994  0.00  0.00    +0.000 C 
BRANCH  21  22
ATOM     22  C   UNL     1       1.387   3.362  18.549  0.00  0.00    +0.000 C 
BRANCH  22  23
ATOM     23  N   UNL     1       2.839   3.094  18.425  0.00  0.00    +0.000 NA
ATOM     24  C   UNL     1       3.146   1.695  18.727  0.00  0.00    +0.000 C 
BRANCH  23  25
ATOM     25  C   UNL     1       3.259   3.450  17.056  0.00  0.00    +0.000 C 
BRANCH  25  26
ATOM     26  C   UNL     1       4.679   3.960  16.932  0.00  0.00    +0.000 A 
ATOM     27  C   UNL     1       5.421   4.259  18.084  0.00  0.00    +0.000 A 
ATOM     28  C   UNL     1       6.767   4.611  17.988  0.00  0.00    +0.000 A 
ATOM     29  C   UNL     1       7.380   4.688  16.739  0.00  0.00    +0.000 A 
ATOM     30  C   UNL     1       6.639   4.446  15.584  0.00  0.00    +0.000 A 
ATOM     31  C   UNL     1       5.295   4.081  15.678  0.00  0.00    +0.000 A 
ENDBRANCH  25  26
ENDBRANCH  23  25
ENDBRANCH  22  23
ENDBRANCH  21  22
ENDBRANCH  20  21
ENDBRANCH   3  20
TORSDOF 9
ENDMDL
MODEL 3
REMARK VINA RESULT:      -7.3      5.288     11.022
REMARK  Name = 
REMARK  13 active torsions:
REMARK  status: ('A' for Active; 'I' for Inactive)
REMARK    1  A    between atoms: C_1  and  C_2
REMARK    2  A    between atoms: N_7  and  C_8
REMARK    3  A    between atoms: C_8  and  C_9
REMARK    4  A    between atoms: C_9  and  C_10
REMARK    5  A    between atoms: C_9  and  C_11
REMARK    6  A    between atoms: C_15  and  C_16
REMARK    7  A    between atoms: N_18  and  C_19
REMARK    8  A    between atoms: C_19  and  C_20
REMARK    9  A    between atoms: C_20  and  C_21
REMARK   10  A    between atoms: C_21  and  N_22
REMARK   11  A    between atoms: N_22  and  C_23
REMARK   12  A    between atoms: N_22  and  C_24
REMARK   13  A    between atoms: C_24  and  C_25
REMARK                            x       y       z     vdW  Elec       q    Type
REMARK                         _______ _______ _______ _____ _____    ______ ____
ROOT
ATOM      1  C   UNL     1       0.334  10.196  19.333  0.00  0.00    +0.000 C 
ATOM      2  O   UNL     1       0.697   9.420  20.215  0.00  0.00    +0.000 OA
ATOM      3  N   UNL     1       1.085  10.437  18.212  0.00  0.00    +0.000 N 
ATOM      4  H   UNL     1       0.712  11.038  17.485  0.00  0.00    +0.000 HD
ENDROOT
BRANCH   1  15
ATOM      5  C   UNL     1      -2.133  10.051  17.220  0.00  0.00    +0.000 C 
ATOM      6  C   UNL     1      -1.954  10.827  18.469  0.00  0.00    +0.000 A 
ATOM      7  O   UNL     1      -2.993  11.645  18.804  0.00  0.00    +0.000 OA
ATOM      8  C   UNL     1      -2.666  12.284  19.956  0.00  0.00    +0.000 A 
ATOM      9  N   UNL     1      -3.463  13.192  20.562  0.00  0.00    +0.000 NA
ATOM     10  C   UNL     1      -2.971  13.663  21.664  0.00  0.00    +0.000 A 
ATOM     11  N   UNL     1      -1.754  13.309  22.228  0.00  0.00    +0.000 N 
ATOM     12  C   UNL     1      -0.907  12.405  21.598  0.00  0.00    +0.000 A 
ATOM     13  O   UNL     1       0.190  12.089  22.053  0.00  0.00    +0.000 OA
ATOM     14  C   UNL     1      -1.423  11.860  20.370  0.00  0.00    +0.000 A 
ATOM     15  C   UNL     1      -0.928  10.926  19.407  0.00  0.00    +0.000 A 
BRANCH  11  16
ATOM     16  C   UNL     1      -1.349  13.835  23.528  0.00  0.00    +0.000 C 
BRANCH  16  17
ATOM     17  C   UNL     1      -2.081  15.128  23.934  0.00  0.00    +0.000 C 
ATOM     18  C   UNL     1      -2.831  14.976  25.258  0.00  0.00    +0.000 C 
ATOM     19  C   UNL     1      -1.068  16.271  24.049  0.00  0.00    +0.000 C 
ENDBRANCH  16  17
ENDBRANCH  11  16
ENDBRANCH   1  15
BRANCH   3  20
ATOM     20  C   UNL     1       2.354   9.821  17.907  0.00  0.00    +0.000 C 
BRANCH  20  21
ATOM     21  C   UNL     1       2.155   8.312  17.798  0.00  0.00    +0.000 C 
BRANCH  21  22
ATOM     22  C   UNL     1       3.459   7.596  17.451  0.00  0.00    +0.000 C 
BRANCH  22  23
ATOM     23  N   UNL     1       3.561   6.249  18.059  0.00  0.00    +0.000 NA
ATOM     24  C   UNL     1       4.959   5.843  18.215  0.00  0.00    +0.000 C 
BRANCH  23  25
ATOM     25  C   UNL     1       2.864   6.275  19.360  0.00  0.00    +0.000 C 
BRANCH  25  26
ATOM     26  C   UNL     1       2.190   4.979  19.754  0.00  0.00    +0.000 A 
ATOM     27  C   UNL     1       1.579   4.179  18.777  0.00  0.00    +0.000 A 
ATOM     28  C   UNL     1       1.064   2.926  19.107  0.00  0.00    +0.000 A 
ATOM     29  C   UNL     1       1.136   2.468  20.422  0.00  0.00    +0.000 A 
ATOM     30  C   UNL     1       1.691   3.276  21.412  0.00  0.00    +0.000 A 
ATOM     31  C   UNL     1       2.219   4.526  21.081  0.00  0.00    +0.000 A 
ENDBRANCH  25  26
ENDBRANCH  23  25
ENDBRANCH  22  23
ENDBRANCH  21  22
ENDBRANCH  20  21
ENDBRANCH   3  20
TORSDOF 9
ENDMDL
MODEL 4
REMARK VINA RESULT:      -7.2      3.429      5.926
REMARK  Name = 
REMARK  13 active torsions:
REMARK  status: ('A' for Active; 'I' for Inactive)
REMARK    1  A    between atoms: C_1  and  C_2
REMARK    2  A    between atoms: N_7  and  C_8
REMARK    3  A    between atoms: C_8  and  C_9
REMARK    4  A    between atoms: C_9  and  C_10
REMARK    5  A    between atoms: C_9  and  C_11
REMARK    6  A    between atoms: C_15  and  C_16
REMARK    7  A    between atoms: N_18  and  C_19
REMARK    8  A    between atoms: C_19  and  C_20
REMARK    9  A    between atoms: C_20  and  C_21
REMARK   10  A    between atoms: C_21  and  N_22
REMARK   11  A    between atoms: N_22  and  C_23
REMARK   12  A    between atoms: N_22  and  C_24
REMARK   13  A    between atoms: C_24  and  C_25
REMARK                            x       y       z     vdW  Elec       q    Type
REMARK                         _______ _______ _______ _____ _____    ______ ____
ROOT
ATOM      1  C   UNL     1       4.452   7.076  17.229  0.00  0.00    +0.000 C 
ATOM      2  O   UNL     1       4.763   7.355  16.072  0.00  0.00    +0.000 OA
ATOM      3  N   UNL     1       3.547   7.817  17.943  0.00  0.00    +0.000 N 
ATOM      4  H   UNL     1       3.278   7.509  18.871  0.00  0.00    +0.000 HD
ENDROOT
BRANCH   1  15
ATOM      5  C   UNL     1       7.567   6.641  18.053  0.00  0.00    +0.000 C 
ATOM      6  C   UNL     1       6.368   5.797  18.263  0.00  0.00    +0.000 A 
ATOM      7  O   UNL     1       6.591   4.614  18.904  0.00  0.00    +0.000 OA
ATOM      8  C   UNL     1       5.402   3.965  19.006  0.00  0.00    +0.000 A 
ATOM      9  N   UNL     1       5.260   2.744  19.570  0.00  0.00    +0.000 NA
ATOM     10  C   UNL     1       4.037   2.318  19.586  0.00  0.00    +0.000 A 
ATOM     11  N   UNL     1       2.932   2.999  19.098  0.00  0.00    +0.000 N 
ATOM     12  C   UNL     1       3.067   4.238  18.483  0.00  0.00    +0.000 A 
ATOM     13  O   UNL     1       2.115   4.857  18.013  0.00  0.00    +0.000 OA
ATOM     14  C   UNL     1       4.414   4.744  18.447  0.00  0.00    +0.000 A 
ATOM     15  C   UNL     1       5.021   5.934  17.936  0.00  0.00    +0.000 A 
BRANCH  11  16
ATOM     16  C   UNL     1       1.586   2.459  19.262  0.00  0.00    +0.000 C 
BRANCH  16  17
ATOM     17  C   UNL     1       0.880   2.925  20.549  0.00  0.00    +0.000 C 
ATOM     18  C   UNL     1       1.606   2.454  21.809  0.00  0.00    +0.000 C 
ATOM     19  C   UNL     1       0.788   4.454  20.552  0.00  0.00    +0.000 C 
ENDBRANCH  16  17
ENDBRANCH  11  16
ENDBRANCH   1  15
BRANCH   3  20
ATOM     20  C   UNL     1       2.840   8.975  17.452  0.00  0.00    +0.000 C 
BRANCH  20  21
ATOM     21  C   UNL     1       1.390   8.901  17.921  0.00  0.00    +0.000 C 
BRANCH  21  22
ATOM     22  C   UNL     1       1.189   9.629  19.248  0.00  0.00    +0.000 C 
BRANCH  22  23
ATOM     23  N   UNL     1      -0.235   9.911  19.546  0.00  0.00    +0.000 NA
ATOM     24  C   UNL     1      -0.466  10.000  20.989  0.00  0.00    +0.000 C 
BRANCH  23  25
ATOM     25  C   UNL     1      -0.609  11.167  18.866  0.00  0.00    +0.000 C 
BRANCH  25  26
ATOM     26  C   UNL     1      -1.976  11.164  18.218  0.00  0.00    +0.000 A 
ATOM     27  C   UNL     1      -2.223  10.347  17.104  0.00  0.00    +0.000 A 
ATOM     28  C   UNL     1      -3.509  10.242  16.575  0.00  0.00    +0.000 A 
ATOM     29  C   UNL     1      -4.556  10.968  17.139  0.00  0.00    +0.000 A 
ATOM     30  C   UNL     1      -4.312  11.824  18.211  0.00  0.00    +0.000 A 
ATOM     31  C   UNL     1      -3.029  11.921  18.751  0.00  0.00    +0.000 A 
ENDBRANCH  25  26
ENDBRANCH  23  25
ENDBRANCH  22  23
ENDBRANCH  21  22
ENDBRANCH  20  21
ENDBRANCH   3  20
TORSDOF 9
ENDMDL
MODEL 5
REMARK VINA RESULT:      -7.1      5.232     10.657
REMARK  Name = 
REMARK  13 active torsions:
REMARK  status: ('A' for Active; 'I' for Inactive)
REMARK    1  A    between atoms: C_1  and  C_2
REMARK    2  A    between atoms: N_7  and  C_8
REMARK    3  A    between atoms: C_8  and  C_9
REMARK    4  A    between atoms: C_9  and  C_10
REMARK    5  A    between atoms: C_9  and  C_11
REMARK    6  A    between atoms: C_15  and  C_16
REMARK    7  A    between atoms: N_18  and  C_19
REMARK    8  A    between atoms: C_19  and  C_20
REMARK    9  A    between atoms: C_20  and  C_21
REMARK   10  A    between atoms: C_21  and  N_22
REMARK   11  A    between atoms: N_22  and  C_23
REMARK   12  A    between atoms: N_22  and  C_24
REMARK   13  A    between atoms: C_24  and  C_25
REMARK                            x       y       z     vdW  Elec       q    Type
REMARK                         _______ _______ _______ _____ _____    ______ ____
ROOT
ATOM      1  C   UNL     1       0.727  10.964  19.751  0.00  0.00    +0.000 C 
ATOM      2  O   UNL     1       1.127  11.995  19.213  0.00  0.00    +0.000 OA
ATOM      3  N   UNL     1       0.903   9.726  19.188  0.00  0.00    +0.000 N 
ATOM      4  H   UNL     1       0.610   8.903  19.701  0.00  0.00    +0.000 HD
ENDROOT
BRANCH   1  15
ATOM      5  C   UNL     1       1.613   9.405  22.463  0.00  0.00    +0.000 C 
ATOM      6  C   UNL     1       0.456  10.281  22.167  0.00  0.00    +0.000 A 
ATOM      7  O   UNL     1      -0.414  10.471  23.201  0.00  0.00    +0.000 OA
ATOM      8  C   UNL     1      -1.410  11.283  22.763  0.00  0.00    +0.000 A 
ATOM      9  N   UNL     1      -2.460  11.660  23.527  0.00  0.00    +0.000 NA
ATOM     10  C   UNL     1      -3.284  12.457  22.923  0.00  0.00    +0.000 A 
ATOM     11  N   UNL     1      -3.158  12.923  21.623  0.00  0.00    +0.000 N 
ATOM     12  C   UNL     1      -2.104  12.515  20.813  0.00  0.00    +0.000 A 
ATOM     13  O   UNL     1      -1.975  12.885  19.648  0.00  0.00    +0.000 OA
ATOM     14  C   UNL     1      -1.168  11.630  21.453  0.00  0.00    +0.000 A 
ATOM     15  C   UNL     1       0.032  10.972  21.034  0.00  0.00    +0.000 A 
BRANCH  11  16
ATOM     16  C   UNL     1      -4.099  13.898  21.081  0.00  0.00    +0.000 C 
BRANCH  16  17
ATOM     17  C   UNL     1      -5.308  13.267  20.365  0.00  0.00    +0.000 C 
ATOM     18  C   UNL     1      -6.314  12.669  21.349  0.00  0.00    +0.000 C 
ATOM     19  C   UNL     1      -6.002  14.331  19.508  0.00  0.00    +0.000 C 
ENDBRANCH  16  17
ENDBRANCH  11  16
ENDBRANCH   1  15
BRANCH   3  20
ATOM     20  C   UNL     1       1.576   9.463  17.939  0.00  0.00    +0.000 C 
BRANCH  20  21
ATOM     21  C   UNL     1       1.943   7.984  17.880  0.00  0.00    +0.000 C 
BRANCH  21  22
ATOM     22  C   UNL     1       3.437   7.784  17.633  0.00  0.00    +0.000 C 
BRANCH  22  23
ATOM     23  N   UNL     1       3.867   6.375  17.782  0.00  0.00    +0.000 NA
ATOM     24  C   UNL     1       5.283   6.215  17.448  0.00  0.00    +0.000 C 
BRANCH  23  25
ATOM     25  C   UNL     1       3.594   5.953  19.170  0.00  0.00    +0.000 C 
BRANCH  25  26
ATOM     26  C   UNL     1       2.544   4.873  19.318  0.00  0.00    +0.000 A 
ATOM     27  C   UNL     1       2.128   4.139  18.197  0.00  0.00    +0.000 A 
ATOM     28  C   UNL     1       1.254   3.061  18.341  0.00  0.00    +0.000 A 
ATOM     29  C   UNL     1       0.773   2.718  19.603  0.00  0.00    +0.000 A 
ATOM     30  C   UNL     1       1.137   3.472  20.716  0.00  0.00    +0.000 A 
ATOM     31  C   UNL     1       2.021   4.544  20.577  0.00  0.00    +0.000 A 
ENDBRANCH  25  26
ENDBRANCH  23  25
ENDBRANCH  22  23
ENDBRANCH  21  22
ENDBRANCH  20  21
ENDBRANCH   3  20
TORSDOF 9
ENDMDL
MODEL 6
REMARK VINA RESULT:      -7.1      5.160     10.617
REMARK  Name = 
REMARK  13 active torsions:
REMARK  status: ('A' for Active; 'I' for Inactive)
REMARK    1  A    between atoms: C_1  and  C_2
REMARK    2  A    between atoms: N_7  and  C_8
REMARK    3  A    between atoms: C_8  and  C_9
REMARK    4  A    between atoms: C_9  and  C_10
REMARK    5  A    between atoms: C_9  and  C_11
REMARK    6  A    between atoms: C_15  and  C_16
REMARK    7  A    between atoms: N_18  and  C_19
REMARK    8  A    between atoms: C_19  and  C_20
REMARK    9  A    between atoms: C_20  and  C_21
REMARK   10  A    between atoms: C_21  and  N_22
REMARK   11  A    between atoms: N_22  and  C_23
REMARK   12  A    between atoms: N_22  and  C_24
REMARK   13  A    between atoms: C_24  and  C_25
REMARK                            x       y       z     vdW  Elec       q    Type
REMARK                         _______ _______ _______ _____ _____    ______ ____
ROOT
ATOM      1  C   UNL     1       0.851  10.772  19.748  0.00  0.00    +0.000 C 
ATOM      2  O   UNL     1       1.281  11.761  19.157  0.00  0.00    +0.000 OA
ATOM      3  N   UNL     1       1.033   9.498  19.274  0.00  0.00    +0.000 N 
ATOM      4  H   UNL     1       0.714   8.713  19.830  0.00  0.00    +0.000 HD
ENDROOT
BRANCH   1  15
ATOM      5  C   UNL     1       1.598   9.344  22.572  0.00  0.00    +0.000 C 
ATOM      6  C   UNL     1       0.478  10.234  22.186  0.00  0.00    +0.000 A 
ATOM      7  O   UNL     1      -0.421  10.505  23.176  0.00  0.00    +0.000 OA
ATOM      8  C   UNL     1      -1.378  11.317  22.659  0.00  0.00    +0.000 A 
ATOM      9  N   UNL     1      -2.442  11.764  23.362  0.00  0.00    +0.000 NA
ATOM     10  C   UNL     1      -3.222  12.547  22.685  0.00  0.00    +0.000 A 
ATOM     11  N   UNL     1      -3.037  12.936  21.367  0.00  0.00    +0.000 N 
ATOM     12  C   UNL     1      -1.968  12.456  20.620  0.00  0.00    +0.000 A 
ATOM     13  O   UNL     1      -1.789  12.756  19.441  0.00  0.00    +0.000 OA
ATOM     14  C   UNL     1      -1.081  11.583  21.341  0.00  0.00    +0.000 A 
ATOM     15  C   UNL     1       0.113  10.871  21.002  0.00  0.00    +0.000 A 
BRANCH  11  16
ATOM     16  C   UNL     1      -3.931  13.905  20.739  0.00  0.00    +0.000 C 
BRANCH  16  17
ATOM     17  C   UNL     1      -5.371  13.391  20.547  0.00  0.00    +0.000 C 
ATOM     18  C   UNL     1      -6.392  14.529  20.531  0.00  0.00    +0.000 C 
ATOM     19  C   UNL     1      -5.458  12.606  19.234  0.00  0.00    +0.000 C 
ENDBRANCH  16  17
ENDBRANCH  11  16
ENDBRANCH   1  15
BRANCH   3  20
ATOM     20  C   UNL     1       1.746   9.148  18.069  0.00  0.00    +0.000 C 
BRANCH  20  21
ATOM     21  C   UNL     1       2.241   7.710  18.191  0.00  0.00    +0.000 C 
BRANCH  21  22
ATOM     22  C   UNL     1       3.548   7.497  17.430  0.00  0.00    +0.000 C 
BRANCH  22  23
ATOM     23  N   UNL     1       4.148   6.164  17.668  0.00  0.00    +0.000 NA
ATOM     24  C   UNL     1       5.607   6.213  17.557  0.00  0.00    +0.000 C 
BRANCH  23  25
ATOM     25  C   UNL     1       3.729   5.701  19.006  0.00  0.00    +0.000 C 
BRANCH  25  26
ATOM     26  C   UNL     1       2.832   4.482  19.011  0.00  0.00    +0.000 A 
ATOM     27  C   UNL     1       1.811   4.365  19.966  0.00  0.00    +0.000 A 
ATOM     28  C   UNL     1       0.902   3.309  19.905  0.00  0.00    +0.000 A 
ATOM     29  C   UNL     1       1.015   2.349  18.901  0.00  0.00    +0.000 A 
ATOM     30  C   UNL     1       2.057   2.425  17.979  0.00  0.00    +0.000 A 
ATOM     31  C   UNL     1       2.961   3.487  18.030  0.00  0.00    +0.000 A 
ENDBRANCH  25  26
ENDBRANCH  23  25
ENDBRANCH  22  23
ENDBRANCH  21  22
ENDBRANCH  20  21
ENDBRANCH   3  20
TORSDOF 9
ENDMDL
MODEL 7
REMARK VINA RESULT:      -7.0      5.219     10.797
REMARK  Name = 
REMARK  13 active torsions:
REMARK  status: ('A' for Active; 'I' for Inactive)
REMARK    1  A    between atoms: C_1  and  C_2
REMARK    2  A    between atoms: N_7  and  C_8
REMARK    3  A    between atoms: C_8  and  C_9
REMARK    4  A    between atoms: C_9  and  C_10
REMARK    5  A    between atoms: C_9  and  C_11
REMARK    6  A    between atoms: C_15  and  C_16
REMARK    7  A    between atoms: N_18  and  C_19
REMARK    8  A    between atoms: C_19  and  C_20
REMARK    9  A    between atoms: C_20  and  C_21
REMARK   10  A    between atoms: C_21  and  N_22
REMARK   11  A    between atoms: N_22  and  C_23
REMARK   12  A    between atoms: N_22  and  C_24
REMARK   13  A    between atoms: C_24  and  C_25
REMARK                            x       y       z     vdW  Elec       q    Type
REMARK                         _______ _______ _______ _____ _____    ______ ____
ROOT
ATOM      1  C   UNL     1       0.678  10.793  19.812  0.00  0.00    +0.000 C 
ATOM      2  O   UNL     1       1.351  11.727  19.378  0.00  0.00    +0.000 OA
ATOM      3  N   UNL     1       0.563   9.601  19.146  0.00  0.00    +0.000 N 
ATOM      4  H   UNL     1       0.047   8.841  19.575  0.00  0.00    +0.000 HD
ENDROOT
BRANCH   1  15
ATOM      5  C   UNL     1       1.277   9.117  22.532  0.00  0.00    +0.000 C 
ATOM      6  C   UNL     1       0.246  10.131  22.210  0.00  0.00    +0.000 A 
ATOM      7  O   UNL     1      -0.628  10.418  23.217  0.00  0.00    +0.000 OA
ATOM      8  C   UNL     1      -1.503  11.348  22.757  0.00  0.00    +0.000 A 
ATOM      9  N   UNL     1      -2.524  11.845  23.491  0.00  0.00    +0.000 NA
ATOM     10  C   UNL     1      -3.224  12.741  22.870  0.00  0.00    +0.000 A 
ATOM     11  N   UNL     1      -2.999  13.198  21.580  0.00  0.00    +0.000 N 
ATOM     12  C   UNL     1      -1.976  12.671  20.800  0.00  0.00    +0.000 A 
ATOM     13  O   UNL     1      -1.765  13.031  19.645  0.00  0.00    +0.000 OA
ATOM     14  C   UNL     1      -1.177  11.672  21.459  0.00  0.00    +0.000 A 
ATOM     15  C   UNL     1      -0.053  10.877  21.072  0.00  0.00    +0.000 A 
BRANCH  11  16
ATOM     16  C   UNL     1      -3.796  14.285  21.020  0.00  0.00    +0.000 C 
BRANCH  16  17
ATOM     17  C   UNL     1      -5.266  13.908  20.754  0.00  0.00    +0.000 C 
ATOM     18  C   UNL     1      -6.044  15.048  20.096  0.00  0.00    +0.000 C 
ATOM     19  C   UNL     1      -5.316  12.668  19.855  0.00  0.00    +0.000 C 
ENDBRANCH  16  17
ENDBRANCH  11  16
ENDBRANCH   1  15
BRANCH   3  20
ATOM     20  C   UNL     1       1.207   9.275  17.896  0.00  0.00    +0.000 C 
BRANCH  20  21
ATOM     21  C   UNL     1       2.491   8.506  18.190  0.00  0.00    +0.000 C 
BRANCH  21  22
ATOM     22  C   UNL     1       2.266   7.411  19.230  0.00  0.00    +0.000 C 
BRANCH  22  23
ATOM     23  N   UNL     1       3.230   6.292  19.112  0.00  0.00    +0.000 NA
ATOM     24  C   UNL     1       2.939   5.238  20.085  0.00  0.00    +0.000 C 
BRANCH  23  25
ATOM     25  C   UNL     1       3.172   5.775  17.731  0.00  0.00    +0.000 C 
BRANCH  25  26
ATOM     26  C   UNL     1       4.513   5.446  17.112  0.00  0.00    +0.000 A 
ATOM     27  C   UNL     1       5.617   6.281  17.339  0.00  0.00    +0.000 A 
ATOM     28  C   UNL     1       6.884   5.923  16.878  0.00  0.00    +0.000 A 
ATOM     29  C   UNL     1       7.056   4.737  16.166  0.00  0.00    +0.000 A 
ATOM     30  C   UNL     1       5.958   3.926  15.888  0.00  0.00    +0.000 A 
ATOM     31  C   UNL     1       4.692   4.276  16.359  0.00  0.00    +0.000 A 
ENDBRANCH  25  26
ENDBRANCH  23  25
ENDBRANCH  22  23
ENDBRANCH  21  22
ENDBRANCH  20  21
ENDBRANCH   3  20
TORSDOF 9
ENDMDL
MODEL 8
REMARK VINA RESULT:      -7.0      2.889      5.393
REMARK  Name = 
REMARK  13 active torsions:
REMARK  status: ('A' for Active; 'I' for Inactive)
REMARK    1  A    between atoms: C_1  and  C_2
REMARK    2  A    between atoms: N_7  and  C_8
REMARK    3  A    between atoms: C_8  and  C_9
REMARK    4  A    between atoms: C_9  and  C_10
REMARK    5  A    between atoms: C_9  and  C_11
REMARK    6  A    between atoms: C_15  and  C_16
REMARK    7  A    between atoms: N_18  and  C_19
REMARK    8  A    between atoms: C_19  and  C_20
REMARK    9  A    between atoms: C_20  and  C_21
REMARK   10  A    between atoms: C_21  and  N_22
REMARK   11  A    between atoms: N_22  and  C_23
REMARK   12  A    between atoms: N_22  and  C_24
REMARK   13  A    between atoms: C_24  and  C_25
REMARK                            x       y       z     vdW  Elec       q    Type
REMARK                         _______ _______ _______ _____ _____    ______ ____
ROOT
ATOM      1  C   UNL     1       2.322   7.294  19.275  0.00  0.00    +0.000 C 
ATOM      2  O   UNL     1       1.969   7.888  20.292  0.00  0.00    +0.000 OA
ATOM      3  N   UNL     1       2.043   7.763  18.018  0.00  0.00    +0.000 N 
ATOM      4  H   UNL     1       2.410   7.269  17.212  0.00  0.00    +0.000 HD
ENDROOT
BRANCH   1  15
ATOM      5  C   UNL     1       1.749   4.749  21.216  0.00  0.00    +0.000 C 
ATOM      6  C   UNL     1       2.780   4.981  20.178  0.00  0.00    +0.000 A 
ATOM      7  O   UNL     1       3.668   3.961  19.998  0.00  0.00    +0.000 OA
ATOM      8  C   UNL     1       4.541   4.335  19.028  0.00  0.00    +0.000 A 
ATOM      9  N   UNL     1       5.574   3.568  18.612  0.00  0.00    +0.000 NA
ATOM     10  C   UNL     1       6.270   4.104  17.660  0.00  0.00    +0.000 A 
ATOM     11  N   UNL     1       6.031   5.338  17.074  0.00  0.00    +0.000 N 
ATOM     12  C   UNL     1       4.997   6.154  17.516  0.00  0.00    +0.000 A 
ATOM     13  O   UNL     1       4.772   7.265  17.040  0.00  0.00    +0.000 OA
ATOM     14  C   UNL     1       4.201   5.590  18.573  0.00  0.00    +0.000 A 
ATOM     15  C   UNL     1       3.069   6.041  19.322  0.00  0.00    +0.000 A 
BRANCH  11  16
ATOM     16  C   UNL     1       6.826   5.795  15.938  0.00  0.00    +0.000 C 
BRANCH  16  17
ATOM     17  C   UNL     1       6.919   4.773  14.789  0.00  0.00    +0.000 C 
ATOM     18  C   UNL     1       5.540   4.356  14.275  0.00  0.00    +0.000 C 
ATOM     19  C   UNL     1       7.733   5.375  13.639  0.00  0.00    +0.000 C 
ENDBRANCH  16  17
ENDBRANCH  11  16
ENDBRANCH   1  15
BRANCH   3  20
ATOM     20  C   UNL     1       1.337   8.986  17.718  0.00  0.00    +0.000 C 
BRANCH  20  21
ATOM     21  C   UNL     1       2.314  10.153  17.809  0.00  0.00    +0.000 C 
BRANCH  21  22
ATOM     22  C   UNL     1       1.797  11.251  18.736  0.00  0.00    +0.000 C 
BRANCH  22  23
ATOM     23  N   UNL     1       0.420  11.000  19.221  0.00  0.00    +0.000 NA
ATOM     24  C   UNL     1       0.361  11.024  20.683  0.00  0.00    +0.000 C 
BRANCH  23  25
ATOM     25  C   UNL     1      -0.470  12.021  18.633  0.00  0.00    +0.000 C 
BRANCH  25  26
ATOM     26  C   UNL     1      -1.852  11.530  18.259  0.00  0.00    +0.000 A 
ATOM     27  C   UNL     1      -2.000  10.463  17.361  0.00  0.00    +0.000 A 
ATOM     28  C   UNL     1      -3.259   9.922  17.105  0.00  0.00    +0.000 A 
ATOM     29  C   UNL     1      -4.386  10.456  17.727  0.00  0.00    +0.000 A 
ATOM     30  C   UNL     1      -4.259  11.551  18.579  0.00  0.00    +0.000 A 
ATOM     31  C   UNL     1      -2.997  12.086  18.847  0.00  0.00    +0.000 A 
ENDBRANCH  25  26
ENDBRANCH  23  25
ENDBRANCH  22  23
ENDBRANCH  21  22
ENDBRANCH  20  21
ENDBRANCH   3  20
TORSDOF 9
ENDMDL
MODEL 9
REMARK VINA RESULT:      -7.0      4.512      9.380
REMARK  Name = 
REMARK  13 active torsions:
REMARK  status: ('A' for Active; 'I' for Inactive)
REMARK    1  A    between atoms: C_1  and  C_2
REMARK    2  A    between atoms: N_7  and  C_8
REMARK    3  A    between atoms: C_8  and  C_9
REMARK    4  A    between atoms: C_9  and  C_10
REMARK    5  A    between atoms: C_9  and  C_11
REMARK    6  A    between atoms: C_15  and  C_16
REMARK    7  A    between atoms: N_18  and  C_19
REMARK    8  A    between atoms: C_19  and  C_20
REMARK    9  A    between atoms: C_20  and  C_21
REMARK   10  A    between atoms: C_21  and  N_22
REMARK   11  A    between atoms: N_22  and  C_23
REMARK   12  A    between atoms: N_22  and  C_24
REMARK   13  A    between atoms: C_24  and  C_25
REMARK                            x       y       z     vdW  Elec       q    Type
REMARK                         _______ _______ _______ _____ _____    ______ ____
ROOT
ATOM      1  C   UNL     1       1.109   9.307  18.928  0.00  0.00    +0.000 C 
ATOM      2  O   UNL     1       0.641   9.449  17.800  0.00  0.00    +0.000 OA
ATOM      3  N   UNL     1       1.884   8.229  19.270  0.00  0.00    +0.000 N 
ATOM      4  H   UNL     1       2.297   8.190  20.195  0.00  0.00    +0.000 HD
ENDROOT
BRANCH   1  15
ATOM      5  C   UNL     1      -0.242   8.729  21.828  0.00  0.00    +0.000 C 
ATOM      6  C   UNL     1       0.292   9.971  21.223  0.00  0.00    +0.000 A 
ATOM      7  O   UNL     1       0.197  11.089  22.000  0.00  0.00    +0.000 OA
ATOM      8  C   UNL     1       0.718  12.129  21.300  0.00  0.00    +0.000 A 
ATOM      9  N   UNL     1       0.763  13.398  21.764  0.00  0.00    +0.000 NA
ATOM     10  C   UNL     1       1.323  14.232  20.945  0.00  0.00    +0.000 A 
ATOM     11  N   UNL     1       1.852  13.920  19.702  0.00  0.00    +0.000 N 
ATOM     12  C   UNL     1       1.780  12.627  19.196  0.00  0.00    +0.000 A 
ATOM     13  O   UNL     1       2.212  12.320  18.087  0.00  0.00    +0.000 OA
ATOM     14  C   UNL     1       1.165  11.673  20.079  0.00  0.00    +0.000 A 
ATOM     15  C   UNL     1       0.879  10.274  19.996  0.00  0.00    +0.000 A 
BRANCH  11  16
ATOM     16  C   UNL     1       2.548  14.928  18.909  0.00  0.00    +0.000 C 
BRANCH  16  17
ATOM     17  C   UNL     1       1.773  16.251  18.763  0.00  0.00    +0.000 C 
ATOM     18  C   UNL     1       2.355  17.143  17.665  0.00  0.00    +0.000 C 
ATOM     19  C   UNL     1       0.304  15.947  18.451  0.00  0.00    +0.000 C 
ENDBRANCH  16  17
ENDBRANCH  11  16
ENDBRANCH   1  15
BRANCH   3  20
ATOM     20  C   UNL     1       2.264   7.156  18.382  0.00  0.00    +0.000 C 
BRANCH  20  21
ATOM     21  C   UNL     1       3.567   7.533  17.684  0.00  0.00    +0.000 C 
BRANCH  21  22
ATOM     22  C   UNL     1       4.607   6.421  17.795  0.00  0.00    +0.000 C 
BRANCH  22  23
ATOM     23  N   UNL     1       4.419   5.347  16.792  0.00  0.00    +0.000 NA
ATOM     24  C   UNL     1       5.372   5.479  15.689  0.00  0.00    +0.000 C 
BRANCH  23  25
ATOM     25  C   UNL     1       4.567   4.046  17.474  0.00  0.00    +0.000 C 
BRANCH  25  26
ATOM     26  C   UNL     1       3.410   3.654  18.367  0.00  0.00    +0.000 A 
ATOM     27  C   UNL     1       2.135   3.449  17.818  0.00  0.00    +0.000 A 
ATOM     28  C   UNL     1       1.092   2.969  18.609  0.00  0.00    +0.000 A 
ATOM     29  C   UNL     1       1.306   2.708  19.961  0.00  0.00    +0.000 A 
ATOM     30  C   UNL     1       2.553   2.959  20.530  0.00  0.00    +0.000 A 
ATOM     31  C   UNL     1       3.602   3.428  19.738  0.00  0.00    +0.000 A 
ENDBRANCH  25  26
ENDBRANCH  23  25
ENDBRANCH  22  23
ENDBRANCH  21  22
ENDBRANCH  20  21
ENDBRANCH   3  20
TORSDOF 9
ENDMDL
