MODEL 1
REMARK VINA RESULT:      -7.8      0.000      0.000
REMARK  Name = 
REMARK  9 active torsions:
REMARK  status: ('A' for Active; 'I' for Inactive)
REMARK    1  A    between atoms: N_2  and  C_3
REMARK    2  A    between atoms: C_6  and  N_7
REMARK    3  A    between atoms: N_7  and  C_8
REMARK    4  A    between atoms: C_8  and  C_9
REMARK    5  A    between atoms: C_8  and  C_20
REMARK    6  A    between atoms: C_12  and  C_13
REMARK    7  A    between atoms: C_20  and  C_21
REMARK    8  A    between atoms: C_20  and  O_22
REMARK    9  A    between atoms: C_23  and  C_24
REMARK                            x       y       z     vdW  Elec       q    Type
REMARK                         _______ _______ _______ _____ _____    ______ ____
ROOT
ATOM      1  C   UNL     1       4.092   4.373  19.241  0.00  0.00    +0.000 C 
ENDROOT
BRANCH   1   2
ATOM      2  C   UNL     1       5.119   4.501  18.132  0.00  0.00    +0.000 A 
ATOM      3  N   UNL     1       6.429   4.494  18.266  0.00  0.00    +0.000 NA
ATOM      4  N   UNL     1       7.073   4.524  17.038  0.00  0.00    +0.000 NA
ATOM      5  C   UNL     1       6.239   4.503  16.013  0.00  0.00    +0.000 A 
ATOM      6  S   UNL     1       4.587   4.588  16.497  0.00  0.00    +0.000 S 
BRANCH   5   7
ATOM      7  C   UNL     1       6.620   4.448  14.593  0.00  0.00    +0.000 A 
ATOM      8  C   UNL     1       7.608   5.287  14.041  0.00  0.00    +0.000 A 
ATOM      9  C   UNL     1       7.939   5.225  12.685  0.00  0.00    +0.000 A 
ATOM     10  C   UNL     1       7.285   4.324  11.850  0.00  0.00    +0.000 A 
ATOM     11  C   UNL     1       6.298   3.489  12.369  0.00  0.00    +0.000 A 
ATOM     12  C   UNL     1       5.966   3.553  13.727  0.00  0.00    +0.000 A 
ENDBRANCH   5   7
ENDBRANCH   1   2
BRANCH   1  13
ATOM     13  N   UNL     1       2.765   4.897  18.808  0.00  0.00    +0.000 N 
ATOM     14  H   UNL     1       2.091   4.136  18.890  0.00  0.00    +0.000 HD
BRANCH  13  18
ATOM     15  C   UNL     1       1.331   8.518  20.426  0.00  0.00    +0.000 A 
ATOM     16  C   UNL     1       1.265   7.353  21.172  0.00  0.00    +0.000 A 
ATOM     17  C   UNL     1       1.741   6.167  20.619  0.00  0.00    +0.000 A 
ATOM     18  C   UNL     1       2.268   6.107  19.314  0.00  0.00    +0.000 A 
ATOM     19  C   UNL     1       2.418   7.327  18.598  0.00  0.00    +0.000 A 
ATOM     20  C   UNL     1       3.101   7.396  17.249  0.00  0.00    +0.000 C 
ATOM     21  C   UNL     1       1.895   8.525  19.147  0.00  0.00    +0.000 A 
ATOM     22 CL   UNL     1       1.935  10.011  18.248  0.00  0.00    +0.000 Cl
BRANCH  15  24
ATOM     23  C   UNL     1       0.485  10.676  21.510  0.00  0.00    +0.000 C 
ATOM     24  N   UNL     1       0.851   9.682  21.006  0.00  0.00    +0.000 NA
ENDBRANCH  15  24
ENDBRANCH  13  18
ENDBRANCH   1  13
BRANCH   1  25
ATOM     25  C   UNL     1       3.921   2.911  19.758  0.00  0.00    +0.000 C 
ATOM     26  C   UNL     1       3.002   2.772  20.968  0.00  0.00    +0.000 C 
BRANCH  25  27
ATOM     27  O   UNL     1       5.184   2.288  20.030  0.00  0.00    +0.000 OA
ATOM     28  H   UNL     1       5.776   2.969  20.403  0.00  0.00    +0.000 HD
ENDBRANCH  25  27
ENDBRANCH   1  25
TORSDOF 7
ENDMDL
MODEL 2
REMARK VINA RESULT:      -7.7      1.059      1.943
REMARK  Name = 
REMARK  9 active torsions:
REMARK  status: ('A' for Active; 'I' for Inactive)
REMARK    1  A    between atoms: N_2  and  C_3
REMARK    2  A    between atoms: C_6  and  N_7
REMARK    3  A    between atoms: N_7  and  C_8
REMARK    4  A    between atoms: C_8  and  C_9
REMARK    5  A    between atoms: C_8  and  C_20
REMARK    6  A    between atoms: C_12  and  C_13
REMARK    7  A    between atoms: C_20  and  C_21
REMARK    8  A    between atoms: C_20  and  O_22
REMARK    9  A    between atoms: C_23  and  C_24
REMARK                            x       y       z     vdW  Elec       q    Type
REMARK                         _______ _______ _______ _____ _____    ______ ____
ROOT
ATOM      1  C   UNL     1       4.136   4.287  19.107  0.00  0.00    +0.000 C 
ENDROOT
BRANCH   1   2
ATOM      2  C   UNL     1       5.148   4.430  17.987  0.00  0.00    +0.000 A 
ATOM      3  N   UNL     1       6.460   4.426  18.104  0.00  0.00    +0.000 NA
ATOM      4  N   UNL     1       7.088   4.472  16.869  0.00  0.00    +0.000 NA
ATOM      5  C   UNL     1       6.240   4.460  15.854  0.00  0.00    +0.000 A 
ATOM      6  S   UNL     1       4.595   4.534  16.360  0.00  0.00    +0.000 S 
BRANCH   5   7
ATOM      7  C   UNL     1       6.604   4.422  14.428  0.00  0.00    +0.000 A 
ATOM      8  C   UNL     1       6.024   3.510  13.523  0.00  0.00    +0.000 A 
ATOM      9  C   UNL     1       6.400   3.485  12.178  0.00  0.00    +0.000 A 
ATOM     10  C   UNL     1       7.368   4.367  11.709  0.00  0.00    +0.000 A 
ATOM     11  C   UNL     1       7.963   5.273  12.585  0.00  0.00    +0.000 A 
ATOM     12  C   UNL     1       7.587   5.297  13.933  0.00  0.00    +0.000 A 
ENDBRANCH   5   7
ENDBRANCH   1   2
BRANCH   1  13
ATOM     13  N   UNL     1       2.801   4.808  18.696  0.00  0.00    +0.000 N 
ATOM     14  H   UNL     1       2.093   4.188  19.090  0.00  0.00    +0.000 HD
BRANCH  13  18
ATOM     15  C   UNL     1       1.758   8.875  19.085  0.00  0.00    +0.000 A 
ATOM     16  C   UNL     1       2.260   8.401  17.884  0.00  0.00    +0.000 A 
ATOM     17  C   UNL     1       2.602   7.056  17.777  0.00  0.00    +0.000 A 
ATOM     18  C   UNL     1       2.475   6.162  18.858  0.00  0.00    +0.000 A 
ATOM     19  C   UNL     1       1.868   6.641  20.052  0.00  0.00    +0.000 A 
ATOM     20  C   UNL     1       1.554   5.733  21.222  0.00  0.00    +0.000 C 
ATOM     21  C   UNL     1       1.560   8.020  20.171  0.00  0.00    +0.000 A 
ATOM     22 CL   UNL     1       0.944   8.671  21.659  0.00  0.00    +0.000 Cl
BRANCH  15  24
ATOM     23  C   UNL     1       1.143  11.353  19.262  0.00  0.00    +0.000 C 
ATOM     24  N   UNL     1       1.426  10.220  19.158  0.00  0.00    +0.000 NA
ENDBRANCH  15  24
ENDBRANCH  13  18
ENDBRANCH   1  13
BRANCH   1  25
ATOM     25  C   UNL     1       3.978   2.819  19.612  0.00  0.00    +0.000 C 
ATOM     26  C   UNL     1       3.071   2.663  20.829  0.00  0.00    +0.000 C 
BRANCH  25  27
ATOM     27  O   UNL     1       5.249   2.202  19.869  0.00  0.00    +0.000 OA
ATOM     28  H   UNL     1       5.811   2.345  19.083  0.00  0.00    +0.000 HD
ENDBRANCH  25  27
ENDBRANCH   1  25
TORSDOF 7
ENDMDL
MODEL 3
REMARK VINA RESULT:      -7.6      1.833      2.744
REMARK  Name = 
REMARK  9 active torsions:
REMARK  status: ('A' for Active; 'I' for Inactive)
REMARK    1  A    between atoms: N_2  and  C_3
REMARK    2  A    between atoms: C_6  and  N_7
REMARK    3  A    between atoms: N_7  and  C_8
REMARK    4  A    between atoms: C_8  and  C_9
REMARK    5  A    between atoms: C_8  and  C_20
REMARK    6  A    between atoms: C_12  and  C_13
REMARK    7  A    between atoms: C_20  and  C_21
REMARK    8  A    between atoms: C_20  and  O_22
REMARK    9  A    between atoms: C_23  and  C_24
REMARK                            x       y       z     vdW  Elec       q    Type
REMARK                         _______ _______ _______ _____ _____    ______ ____
ROOT
ATOM      1  C   UNL     1       5.564   6.088  17.774  0.00  0.00    +0.000 C 
ENDROOT
BRANCH   1   2
ATOM      2  C   UNL     1       6.035   5.661  16.397  0.00  0.00    +0.000 A 
ATOM      3  N   UNL     1       7.209   5.909  15.853  0.00  0.00    +0.000 NA
ATOM      4  N   UNL     1       7.350   5.284  14.624  0.00  0.00    +0.000 NA
ATOM      5  C   UNL     1       6.305   4.544  14.294  0.00  0.00    +0.000 A 
ATOM      6  S   UNL     1       5.009   4.683  15.421  0.00  0.00    +0.000 S 
BRANCH   5   7
ATOM      7  C   UNL     1       6.191   3.701  13.093  0.00  0.00    +0.000 A 
ATOM      8  C   UNL     1       7.317   3.217  12.398  0.00  0.00    +0.000 A 
ATOM      9  C   UNL     1       7.180   2.432  11.250  0.00  0.00    +0.000 A 
ATOM     10  C   UNL     1       5.912   2.119  10.769  0.00  0.00    +0.000 A 
ATOM     11  C   UNL     1       4.782   2.592  11.433  0.00  0.00    +0.000 A 
ATOM     12  C   UNL     1       4.921   3.380  12.582  0.00  0.00    +0.000 A 
ENDBRANCH   5   7
ENDBRANCH   1   2
BRANCH   1  13
ATOM     13  N   UNL     1       4.097   5.875  17.930  0.00  0.00    +0.000 N 
ATOM     14  H   UNL     1       3.964   5.027  18.482  0.00  0.00    +0.000 HD
BRANCH  13  18
ATOM     15  C   UNL     1       1.521   9.011  19.078  0.00  0.00    +0.000 A 
ATOM     16  C   UNL     1       2.204   9.081  17.875  0.00  0.00    +0.000 A 
ATOM     17  C   UNL     1       3.052   8.038  17.515  0.00  0.00    +0.000 A 
ATOM     18  C   UNL     1       3.257   6.919  18.346  0.00  0.00    +0.000 A 
ATOM     19  C   UNL     1       2.477   6.815  19.531  0.00  0.00    +0.000 A 
ATOM     20  C   UNL     1       2.515   5.591  20.421  0.00  0.00    +0.000 C 
ATOM     21  C   UNL     1       1.646   7.898  19.914  0.00  0.00    +0.000 A 
ATOM     22 CL   UNL     1       0.781   7.870  21.420  0.00  0.00    +0.000 Cl
BRANCH  15  24
ATOM     23  C   UNL     1      -0.015  10.977  19.645  0.00  0.00    +0.000 C 
ATOM     24  N   UNL     1       0.682  10.066  19.406  0.00  0.00    +0.000 NA
ENDBRANCH  15  24
ENDBRANCH  13  18
ENDBRANCH   1  13
BRANCH   1  25
ATOM     25  C   UNL     1       6.312   5.361  18.935  0.00  0.00    +0.000 C 
ATOM     26  C   UNL     1       7.725   5.874  19.194  0.00  0.00    +0.000 C 
BRANCH  25  27
ATOM     27  O   UNL     1       6.336   3.938  18.749  0.00  0.00    +0.000 OA
ATOM     28  H   UNL     1       6.564   3.766  17.815  0.00  0.00    +0.000 HD
ENDBRANCH  25  27
ENDBRANCH   1  25
TORSDOF 7
ENDMDL
MODEL 4
REMARK VINA RESULT:      -7.6      2.020      3.106
REMARK  Name = 
REMARK  9 active torsions:
REMARK  status: ('A' for Active; 'I' for Inactive)
REMARK    1  A    between atoms: N_2  and  C_3
REMARK    2  A    between atoms: C_6  and  N_7
REMARK    3  A    between atoms: N_7  and  C_8
REMARK    4  A    between atoms: C_8  and  C_9
REMARK    5  A    between atoms: C_8  and  C_20
REMARK    6  A    between atoms: C_12  and  C_13
REMARK    7  A    between atoms: C_20  and  C_21
REMARK    8  A    between atoms: C_20  and  O_22
REMARK    9  A    between atoms: C_23  and  C_24
REMARK                            x       y       z     vdW  Elec       q    Type
REMARK                         _______ _______ _______ _____ _____    ______ ____
ROOT
ATOM      1  C   UNL     1       6.030   5.976  17.580  0.00  0.00    +0.000 C 
ENDROOT
BRANCH   1   2
ATOM      2  C   UNL     1       6.349   5.552  16.160  0.00  0.00    +0.000 A 
ATOM      3  N   UNL     1       7.444   5.828  15.481  0.00  0.00    +0.000 NA
ATOM      4  N   UNL     1       7.458   5.197  14.246  0.00  0.00    +0.000 NA
ATOM      5  C   UNL     1       6.403   4.425  14.044  0.00  0.00    +0.000 A 
ATOM      6  S   UNL     1       5.245   4.537  15.315  0.00  0.00    +0.000 S 
BRANCH   5   7
ATOM      7  C   UNL     1       6.174   3.571  12.869  0.00  0.00    +0.000 A 
ATOM      8  C   UNL     1       4.888   3.340  12.340  0.00  0.00    +0.000 A 
ATOM      9  C   UNL     1       4.697   2.510  11.232  0.00  0.00    +0.000 A 
ATOM     10  C   UNL     1       5.787   1.889  10.632  0.00  0.00    +0.000 A 
ATOM     11  C   UNL     1       7.068   2.094  11.140  0.00  0.00    +0.000 A 
ATOM     12  C   UNL     1       7.259   2.924  12.251  0.00  0.00    +0.000 A 
ENDBRANCH   5   7
ENDBRANCH   1   2
BRANCH   1  13
ATOM     13  N   UNL     1       4.632   5.615  17.948  0.00  0.00    +0.000 N 
ATOM     14  H   UNL     1       4.677   4.861  18.634  0.00  0.00    +0.000 HD
BRANCH  13  18
ATOM     15  C   UNL     1       1.790   8.580  18.907  0.00  0.00    +0.000 A 
ATOM     16  C   UNL     1       2.533   8.685  17.743  0.00  0.00    +0.000 A 
ATOM     17  C   UNL     1       3.469   7.698  17.446  0.00  0.00    +0.000 A 
ATOM     18  C   UNL     1       3.702   6.604  18.302  0.00  0.00    +0.000 A 
ATOM     19  C   UNL     1       2.865   6.459  19.443  0.00  0.00    +0.000 A 
ATOM     20  C   UNL     1       2.934   5.249  20.351  0.00  0.00    +0.000 C 
ATOM     21  C   UNL     1       1.942   7.487  19.764  0.00  0.00    +0.000 A 
ATOM     22 CL   UNL     1       0.997   7.415  21.219  0.00  0.00    +0.000 Cl
BRANCH  15  24
ATOM     23  C   UNL     1       0.115  10.446  19.416  0.00  0.00    +0.000 C 
ATOM     24  N   UNL     1       0.865   9.579  19.172  0.00  0.00    +0.000 NA
ENDBRANCH  15  24
ENDBRANCH  13  18
ENDBRANCH   1  13
BRANCH   1  25
ATOM     25  C   UNL     1       7.008   5.375  18.638  0.00  0.00    +0.000 C 
ATOM     26  C   UNL     1       8.068   6.348  19.143  0.00  0.00    +0.000 C 
BRANCH  25  27
ATOM     27  O   UNL     1       7.635   4.173  18.165  0.00  0.00    +0.000 OA
ATOM     28  H   UNL     1       7.880   4.315  17.231  0.00  0.00    +0.000 HD
ENDBRANCH  25  27
ENDBRANCH   1  25
TORSDOF 7
ENDMDL
MODEL 5
REMARK VINA RESULT:      -7.6      4.108      5.939
REMARK  Name = 
REMARK  9 active torsions:
REMARK  status: ('A' for Active; 'I' for Inactive)
REMARK    1  A    between atoms: N_2  and  C_3
REMARK    2  A    between atoms: C_6  and  N_7
REMARK    3  A    between atoms: N_7  and  C_8
REMARK    4  A    between atoms: C_8  and  C_9
REMARK    5  A    between atoms: C_8  and  C_20
REMARK    6  A    between atoms: C_12  and  C_13
REMARK    7  A    between atoms: C_20  and  C_21
REMARK    8  A    between atoms: C_20  and  O_22
REMARK    9  A    between atoms: C_23  and  C_24
REMARK                            x       y       z     vdW  Elec       q    Type
REMARK                         _______ _______ _______ _____ _____    ______ ____
ROOT
ATOM      1  C   UNL     1       6.115   5.059  16.337  0.00  0.00    +0.000 C 
ENDROOT
BRANCH   1   2
ATOM      2  C   UNL     1       6.858   6.059  17.200  0.00  0.00    +0.000 A 
ATOM      3  N   UNL     1       7.696   5.788  18.179  0.00  0.00    +0.000 NA
ATOM      4  N   UNL     1       8.281   6.936  18.692  0.00  0.00    +0.000 NA
ATOM      5  C   UNL     1       7.910   8.036  18.057  0.00  0.00    +0.000 A 
ATOM      6  S   UNL     1       6.697   7.741  16.869  0.00  0.00    +0.000 S 
BRANCH   5   7
ATOM      7  C   UNL     1       8.417   9.393  18.317  0.00  0.00    +0.000 A 
ATOM      8  C   UNL     1       8.099  10.490  17.492  0.00  0.00    +0.000 A 
ATOM      9  C   UNL     1       8.608  11.765  17.753  0.00  0.00    +0.000 A 
ATOM     10  C   UNL     1       9.450  11.969  18.841  0.00  0.00    +0.000 A 
ATOM     11  C   UNL     1       9.786  10.899  19.668  0.00  0.00    +0.000 A 
ATOM     12  C   UNL     1       9.277   9.622  19.405  0.00  0.00    +0.000 A 
ENDBRANCH   5   7
ENDBRANCH   1   2
BRANCH   1  13
ATOM     13  N   UNL     1       4.639   5.218  16.478  0.00  0.00    +0.000 N 
ATOM     14  H   UNL     1       4.212   4.931  15.597  0.00  0.00    +0.000 HD
BRANCH  13  18
ATOM     15  C   UNL     1       2.700   3.619  19.864  0.00  0.00    +0.000 A 
ATOM     16  C   UNL     1       3.476   2.800  19.060  0.00  0.00    +0.000 A 
ATOM     17  C   UNL     1       4.105   3.346  17.945  0.00  0.00    +0.000 A 
ATOM     18  C   UNL     1       3.962   4.702  17.593  0.00  0.00    +0.000 A 
ATOM     19  C   UNL     1       3.242   5.550  18.480  0.00  0.00    +0.000 A 
ATOM     20  C   UNL     1       3.147   7.047  18.272  0.00  0.00    +0.000 C 
ATOM     21  C   UNL     1       2.569   4.983  19.591  0.00  0.00    +0.000 A 
ATOM     22 CL   UNL     1       1.569   5.960  20.622  0.00  0.00    +0.000 Cl
BRANCH  15  24
ATOM     23  C   UNL     1       1.538   2.546  21.876  0.00  0.00    +0.000 C 
ATOM     24  N   UNL     1       2.088   3.044  20.968  0.00  0.00    +0.000 NA
ENDBRANCH  15  24
ENDBRANCH  13  18
ENDBRANCH   1  13
BRANCH   1  25
ATOM     25  C   UNL     1       6.496   5.144  14.826  0.00  0.00    +0.000 C 
ATOM     26  C   UNL     1       6.037   3.953  13.991  0.00  0.00    +0.000 C 
BRANCH  25  27
ATOM     27  O   UNL     1       7.903   5.357  14.640  0.00  0.00    +0.000 OA
ATOM     28  H   UNL     1       8.368   4.566  14.976  0.00  0.00    +0.000 HD
ENDBRANCH  25  27
ENDBRANCH   1  25
TORSDOF 7
ENDMDL
MODEL 6
REMARK VINA RESULT:      -7.3      1.816      2.148
REMARK  Name = 
REMARK  9 active torsions:
REMARK  status: ('A' for Active; 'I' for Inactive)
REMARK    1  A    between atoms: N_2  and  C_3
REMARK    2  A    between atoms: C_6  and  N_7
REMARK    3  A    between atoms: N_7  and  C_8
REMARK    4  A    between atoms: C_8  and  C_9
REMARK    5  A    between atoms: C_8  and  C_20
REMARK    6  A    between atoms: C_12  and  C_13
REMARK    7  A    between atoms: C_20  and  C_21
REMARK    8  A    between atoms: C_20  and  O_22
REMARK    9  A    between atoms: C_23  and  C_24
REMARK                            x       y       z     vdW  Elec       q    Type
REMARK                         _______ _______ _______ _____ _____    ______ ____
ROOT
ATOM      1  C   UNL     1       2.960   5.419  18.804  0.00  0.00    +0.000 C 
ENDROOT
BRANCH   1   2
ATOM      2  C   UNL     1       3.892   4.789  17.786  0.00  0.00    +0.000 A 
ATOM      3  N   UNL     1       4.206   3.514  17.687  0.00  0.00    +0.000 NA
ATOM      4  N   UNL     1       5.002   3.263  16.579  0.00  0.00    +0.000 NA
ATOM      5  C   UNL     1       5.227   4.340  15.847  0.00  0.00    +0.000 A 
ATOM      6  S   UNL     1       4.585   5.774  16.556  0.00  0.00    +0.000 S 
BRANCH   5   7
ATOM      7  C   UNL     1       5.966   4.378  14.575  0.00  0.00    +0.000 A 
ATOM      8  C   UNL     1       5.590   3.607  13.458  0.00  0.00    +0.000 A 
ATOM      9  C   UNL     1       6.321   3.649  12.267  0.00  0.00    +0.000 A 
ATOM     10  C   UNL     1       7.446   4.461  12.170  0.00  0.00    +0.000 A 
ATOM     11  C   UNL     1       7.844   5.227  13.263  0.00  0.00    +0.000 A 
ATOM     12  C   UNL     1       7.113   5.183  14.456  0.00  0.00    +0.000 A 
ENDBRANCH   5   7
ENDBRANCH   1   2
BRANCH   1  13
ATOM     13  N   UNL     1       2.872   6.894  18.612  0.00  0.00    +0.000 N 
ATOM     14  H   UNL     1       2.689   7.067  17.623  0.00  0.00    +0.000 HD
BRANCH  13  18
ATOM     15  C   UNL     1       0.540   9.263  21.208  0.00  0.00    +0.000 A 
ATOM     16  C   UNL     1       1.097   8.079  21.663  0.00  0.00    +0.000 A 
ATOM     17  C   UNL     1       1.861   7.309  20.790  0.00  0.00    +0.000 A 
ATOM     18  C   UNL     1       2.069   7.683  19.448  0.00  0.00    +0.000 A 
ATOM     19  C   UNL     1       1.572   8.947  19.022  0.00  0.00    +0.000 A 
ATOM     20  C   UNL     1       1.860   9.509  17.647  0.00  0.00    +0.000 C 
ATOM     21  C   UNL     1       0.761   9.707  19.902  0.00  0.00    +0.000 A 
ATOM     22 CL   UNL     1       0.023  11.190  19.377  0.00  0.00    +0.000 Cl
BRANCH  15  24
ATOM     23  C   UNL     1      -0.882  10.637  22.831  0.00  0.00    +0.000 C 
ATOM     24  N   UNL     1      -0.213  10.006  22.103  0.00  0.00    +0.000 NA
ENDBRANCH  15  24
ENDBRANCH  13  18
ENDBRANCH   1  13
BRANCH   1  25
ATOM     25  C   UNL     1       1.522   4.813  18.781  0.00  0.00    +0.000 C 
ATOM     26  C   UNL     1       1.220   3.860  19.932  0.00  0.00    +0.000 C 
BRANCH  25  27
ATOM     27  O   UNL     1       1.230   4.175  17.529  0.00  0.00    +0.000 OA
ATOM     28  H   UNL     1       0.436   3.620  17.658  0.00  0.00    +0.000 HD
ENDBRANCH  25  27
ENDBRANCH   1  25
TORSDOF 7
ENDMDL
MODEL 7
REMARK VINA RESULT:      -7.1      0.671      1.158
REMARK  Name = 
REMARK  9 active torsions:
REMARK  status: ('A' for Active; 'I' for Inactive)
REMARK    1  A    between atoms: N_2  and  C_3
REMARK    2  A    between atoms: C_6  and  N_7
REMARK    3  A    between atoms: N_7  and  C_8
REMARK    4  A    between atoms: C_8  and  C_9
REMARK    5  A    between atoms: C_8  and  C_20
REMARK    6  A    between atoms: C_12  and  C_13
REMARK    7  A    between atoms: C_20  and  C_21
REMARK    8  A    between atoms: C_20  and  O_22
REMARK    9  A    between atoms: C_23  and  C_24
REMARK                            x       y       z     vdW  Elec       q    Type
REMARK                         _______ _______ _______ _____ _____    ______ ____
ROOT
ATOM      1  C   UNL     1       3.971   4.939  19.083  0.00  0.00    +0.000 C 
ENDROOT
BRANCH   1   2
ATOM      2  C   UNL     1       4.820   5.225  17.860  0.00  0.00    +0.000 A 
ATOM      3  N   UNL     1       5.859   6.032  17.792  0.00  0.00    +0.000 NA
ATOM      4  N   UNL     1       6.472   5.980  16.549  0.00  0.00    +0.000 NA
ATOM      5  C   UNL     1       5.914   5.104  15.730  0.00  0.00    +0.000 A 
ATOM      6  S   UNL     1       4.497   4.381  16.394  0.00  0.00    +0.000 S 
BRANCH   5   7
ATOM      7  C   UNL     1       6.385   4.768  14.378  0.00  0.00    +0.000 A 
ATOM      8  C   UNL     1       5.768   3.781  13.584  0.00  0.00    +0.000 A 
ATOM      9  C   UNL     1       6.246   3.469  12.309  0.00  0.00    +0.000 A 
ATOM     10  C   UNL     1       7.357   4.136  11.802  0.00  0.00    +0.000 A 
ATOM     11  C   UNL     1       7.991   5.111  12.569  0.00  0.00    +0.000 A 
ATOM     12  C   UNL     1       7.512   5.421  13.847  0.00  0.00    +0.000 A 
ENDBRANCH   5   7
ENDBRANCH   1   2
BRANCH   1  13
ATOM     13  N   UNL     1       2.557   5.359  18.866  0.00  0.00    +0.000 N 
ATOM     14  H   UNL     1       1.959   4.567  19.105  0.00  0.00    +0.000 HD
BRANCH  13  18
ATOM     15  C   UNL     1       1.174   8.978  20.533  0.00  0.00    +0.000 A 
ATOM     16  C   UNL     1       1.149   7.814  21.286  0.00  0.00    +0.000 A 
ATOM     17  C   UNL     1       1.607   6.630  20.716  0.00  0.00    +0.000 A 
ATOM     18  C   UNL     1       2.076   6.568  19.390  0.00  0.00    +0.000 A 
ATOM     19  C   UNL     1       2.185   7.786  18.663  0.00  0.00    +0.000 A 
ATOM     20  C   UNL     1       2.807   7.854  17.284  0.00  0.00    +0.000 C 
ATOM     21  C   UNL     1       1.680   8.983  19.231  0.00  0.00    +0.000 A 
ATOM     22 CL   UNL     1       1.671  10.465  18.325  0.00  0.00    +0.000 Cl
BRANCH  15  24
ATOM     23  C   UNL     1       0.364  11.140  21.635  0.00  0.00    +0.000 C 
ATOM     24  N   UNL     1       0.713  10.141  21.130  0.00  0.00    +0.000 NA
ENDBRANCH  15  24
ENDBRANCH  13  18
ENDBRANCH   1  13
BRANCH   1  25
ATOM     25  C   UNL     1       3.998   3.440  19.517  0.00  0.00    +0.000 C 
ATOM     26  C   UNL     1       3.146   3.121  20.741  0.00  0.00    +0.000 C 
BRANCH  25  27
ATOM     27  O   UNL     1       5.338   2.965  19.717  0.00  0.00    +0.000 OA
ATOM     28  H   UNL     1       5.922   3.746  19.775  0.00  0.00    +0.000 HD
ENDBRANCH  25  27
ENDBRANCH   1  25
TORSDOF 7
ENDMDL
MODEL 8
REMARK VINA RESULT:      -6.9      1.760      2.598
REMARK  Name = 
REMARK  9 active torsions:
REMARK  status: ('A' for Active; 'I' for Inactive)
REMARK    1  A    between atoms: N_2  and  C_3
REMARK    2  A    between atoms: C_6  and  N_7
REMARK    3  A    between atoms: N_7  and  C_8
REMARK    4  A    between atoms: C_8  and  C_9
REMARK    5  A    between atoms: C_8  and  C_20
REMARK    6  A    between atoms: C_12  and  C_13
REMARK    7  A    between atoms: C_20  and  C_21
REMARK    8  A    between atoms: C_20  and  O_22
REMARK    9  A    between atoms: C_23  and  C_24
REMARK                            x       y       z     vdW  Elec       q    Type
REMARK                         _______ _______ _______ _____ _____    ______ ____
ROOT
ATOM      1  C   UNL     1       4.911   5.739  18.040  0.00  0.00    +0.000 C 
ENDROOT
BRANCH   1   2
ATOM      2  C   UNL     1       5.196   5.571  16.561  0.00  0.00    +0.000 A 
ATOM      3  N   UNL     1       5.677   6.483  15.741  0.00  0.00    +0.000 NA
ATOM      4  N   UNL     1       5.915   5.966  14.476  0.00  0.00    +0.000 NA
ATOM      5  C   UNL     1       5.656   4.673  14.386  0.00  0.00    +0.000 A 
ATOM      6  S   UNL     1       4.961   4.031  15.827  0.00  0.00    +0.000 S 
BRANCH   5   7
ATOM      7  C   UNL     1       5.882   3.829  13.202  0.00  0.00    +0.000 A 
ATOM      8  C   UNL     1       4.838   3.143  12.551  0.00  0.00    +0.000 A 
ATOM      9  C   UNL     1       5.084   2.335  11.437  0.00  0.00    +0.000 A 
ATOM     10  C   UNL     1       6.381   2.193  10.954  0.00  0.00    +0.000 A 
ATOM     11  C   UNL     1       7.432   2.855  11.584  0.00  0.00    +0.000 A 
ATOM     12  C   UNL     1       7.185   3.662  12.700  0.00  0.00    +0.000 A 
ENDBRANCH   5   7
ENDBRANCH   1   2
BRANCH   1  13
ATOM     13  N   UNL     1       3.445   5.754  18.308  0.00  0.00    +0.000 N 
ATOM     14  H   UNL     1       3.244   5.005  18.972  0.00  0.00    +0.000 HD
BRANCH  13  18
ATOM     15  C   UNL     1       1.405   9.338  19.188  0.00  0.00    +0.000 A 
ATOM     16  C   UNL     1       2.069   9.199  17.980  0.00  0.00    +0.000 A 
ATOM     17  C   UNL     1       2.740   8.009  17.710  0.00  0.00    +0.000 A 
ATOM     18  C   UNL     1       2.784   6.948  18.635  0.00  0.00    +0.000 A 
ATOM     19  C   UNL     1       2.018   7.068  19.827  0.00  0.00    +0.000 A 
ATOM     20  C   UNL     1       1.881   5.934  20.821  0.00  0.00    +0.000 C 
ATOM     21  C   UNL     1       1.371   8.296  20.117  0.00  0.00    +0.000 A 
ATOM     22 CL   UNL     1       0.539   8.532  21.623  0.00  0.00    +0.000 Cl
BRANCH  15  24
ATOM     23  C   UNL     1       0.152  11.530  19.607  0.00  0.00    +0.000 C 
ATOM     24  N   UNL     1       0.745  10.535  19.425  0.00  0.00    +0.000 NA
ENDBRANCH  15  24
ENDBRANCH  13  18
ENDBRANCH   1  13
BRANCH   1  25
ATOM     25  C   UNL     1       5.581   4.642  18.926  0.00  0.00    +0.000 C 
ATOM     26  C   UNL     1       4.601   3.683  19.594  0.00  0.00    +0.000 C 
BRANCH  25  27
ATOM     27  O   UNL     1       6.457   5.210  19.911  0.00  0.00    +0.000 OA
ATOM     28  H   UNL     1       6.389   6.182  19.841  0.00  0.00    +0.000 HD
ENDBRANCH  25  27
ENDBRANCH   1  25
TORSDOF 7
ENDMDL
MODEL 9
REMARK VINA RESULT:      -6.9      4.449      7.172
REMARK  Name = 
REMARK  9 active torsions:
REMARK  status: ('A' for Active; 'I' for Inactive)
REMARK    1  A    between atoms: N_2  and  C_3
REMARK    2  A    between atoms: C_6  and  N_7
REMARK    3  A    between atoms: N_7  and  C_8
REMARK    4  A    between atoms: C_8  and  C_9
REMARK    5  A    between atoms: C_8  and  C_20
REMARK    6  A    between atoms: C_12  and  C_13
REMARK    7  A    between atoms: C_20  and  C_21
REMARK    8  A    between atoms: C_20  and  O_22
REMARK    9  A    between atoms: C_23  and  C_24
REMARK                            x       y       z     vdW  Elec       q    Type
REMARK                         _______ _______ _______ _____ _____    ______ ____
ROOT
ATOM      1  C   UNL     1       0.856  10.801  18.724  0.00  0.00    +0.000 C 
ENDROOT
BRANCH   1   2
ATOM      2  C   UNL     1       1.444   9.434  19.014  0.00  0.00    +0.000 A 
ATOM      3  N   UNL     1       1.390   8.777  20.155  0.00  0.00    +0.000 NA
ATOM      4  N   UNL     1       1.938   7.508  20.046  0.00  0.00    +0.000 NA
ATOM      5  C   UNL     1       2.344   7.220  18.821  0.00  0.00    +0.000 A 
ATOM      6  S   UNL     1       2.207   8.558  17.743  0.00  0.00    +0.000 S 
BRANCH   5   7
ATOM      7  C   UNL     1       2.894   5.930  18.377  0.00  0.00    +0.000 A 
ATOM      8  C   UNL     1       4.278   5.667  18.344  0.00  0.00    +0.000 A 
ATOM      9  C   UNL     1       4.773   4.438  17.901  0.00  0.00    +0.000 A 
ATOM     10  C   UNL     1       3.894   3.446  17.477  0.00  0.00    +0.000 A 
ATOM     11  C   UNL     1       2.522   3.683  17.492  0.00  0.00    +0.000 A 
ATOM     12  C   UNL     1       2.027   4.915  17.934  0.00  0.00    +0.000 A 
ENDBRANCH   5   7
ENDBRANCH   1   2
BRANCH   1  13
ATOM     13  N   UNL     1      -0.203  11.152  19.712  0.00  0.00    +0.000 N 
ATOM     14  H   UNL     1       0.149  11.921  20.283  0.00  0.00    +0.000 HD
BRANCH  13  18
ATOM     15  C   UNL     1      -4.210  11.645  18.495  0.00  0.00    +0.000 A 
ATOM     16  C   UNL     1      -3.393  10.740  17.836  0.00  0.00    +0.000 A 
ATOM     17  C   UNL     1      -2.072  10.595  18.251  0.00  0.00    +0.000 A 
ATOM     18  C   UNL     1      -1.530  11.354  19.306  0.00  0.00    +0.000 A 
ATOM     19  C   UNL     1      -2.406  12.206  20.034  0.00  0.00    +0.000 A 
ATOM     20  C   UNL     1      -1.964  12.957  21.272  0.00  0.00    +0.000 C 
ATOM     21  C   UNL     1      -3.739  12.382  19.583  0.00  0.00    +0.000 A 
ATOM     22 CL   UNL     1      -4.801  13.515  20.361  0.00  0.00    +0.000 Cl
BRANCH  15  24
ATOM     23  C   UNL     1      -6.635  11.898  17.717  0.00  0.00    +0.000 C 
ATOM     24  N   UNL     1      -5.521  11.764  18.058  0.00  0.00    +0.000 NA
ENDBRANCH  15  24
ENDBRANCH  13  18
ENDBRANCH   1  13
BRANCH   1  25
ATOM     25  C   UNL     1       1.924  11.938  18.693  0.00  0.00    +0.000 C 
ATOM     26  C   UNL     1       1.464  13.254  19.313  0.00  0.00    +0.000 C 
BRANCH  25  27
ATOM     27  O   UNL     1       2.421  12.170  17.367  0.00  0.00    +0.000 OA
ATOM     28  H   UNL     1       1.695  11.977  16.742  0.00  0.00    +0.000 HD
ENDBRANCH  25  27
ENDBRANCH   1  25
TORSDOF 7
ENDMDL
