MODEL 1
REMARK VINA RESULT:      -8.1      0.000      0.000
REMARK  Name = 
REMARK  9 active torsions:
REMARK  status: ('A' for Active; 'I' for Inactive)
REMARK    1  A    between atoms: C_1  and  O_2
REMARK    2  A    between atoms: O_2  and  C_3
REMARK    3  A    between atoms: C_6  and  C_7
REMARK    4  A    between atoms: C_7  and  O_9
REMARK    5  A    between atoms: O_9  and  C_10
REMARK    6  A    between atoms: C_10  and  C_11
REMARK    7  A    between atoms: N_13  and  C_14
REMARK    8  A    between atoms: C_14  and  C_15
REMARK    9  A    between atoms: C_25  and  N_26
REMARK                            x       y       z     vdW  Elec       q    Type
REMARK                         _______ _______ _______ _____ _____    ______ ____
ROOT
ATOM      1  C   UNL     1       1.016   2.758  18.633  0.00  0.00    +0.000 C 
ENDROOT
BRANCH   1   2
ATOM      2  C   UNL     1       1.252   3.604  19.890  0.00  0.00    +0.000 C 
ATOM      3  O   UNL     1       1.106   3.150  21.022  0.00  0.00    +0.000 OA
ATOM      4  N   UNL     1       1.691   4.890  19.631  0.00  0.00    +0.000 N 
ATOM      5  H   UNL     1       1.484   5.275  18.719  0.00  0.00    +0.000 HD
BRANCH   4   6
ATOM      6  C   UNL     1       1.910   5.851  20.700  0.00  0.00    +0.000 C 
BRANCH   6   7
ATOM      7  C   UNL     1       1.877   7.252  20.144  0.00  0.00    +0.000 A 
ATOM      8  C   UNL     1       2.320   7.517  18.824  0.00  0.00    +0.000 A 
ATOM      9  C   UNL     1       2.037   8.737  18.204  0.00  0.00    +0.000 A 
ATOM     10  C   UNL     1       1.278   9.640  18.913  0.00  0.00    +0.000 A 
ATOM     11  C   UNL     1       0.908   9.416  20.221  0.00  0.00    +0.000 A 
ATOM     12  C   UNL     1       1.226   8.255  20.879  0.00  0.00    +0.000 A 
ATOM     13  O   UNL     1       0.091  10.397  20.698  0.00  0.00    +0.000 OA
ATOM     14  C   UNL     1      -0.275  11.008  19.447  0.00  0.00    +0.000 C 
ATOM     15  O   UNL     1       0.709  10.777  18.417  0.00  0.00    +0.000 OA
ENDBRANCH   6   7
ENDBRANCH   4   6
ENDBRANCH   1   2
BRANCH   1  16
ATOM     16  O   UNL     1       2.036   2.905  17.643  0.00  0.00    +0.000 OA
BRANCH  16  17
ATOM     17  C   UNL     1       3.237   2.400  18.010  0.00  0.00    +0.000 C 
ATOM     18  O   UNL     1       3.434   1.273  18.433  0.00  0.00    +0.000 OA
BRANCH  17  22
ATOM     19  C   UNL     1       6.481   5.187  17.463  0.00  0.00    +0.000 A 
ATOM     20  C   UNL     1       6.098   4.755  18.735  0.00  0.00    +0.000 A 
ATOM     21  C   UNL     1       5.034   3.858  18.889  0.00  0.00    +0.000 A 
ATOM     22  C   UNL     1       4.323   3.391  17.775  0.00  0.00    +0.000 A 
ATOM     23  C   UNL     1       4.664   3.847  16.500  0.00  0.00    +0.000 A 
ATOM     24  C   UNL     1       5.728   4.750  16.367  0.00  0.00    +0.000 A 
BRANCH  24  25
ATOM     25  N   UNL     1       6.072   5.191  15.024  0.00  0.00    +0.000 N 
ATOM     26  O   UNL     1       5.685   6.313  14.671  0.00  0.00    +0.000 OA
ATOM     27  O   UNL     1       6.683   4.377  14.319  0.00  0.00    +0.000 OA
ENDBRANCH  24  25
BRANCH  19  29
ATOM     28  C   UNL     1       7.364   7.379  17.601  0.00  0.00    +0.000 C 
ATOM     29  O   UNL     1       7.547   6.012  17.238  0.00  0.00    +0.000 OA
ENDBRANCH  19  29
ENDBRANCH  17  22
ENDBRANCH  16  17
ENDBRANCH   1  16
TORSDOF 8
ENDMDL
MODEL 2
REMARK VINA RESULT:      -7.6      2.787      4.435
REMARK  Name = 
REMARK  9 active torsions:
REMARK  status: ('A' for Active; 'I' for Inactive)
REMARK    1  A    between atoms: C_1  and  O_2
REMARK    2  A    between atoms: O_2  and  C_3
REMARK    3  A    between atoms: C_6  and  C_7
REMARK    4  A    between atoms: C_7  and  O_9
REMARK    5  A    between atoms: O_9  and  C_10
REMARK    6  A    between atoms: C_10  and  C_11
REMARK    7  A    between atoms: N_13  and  C_14
REMARK    8  A    between atoms: C_14  and  C_15
REMARK    9  A    between atoms: C_25  and  N_26
REMARK                            x       y       z     vdW  Elec       q    Type
REMARK                         _______ _______ _______ _____ _____    ______ ____
ROOT
ATOM      1  C   UNL     1       2.305   7.539  19.119  0.00  0.00    +0.000 C 
ENDROOT
BRANCH   1   2
ATOM      2  C   UNL     1       1.487   8.639  19.808  0.00  0.00    +0.000 C 
ATOM      3  O   UNL     1       1.236   8.614  21.010  0.00  0.00    +0.000 OA
ATOM      4  N   UNL     1       1.112   9.673  18.969  0.00  0.00    +0.000 N 
ATOM      5  H   UNL     1       1.075   9.475  17.978  0.00  0.00    +0.000 HD
BRANCH   4   6
ATOM      6  C   UNL     1       0.284  10.773  19.436  0.00  0.00    +0.000 C 
BRANCH   6   7
ATOM      7  C   UNL     1      -1.062  10.724  18.759  0.00  0.00    +0.000 A 
ATOM      8  C   UNL     1      -2.105  11.597  19.158  0.00  0.00    +0.000 A 
ATOM      9  C   UNL     1      -3.246  11.758  18.368  0.00  0.00    +0.000 A 
ATOM     10  C   UNL     1      -3.287  11.071  17.176  0.00  0.00    +0.000 A 
ATOM     11  C   UNL     1      -2.311  10.167  16.820  0.00  0.00    +0.000 A 
ATOM     12  C   UNL     1      -1.209   9.938  17.605  0.00  0.00    +0.000 A 
ATOM     13  O   UNL     1      -2.505   9.669  15.566  0.00  0.00    +0.000 OA
ATOM     14  C   UNL     1      -3.464  10.633  15.092  0.00  0.00    +0.000 C 
ATOM     15  O   UNL     1      -4.190  11.259  16.171  0.00  0.00    +0.000 OA
ENDBRANCH   6   7
ENDBRANCH   4   6
ENDBRANCH   1   2
BRANCH   1  16
ATOM     16  O   UNL     1       2.698   6.483  19.998  0.00  0.00    +0.000 OA
BRANCH  16  17
ATOM     17  C   UNL     1       2.757   5.266  19.406  0.00  0.00    +0.000 C 
ATOM     18  O   UNL     1       1.901   4.401  19.477  0.00  0.00    +0.000 OA
BRANCH  17  22
ATOM     19  C   UNL     1       6.248   4.931  16.897  0.00  0.00    +0.000 A 
ATOM     20  C   UNL     1       4.989   4.522  16.452  0.00  0.00    +0.000 A 
ATOM     21  C   UNL     1       3.870   4.630  17.288  0.00  0.00    +0.000 A 
ATOM     22  C   UNL     1       3.996   5.133  18.591  0.00  0.00    +0.000 A 
ATOM     23  C   UNL     1       5.255   5.506  19.067  0.00  0.00    +0.000 A 
ATOM     24  C   UNL     1       6.362   5.384  18.216  0.00  0.00    +0.000 A 
BRANCH  24  25
ATOM     25  N   UNL     1       7.657   5.798  18.734  0.00  0.00    +0.000 N 
ATOM     26  O   UNL     1       8.278   4.994  19.441  0.00  0.00    +0.000 OA
ATOM     27  O   UNL     1       8.010   6.955  18.468  0.00  0.00    +0.000 OA
ENDBRANCH  24  25
BRANCH  19  29
ATOM     28  C   UNL     1       7.138   4.811  14.707  0.00  0.00    +0.000 C 
ATOM     29  O   UNL     1       7.366   4.911  16.112  0.00  0.00    +0.000 OA
ENDBRANCH  19  29
ENDBRANCH  17  22
ENDBRANCH  16  17
ENDBRANCH   1  16
TORSDOF 8
ENDMDL
MODEL 3
REMARK VINA RESULT:      -7.5      1.069      1.712
REMARK  Name = 
REMARK  9 active torsions:
REMARK  status: ('A' for Active; 'I' for Inactive)
REMARK    1  A    between atoms: C_1  and  O_2
REMARK    2  A    between atoms: O_2  and  C_3
REMARK    3  A    between atoms: C_6  and  C_7
REMARK    4  A    between atoms: C_7  and  O_9
REMARK    5  A    between atoms: O_9  and  C_10
REMARK    6  A    between atoms: C_10  and  C_11
REMARK    7  A    between atoms: N_13  and  C_14
REMARK    8  A    between atoms: C_14  and  C_15
REMARK    9  A    between atoms: C_25  and  N_26
REMARK                            x       y       z     vdW  Elec       q    Type
REMARK                         _______ _______ _______ _____ _____    ______ ____
ROOT
ATOM      1  C   UNL     1       1.667   3.319  19.314  0.00  0.00    +0.000 C 
ENDROOT
BRANCH   1   2
ATOM      2  C   UNL     1       1.663   4.500  18.335  0.00  0.00    +0.000 C 
ATOM      3  O   UNL     1       1.114   4.440  17.238  0.00  0.00    +0.000 OA
ATOM      4  N   UNL     1       2.279   5.639  18.821  0.00  0.00    +0.000 N 
ATOM      5  H   UNL     1       2.958   5.518  19.561  0.00  0.00    +0.000 HD
BRANCH   4   6
ATOM      6  C   UNL     1       2.420   6.836  18.009  0.00  0.00    +0.000 C 
BRANCH   6   7
ATOM      7  C   UNL     1       2.009   8.048  18.807  0.00  0.00    +0.000 A 
ATOM      8  C   UNL     1       1.631   9.249  18.156  0.00  0.00    +0.000 A 
ATOM      9  C   UNL     1       0.987  10.272  18.858  0.00  0.00    +0.000 A 
ATOM     10  C   UNL     1       0.702  10.041  20.184  0.00  0.00    +0.000 A 
ATOM     11  C   UNL     1       1.132   8.907  20.837  0.00  0.00    +0.000 A 
ATOM     12  C   UNL     1       1.823   7.912  20.192  0.00  0.00    +0.000 A 
ATOM     13  O   UNL     1       0.666   8.843  22.117  0.00  0.00    +0.000 OA
ATOM     14  C   UNL     1      -0.365   9.845  22.026  0.00  0.00    +0.000 C 
ATOM     15  O   UNL     1      -0.106  10.802  20.977  0.00  0.00    +0.000 OA
ENDBRANCH   6   7
ENDBRANCH   4   6
ENDBRANCH   1   2
BRANCH   1  16
ATOM     16  O   UNL     1       2.978   2.900  19.700  0.00  0.00    +0.000 OA
BRANCH  16  17
ATOM     17  C   UNL     1       3.741   2.462  18.671  0.00  0.00    +0.000 C 
ATOM     18  O   UNL     1       3.623   1.387  18.107  0.00  0.00    +0.000 OA
BRANCH  17  22
ATOM     19  C   UNL     1       6.713   5.406  17.624  0.00  0.00    +0.000 A 
ATOM     20  C   UNL     1       6.455   5.073  18.956  0.00  0.00    +0.000 A 
ATOM     21  C   UNL     1       5.477   4.121  19.273  0.00  0.00    +0.000 A 
ATOM     22  C   UNL     1       4.728   3.500  18.264  0.00  0.00    +0.000 A 
ATOM     23  C   UNL     1       4.942   3.854  16.929  0.00  0.00    +0.000 A 
ATOM     24  C   UNL     1       5.921   4.813  16.634  0.00  0.00    +0.000 A 
BRANCH  24  25
ATOM     25  N   UNL     1       6.134   5.146  15.234  0.00  0.00    +0.000 N 
ATOM     26  O   UNL     1       6.949   4.465  14.598  0.00  0.00    +0.000 OA
ATOM     27  O   UNL     1       5.517   6.130  14.804  0.00  0.00    +0.000 OA
ENDBRANCH  24  25
BRANCH  19  29
ATOM     28  C   UNL     1       7.430   7.657  17.493  0.00  0.00    +0.000 C 
ATOM     29  O   UNL     1       7.694   6.278  17.244  0.00  0.00    +0.000 OA
ENDBRANCH  19  29
ENDBRANCH  17  22
ENDBRANCH  16  17
ENDBRANCH   1  16
TORSDOF 8
ENDMDL
MODEL 4
REMARK VINA RESULT:      -7.4      1.014      1.178
REMARK  Name = 
REMARK  9 active torsions:
REMARK  status: ('A' for Active; 'I' for Inactive)
REMARK    1  A    between atoms: C_1  and  O_2
REMARK    2  A    between atoms: O_2  and  C_3
REMARK    3  A    between atoms: C_6  and  C_7
REMARK    4  A    between atoms: C_7  and  O_9
REMARK    5  A    between atoms: O_9  and  C_10
REMARK    6  A    between atoms: C_10  and  C_11
REMARK    7  A    between atoms: N_13  and  C_14
REMARK    8  A    between atoms: C_14  and  C_15
REMARK    9  A    between atoms: C_25  and  N_26
REMARK                            x       y       z     vdW  Elec       q    Type
REMARK                         _______ _______ _______ _____ _____    ______ ____
ROOT
ATOM      1  C   UNL     1       2.556   2.073  19.569  0.00  0.00    +0.000 C 
ENDROOT
BRANCH   1   2
ATOM      2  C   UNL     1       1.856   3.089  20.481  0.00  0.00    +0.000 C 
ATOM      3  O   UNL     1       1.056   2.749  21.349  0.00  0.00    +0.000 OA
ATOM      4  N   UNL     1       2.247   4.399  20.271  0.00  0.00    +0.000 N 
ATOM      5  H   UNL     1       2.643   4.625  19.369  0.00  0.00    +0.000 HD
BRANCH   4   6
ATOM      6  C   UNL     1       1.646   5.502  21.004  0.00  0.00    +0.000 C 
BRANCH   6   7
ATOM      7  C   UNL     1       1.849   6.790  20.248  0.00  0.00    +0.000 A 
ATOM      8  C   UNL     1       2.311   6.778  18.908  0.00  0.00    +0.000 A 
ATOM      9  C   UNL     1       2.235   7.925  18.113  0.00  0.00    +0.000 A 
ATOM     10  C   UNL     1       1.657   9.041  18.675  0.00  0.00    +0.000 A 
ATOM     11  C   UNL     1       1.274   9.078  19.997  0.00  0.00    +0.000 A 
ATOM     12  C   UNL     1       1.395   7.988  20.822  0.00  0.00    +0.000 A 
ATOM     13  O   UNL     1       0.648  10.246  20.317  0.00  0.00    +0.000 OA
ATOM     14  C   UNL     1       0.375  10.722  18.986  0.00  0.00    +0.000 C 
ATOM     15  O   UNL     1       1.287  10.174  18.011  0.00  0.00    +0.000 OA
ENDBRANCH   6   7
ENDBRANCH   4   6
ENDBRANCH   1   2
BRANCH   1  16
ATOM     16  O   UNL     1       3.729   2.585  18.935  0.00  0.00    +0.000 OA
BRANCH  16  17
ATOM     17  C   UNL     1       3.513   3.075  17.691  0.00  0.00    +0.000 C 
ATOM     18  O   UNL     1       2.571   2.791  16.970  0.00  0.00    +0.000 OA
BRANCH  17  22
ATOM     19  C   UNL     1       6.603   5.948  16.803  0.00  0.00    +0.000 A 
ATOM     20  C   UNL     1       5.916   5.969  18.019  0.00  0.00    +0.000 A 
ATOM     21  C   UNL     1       4.908   5.033  18.281  0.00  0.00    +0.000 A 
ATOM     22  C   UNL     1       4.558   4.070  17.324  0.00  0.00    +0.000 A 
ATOM     23  C   UNL     1       5.204   4.063  16.086  0.00  0.00    +0.000 A 
ATOM     24  C   UNL     1       6.205   5.013  15.841  0.00  0.00    +0.000 A 
BRANCH  24  25
ATOM     25  N   UNL     1       6.873   4.968  14.549  0.00  0.00    +0.000 N 
ATOM     26  O   UNL     1       6.331   4.320  13.644  0.00  0.00    +0.000 OA
ATOM     27  O   UNL     1       7.968   5.541  14.477  0.00  0.00    +0.000 OA
ENDBRANCH  24  25
BRANCH  19  29
ATOM     28  C   UNL     1       7.875   7.836  17.451  0.00  0.00    +0.000 C 
ATOM     29  O   UNL     1       7.637   6.792  16.508  0.00  0.00    +0.000 OA
ENDBRANCH  19  29
ENDBRANCH  17  22
ENDBRANCH  16  17
ENDBRANCH   1  16
TORSDOF 8
ENDMDL
MODEL 5
REMARK VINA RESULT:      -7.4      4.348      7.690
REMARK  Name = 
REMARK  9 active torsions:
REMARK  status: ('A' for Active; 'I' for Inactive)
REMARK    1  A    between atoms: C_1  and  O_2
REMARK    2  A    between atoms: O_2  and  C_3
REMARK    3  A    between atoms: C_6  and  C_7
REMARK    4  A    between atoms: C_7  and  O_9
REMARK    5  A    between atoms: O_9  and  C_10
REMARK    6  A    between atoms: C_10  and  C_11
REMARK    7  A    between atoms: N_13  and  C_14
REMARK    8  A    between atoms: C_14  and  C_15
REMARK    9  A    between atoms: C_25  and  N_26
REMARK                            x       y       z     vdW  Elec       q    Type
REMARK                         _______ _______ _______ _____ _____    ______ ____
ROOT
ATOM      1  C   UNL     1       7.037   7.138  16.760  0.00  0.00    +0.000 C 
ENDROOT
BRANCH   1   2
ATOM      2  C   UNL     1       7.862   7.592  17.971  0.00  0.00    +0.000 C 
ATOM      3  O   UNL     1       8.208   6.815  18.857  0.00  0.00    +0.000 OA
ATOM      4  N   UNL     1       8.218   8.928  17.943  0.00  0.00    +0.000 N 
ATOM      5  H   UNL     1       7.651   9.547  17.378  0.00  0.00    +0.000 HD
BRANCH   4   6
ATOM      6  C   UNL     1       8.951   9.546  19.036  0.00  0.00    +0.000 C 
BRANCH   6   7
ATOM      7  C   UNL     1       9.487  10.886  18.600  0.00  0.00    +0.000 A 
ATOM      8  C   UNL     1       8.689  11.769  17.831  0.00  0.00    +0.000 A 
ATOM      9  C   UNL     1       9.058  13.107  17.663  0.00  0.00    +0.000 A 
ATOM     10  C   UNL     1      10.197  13.530  18.309  0.00  0.00    +0.000 A 
ATOM     11  C   UNL     1      11.013  12.659  18.997  0.00  0.00    +0.000 A 
ATOM     12  C   UNL     1      10.712  11.327  19.126  0.00  0.00    +0.000 A 
ATOM     13  O   UNL     1      12.034  13.304  19.629  0.00  0.00    +0.000 OA
ATOM     14  C   UNL     1      11.526  14.649  19.553  0.00  0.00    +0.000 C 
ATOM     15  O   UNL     1      10.603  14.824  18.458  0.00  0.00    +0.000 OA
ENDBRANCH   6   7
ENDBRANCH   4   6
ENDBRANCH   1   2
BRANCH   1  16
ATOM     16  O   UNL     1       6.169   6.038  17.038  0.00  0.00    +0.000 OA
BRANCH  16  17
ATOM     17  C   UNL     1       4.888   6.397  17.295  0.00  0.00    +0.000 C 
ATOM     18  O   UNL     1       4.268   7.274  16.717  0.00  0.00    +0.000 OA
BRANCH  17  22
ATOM     19  C   UNL     1       3.015   3.980  20.334  0.00  0.00    +0.000 A 
ATOM     20  C   UNL     1       2.715   5.337  20.195  0.00  0.00    +0.000 A 
ATOM     21  C   UNL     1       3.344   6.106  19.208  0.00  0.00    +0.000 A 
ATOM     22  C   UNL     1       4.297   5.534  18.354  0.00  0.00    +0.000 A 
ATOM     23  C   UNL     1       4.641   4.188  18.508  0.00  0.00    +0.000 A 
ATOM     24  C   UNL     1       4.004   3.438  19.507  0.00  0.00    +0.000 A 
BRANCH  24  25
ATOM     25  N   UNL     1       4.369   2.036  19.629  0.00  0.00    +0.000 N 
ATOM     26  O   UNL     1       3.844   1.234  18.847  0.00  0.00    +0.000 OA
ATOM     27  O   UNL     1       5.143   1.749  20.553  0.00  0.00    +0.000 OA
ENDBRANCH  24  25
BRANCH  19  29
ATOM     28  C   UNL     1       1.036   2.833  20.942  0.00  0.00    +0.000 C 
ATOM     29  O   UNL     1       2.392   3.161  21.234  0.00  0.00    +0.000 OA
ENDBRANCH  19  29
ENDBRANCH  17  22
ENDBRANCH  16  17
ENDBRANCH   1  16
TORSDOF 8
ENDMDL
MODEL 6
REMARK VINA RESULT:      -7.3      1.372      2.232
REMARK  Name = 
REMARK  9 active torsions:
REMARK  status: ('A' for Active; 'I' for Inactive)
REMARK    1  A    between atoms: C_1  and  O_2
REMARK    2  A    between atoms: O_2  and  C_3
REMARK    3  A    between atoms: C_6  and  C_7
REMARK    4  A    between atoms: C_7  and  O_9
REMARK    5  A    between atoms: O_9  and  C_10
REMARK    6  A    between atoms: C_10  and  C_11
REMARK    7  A    between atoms: N_13  and  C_14
REMARK    8  A    between atoms: C_14  and  C_15
REMARK    9  A    between atoms: C_25  and  N_26
REMARK                            x       y       z     vdW  Elec       q    Type
REMARK                         _______ _______ _______ _____ _____    ______ ____
ROOT
ATOM      1  C   UNL     1       1.206   3.205  18.380  0.00  0.00    +0.000 C 
ENDROOT
BRANCH   1   2
ATOM      2  C   UNL     1       1.405   4.078  19.625  0.00  0.00    +0.000 C 
ATOM      3  O   UNL     1       0.986   3.747  20.731  0.00  0.00    +0.000 OA
ATOM      4  N   UNL     1       2.138   5.229  19.397  0.00  0.00    +0.000 N 
ATOM      5  H   UNL     1       2.167   5.579  18.449  0.00  0.00    +0.000 HD
BRANCH   4   6
ATOM      6  C   UNL     1       2.375   6.203  20.450  0.00  0.00    +0.000 C 
BRANCH   6   7
ATOM      7  C   UNL     1       1.734   7.518  20.084  0.00  0.00    +0.000 A 
ATOM      8  C   UNL     1       1.026   8.272  21.053  0.00  0.00    +0.000 A 
ATOM      9  C   UNL     1       0.675   9.603  20.810  0.00  0.00    +0.000 A 
ATOM     10  C   UNL     1       1.085  10.152  19.616  0.00  0.00    +0.000 A 
ATOM     11  C   UNL     1       1.709   9.403  18.643  0.00  0.00    +0.000 A 
ATOM     12  C   UNL     1       2.009   8.076  18.826  0.00  0.00    +0.000 A 
ATOM     13  O   UNL     1       2.103  10.164  17.583  0.00  0.00    +0.000 OA
ATOM     14  C   UNL     1       1.985  11.465  18.190  0.00  0.00    +0.000 C 
ATOM     15  O   UNL     1       1.044  11.474  19.284  0.00  0.00    +0.000 OA
ENDBRANCH   6   7
ENDBRANCH   4   6
ENDBRANCH   1   2
BRANCH   1  16
ATOM     16  O   UNL     1       2.159   3.457  17.345  0.00  0.00    +0.000 OA
BRANCH  16  17
ATOM     17  C   UNL     1       3.355   2.853  17.539  0.00  0.00    +0.000 C 
ATOM     18  O   UNL     1       3.519   1.685  17.847  0.00  0.00    +0.000 OA
BRANCH  17  22
ATOM     19  C   UNL     1       6.474   5.717  16.726  0.00  0.00    +0.000 A 
ATOM     20  C   UNL     1       5.289   5.701  15.986  0.00  0.00    +0.000 A 
ATOM     21  C   UNL     1       4.294   4.754  16.261  0.00  0.00    +0.000 A 
ATOM     22  C   UNL     1       4.475   3.796  17.268  0.00  0.00    +0.000 A 
ATOM     23  C   UNL     1       5.673   3.770  17.987  0.00  0.00    +0.000 A 
ATOM     24  C   UNL     1       6.658   4.723  17.692  0.00  0.00    +0.000 A 
BRANCH  24  25
ATOM     25  N   UNL     1       7.886   4.682  18.471  0.00  0.00    +0.000 N 
ATOM     26  O   UNL     1       7.923   5.336  19.521  0.00  0.00    +0.000 OA
ATOM     27  O   UNL     1       8.823   4.033  17.986  0.00  0.00    +0.000 OA
ENDBRANCH  24  25
BRANCH  19  29
ATOM     28  C   UNL     1       7.351   7.823  17.357  0.00  0.00    +0.000 C 
ATOM     29  O   UNL     1       7.456   6.651  16.550  0.00  0.00    +0.000 OA
ENDBRANCH  19  29
ENDBRANCH  17  22
ENDBRANCH  16  17
ENDBRANCH   1  16
TORSDOF 8
ENDMDL
MODEL 7
REMARK VINA RESULT:      -7.3      1.595      2.399
REMARK  Name = 
REMARK  9 active torsions:
REMARK  status: ('A' for Active; 'I' for Inactive)
REMARK    1  A    between atoms: C_1  and  O_2
REMARK    2  A    between atoms: O_2  and  C_3
REMARK    3  A    between atoms: C_6  and  C_7
REMARK    4  A    between atoms: C_7  and  O_9
REMARK    5  A    between atoms: O_9  and  C_10
REMARK    6  A    between atoms: C_10  and  C_11
REMARK    7  A    between atoms: N_13  and  C_14
REMARK    8  A    between atoms: C_14  and  C_15
REMARK    9  A    between atoms: C_25  and  N_26
REMARK                            x       y       z     vdW  Elec       q    Type
REMARK                         _______ _______ _______ _____ _____    ______ ____
ROOT
ATOM      1  C   UNL     1       2.910   1.960  18.872  0.00  0.00    +0.000 C 
ENDROOT
BRANCH   1   2
ATOM      2  C   UNL     1       3.097   3.110  19.869  0.00  0.00    +0.000 C 
ATOM      3  O   UNL     1       4.078   3.188  20.605  0.00  0.00    +0.000 OA
ATOM      4  N   UNL     1       2.097   4.065  19.824  0.00  0.00    +0.000 N 
ATOM      5  H   UNL     1       1.203   3.782  19.445  0.00  0.00    +0.000 HD
BRANCH   4   6
ATOM      6  C   UNL     1       2.079   5.196  20.738  0.00  0.00    +0.000 C 
BRANCH   6   7
ATOM      7  C   UNL     1       2.290   6.477  19.971  0.00  0.00    +0.000 A 
ATOM      8  C   UNL     1       2.928   6.467  18.706  0.00  0.00    +0.000 A 
ATOM      9  C   UNL     1       2.878   7.585  17.869  0.00  0.00    +0.000 A 
ATOM     10  C   UNL     1       2.150   8.667  18.309  0.00  0.00    +0.000 A 
ATOM     11  C   UNL     1       1.589   8.708  19.566  0.00  0.00    +0.000 A 
ATOM     12  C   UNL     1       1.676   7.651  20.437  0.00  0.00    +0.000 A 
ATOM     13  O   UNL     1       0.843   9.831  19.759  0.00  0.00    +0.000 OA
ATOM     14  C   UNL     1       0.719  10.252  18.387  0.00  0.00    +0.000 C 
ATOM     15  O   UNL     1       1.793   9.752  17.563  0.00  0.00    +0.000 OA
ENDBRANCH   6   7
ENDBRANCH   4   6
ENDBRANCH   1   2
BRANCH   1  16
ATOM     16  O   UNL     1       3.698   2.095  17.688  0.00  0.00    +0.000 OA
BRANCH  16  17
ATOM     17  C   UNL     1       3.400   3.191  16.950  0.00  0.00    +0.000 C 
ATOM     18  O   UNL     1       2.287   3.668  16.806  0.00  0.00    +0.000 OA
BRANCH  17  22
ATOM     19  C   UNL     1       6.882   4.941  15.105  0.00  0.00    +0.000 A 
ATOM     20  C   UNL     1       6.076   4.029  14.420  0.00  0.00    +0.000 A 
ATOM     21  C   UNL     1       4.956   3.464  15.043  0.00  0.00    +0.000 A 
ATOM     22  C   UNL     1       4.633   3.789  16.368  0.00  0.00    +0.000 A 
ATOM     23  C   UNL     1       5.453   4.666  17.082  0.00  0.00    +0.000 A 
ATOM     24  C   UNL     1       6.573   5.216  16.441  0.00  0.00    +0.000 A 
BRANCH  24  25
ATOM     25  N   UNL     1       7.397   6.140  17.204  0.00  0.00    +0.000 N 
ATOM     26  O   UNL     1       7.754   7.187  16.648  0.00  0.00    +0.000 OA
ATOM     27  O   UNL     1       7.723   5.775  18.342  0.00  0.00    +0.000 OA
ENDBRANCH  24  25
BRANCH  19  29
ATOM     28  C   UNL     1       8.018   5.524  13.112  0.00  0.00    +0.000 C 
ATOM     29  O   UNL     1       7.951   5.575  14.535  0.00  0.00    +0.000 OA
ENDBRANCH  19  29
ENDBRANCH  17  22
ENDBRANCH  16  17
ENDBRANCH   1  16
TORSDOF 8
ENDMDL
MODEL 8
REMARK VINA RESULT:      -7.3      2.150      7.259
REMARK  Name = 
REMARK  9 active torsions:
REMARK  status: ('A' for Active; 'I' for Inactive)
REMARK    1  A    between atoms: C_1  and  O_2
REMARK    2  A    between atoms: O_2  and  C_3
REMARK    3  A    between atoms: C_6  and  C_7
REMARK    4  A    between atoms: C_7  and  O_9
REMARK    5  A    between atoms: O_9  and  C_10
REMARK    6  A    between atoms: C_10  and  C_11
REMARK    7  A    between atoms: N_13  and  C_14
REMARK    8  A    between atoms: C_14  and  C_15
REMARK    9  A    between atoms: C_25  and  N_26
REMARK                            x       y       z     vdW  Elec       q    Type
REMARK                         _______ _______ _______ _____ _____    ______ ____
ROOT
ATOM      1  C   UNL     1       1.471   4.868  20.117  0.00  0.00    +0.000 C 
ENDROOT
BRANCH   1   2
ATOM      2  C   UNL     1       2.430   3.805  19.566  0.00  0.00    +0.000 C 
ATOM      3  O   UNL     1       2.814   2.854  20.243  0.00  0.00    +0.000 OA
ATOM      4  N   UNL     1       2.772   3.987  18.238  0.00  0.00    +0.000 N 
ATOM      5  H   UNL     1       2.683   4.921  17.861  0.00  0.00    +0.000 HD
BRANCH   4   6
ATOM      6  C   UNL     1       3.717   3.109  17.566  0.00  0.00    +0.000 C 
BRANCH   6   7
ATOM      7  C   UNL     1       4.948   3.886  17.174  0.00  0.00    +0.000 A 
ATOM      8  C   UNL     1       5.170   4.258  15.825  0.00  0.00    +0.000 A 
ATOM      9  C   UNL     1       6.142   5.205  15.493  0.00  0.00    +0.000 A 
ATOM     10  C   UNL     1       6.835   5.784  16.532  0.00  0.00    +0.000 A 
ATOM     11  C   UNL     1       6.674   5.373  17.836  0.00  0.00    +0.000 A 
ATOM     12  C   UNL     1       5.773   4.400  18.187  0.00  0.00    +0.000 A 
ATOM     13  O   UNL     1       7.391   6.138  18.707  0.00  0.00    +0.000 OA
ATOM     14  C   UNL     1       7.684   7.247  17.837  0.00  0.00    +0.000 C 
ATOM     15  O   UNL     1       7.653   6.872  16.444  0.00  0.00    +0.000 OA
ENDBRANCH   6   7
ENDBRANCH   4   6
ENDBRANCH   1   2
BRANCH   1  16
ATOM     16  O   UNL     1       2.131   6.040  20.598  0.00  0.00    +0.000 OA
BRANCH  16  17
ATOM     17  C   UNL     1       2.141   7.068  19.717  0.00  0.00    +0.000 C 
ATOM     18  O   UNL     1       2.565   7.020  18.575  0.00  0.00    +0.000 OA
BRANCH  17  22
ATOM     19  C   UNL     1       0.400  10.550  21.572  0.00  0.00    +0.000 A 
ATOM     20  C   UNL     1       0.715   9.409  22.314  0.00  0.00    +0.000 A 
ATOM     21  C   UNL     1       1.269   8.286  21.689  0.00  0.00    +0.000 A 
ATOM     22  C   UNL     1       1.502   8.277  20.306  0.00  0.00    +0.000 A 
ATOM     23  C   UNL     1       1.152   9.393  19.542  0.00  0.00    +0.000 A 
ATOM     24  C   UNL     1       0.593  10.505  20.187  0.00  0.00    +0.000 A 
BRANCH  24  25
ATOM     25  N   UNL     1       0.257  11.659  19.367  0.00  0.00    +0.000 N 
ATOM     26  O   UNL     1       1.141  12.503  19.172  0.00  0.00    +0.000 OA
ATOM     27  O   UNL     1      -0.915  11.729  18.972  0.00  0.00    +0.000 OA
ENDBRANCH  24  25
BRANCH  19  29
ATOM     28  C   UNL     1      -1.255  11.557  22.930  0.00  0.00    +0.000 C 
ATOM     29  O   UNL     1      -0.084  11.700  22.129  0.00  0.00    +0.000 OA
ENDBRANCH  19  29
ENDBRANCH  17  22
ENDBRANCH  16  17
ENDBRANCH   1  16
TORSDOF 8
ENDMDL
MODEL 9
REMARK VINA RESULT:      -7.3      4.512      7.559
REMARK  Name = 
REMARK  9 active torsions:
REMARK  status: ('A' for Active; 'I' for Inactive)
REMARK    1  A    between atoms: C_1  and  O_2
REMARK    2  A    between atoms: O_2  and  C_3
REMARK    3  A    between atoms: C_6  and  C_7
REMARK    4  A    between atoms: C_7  and  O_9
REMARK    5  A    between atoms: O_9  and  C_10
REMARK    6  A    between atoms: C_10  and  C_11
REMARK    7  A    between atoms: N_13  and  C_14
REMARK    8  A    between atoms: C_14  and  C_15
REMARK    9  A    between atoms: C_25  and  N_26
REMARK                            x       y       z     vdW  Elec       q    Type
REMARK                         _______ _______ _______ _____ _____    ______ ____
ROOT
ATOM      1  C   UNL     1       7.317   7.849  16.886  0.00  0.00    +0.000 C 
ENDROOT
BRANCH   1   2
ATOM      2  C   UNL     1       8.159   8.232  18.110  0.00  0.00    +0.000 C 
ATOM      3  O   UNL     1       8.528   7.403  18.938  0.00  0.00    +0.000 OA
ATOM      4  N   UNL     1       8.503   9.571  18.161  0.00  0.00    +0.000 N 
ATOM      5  H   UNL     1       7.920  10.219  17.648  0.00  0.00    +0.000 HD
BRANCH   4   6
ATOM      6  C   UNL     1       9.249  10.125  19.280  0.00  0.00    +0.000 C 
BRANCH   6   7
ATOM      7  C   UNL     1       9.862  11.444  18.883  0.00  0.00    +0.000 A 
ATOM      8  C   UNL     1      10.762  11.524  17.791  0.00  0.00    +0.000 A 
ATOM      9  C   UNL     1      11.112  12.760  17.241  0.00  0.00    +0.000 A 
ATOM     10  C   UNL     1      10.515  13.878  17.777  0.00  0.00    +0.000 A 
ATOM     11  C   UNL     1       9.698  13.811  18.883  0.00  0.00    +0.000 A 
ATOM     12  C   UNL     1       9.385  12.619  19.486  0.00  0.00    +0.000 A 
ATOM     13  O   UNL     1       9.147  15.020  19.189  0.00  0.00    +0.000 OA
ATOM     14  C   UNL     1       9.422  15.706  17.954  0.00  0.00    +0.000 C 
ATOM     15  O   UNL     1      10.545  15.136  17.249  0.00  0.00    +0.000 OA
ENDBRANCH   6   7
ENDBRANCH   4   6
ENDBRANCH   1   2
BRANCH   1  16
ATOM     16  O   UNL     1       7.051   6.448  16.790  0.00  0.00    +0.000 OA
BRANCH  16  17
ATOM     17  C   UNL     1       5.808   6.153  16.341  0.00  0.00    +0.000 C 
ATOM     18  O   UNL     1       5.341   6.498  15.268  0.00  0.00    +0.000 OA
BRANCH  17  22
ATOM     19  C   UNL     1       3.767   3.761  19.291  0.00  0.00    +0.000 A 
ATOM     20  C   UNL     1       5.023   4.318  19.546  0.00  0.00    +0.000 A 
ATOM     21  C   UNL     1       5.672   5.082  18.569  0.00  0.00    +0.000 A 
ATOM     22  C   UNL     1       5.084   5.288  17.313  0.00  0.00    +0.000 A 
ATOM     23  C   UNL     1       3.849   4.701  17.025  0.00  0.00    +0.000 A 
ATOM     24  C   UNL     1       3.219   3.934  18.015  0.00  0.00    +0.000 A 
BRANCH  24  25
ATOM     25  N   UNL     1       1.925   3.353  17.693  0.00  0.00    +0.000 N 
ATOM     26  O   UNL     1       1.834   2.119  17.691  0.00  0.00    +0.000 OA
ATOM     27  O   UNL     1       1.026   4.149  17.389  0.00  0.00    +0.000 OA
ENDBRANCH  24  25
BRANCH  19  29
ATOM     28  C   UNL     1       2.331   3.839  21.170  0.00  0.00    +0.000 C 
ATOM     29  O   UNL     1       3.054   3.058  20.221  0.00  0.00    +0.000 OA
ENDBRANCH  19  29
ENDBRANCH  17  22
ENDBRANCH  16  17
ENDBRANCH   1  16
TORSDOF 8
ENDMDL
