MODEL 1
REMARK VINA RESULT:      -8.1      0.000      0.000
REMARK  Name = 
REMARK  4 active torsions:
REMARK  status: ('A' for Active; 'I' for Inactive)
REMARK    1  A    between atoms: C_2  and  C_3
REMARK    2  A    between atoms: C_3  and  C_4
REMARK    3  A    between atoms: N_6  and  C_7
REMARK    4  A    between atoms: N_14  and  C_15
REMARK                            x       y       z     vdW  Elec       q    Type
REMARK                         _______ _______ _______ _____ _____    ______ ____
ROOT
ATOM      1  C   UNL     1       7.215   6.470  17.869  0.00  0.00    +0.000 C 
ENDROOT
BRANCH   1   3
ATOM      2  N   UNL     1       5.735   6.859  15.980  0.00  0.00    +0.000 NA
ATOM      3  C   UNL     1       6.793   6.272  16.424  0.00  0.00    +0.000 C 
ATOM      4  N   UNL     1       7.572   5.452  15.549  0.00  0.00    +0.000 N 
ATOM      5  H   UNL     1       5.154   7.471  16.571  0.00  0.00    +0.000 HD
ATOM      6  H   UNL     1       8.563   5.301  15.793  0.00  0.00    +0.000 HD
BRANCH   4   7
ATOM      7  C   UNL     1       7.084   4.861  14.340  0.00  0.00    +0.000 A 
ATOM      8  C   UNL     1       7.753   5.113  13.130  0.00  0.00    +0.000 A 
ATOM      9  C   UNL     1       7.315   4.525  11.938  0.00  0.00    +0.000 A 
ATOM     10  C   UNL     1       6.224   3.655  11.944  0.00  0.00    +0.000 A 
ATOM     11  C   UNL     1       5.557   3.382  13.140  0.00  0.00    +0.000 A 
ATOM     12  C   UNL     1       5.975   3.988  14.330  0.00  0.00    +0.000 A 
ENDBRANCH   4   7
ENDBRANCH   1   3
BRANCH   1  13
ATOM     13  C   UNL     1       6.399   5.672  18.851  0.00  0.00    +0.000 C 
ATOM     14  O   UNL     1       6.915   5.355  19.911  0.00  0.00    +0.000 OA
ATOM     15  N   UNL     1       5.114   5.304  18.537  0.00  0.00    +0.000 N 
ATOM     16  H   UNL     1       4.775   5.546  17.592  0.00  0.00    +0.000 HD
BRANCH  15  17
ATOM     17  C   UNL     1       4.203   4.581  19.377  0.00  0.00    +0.000 A 
ATOM     18  C   UNL     1       4.318   3.201  19.650  0.00  0.00    +0.000 A 
ATOM     19  C   UNL     1       3.386   2.551  20.465  0.00  0.00    +0.000 A 
ATOM     20  C   UNL     1       2.323   3.259  21.023  0.00  0.00    +0.000 A 
ATOM     21 CL   UNL     1       1.145   2.427  22.021  0.00  0.00    +0.000 Cl
ATOM     22  C   UNL     1       2.202   4.630  20.785  0.00  0.00    +0.000 A 
ATOM     23  C   UNL     1       3.136   5.289  19.978  0.00  0.00    +0.000 A 
ENDBRANCH  15  17
ENDBRANCH   1  13
TORSDOF 4
ENDMDL
MODEL 2
REMARK VINA RESULT:      -8.1      0.102      1.083
REMARK  Name = 
REMARK  4 active torsions:
REMARK  status: ('A' for Active; 'I' for Inactive)
REMARK    1  A    between atoms: C_2  and  C_3
REMARK    2  A    between atoms: C_3  and  C_4
REMARK    3  A    between atoms: N_6  and  C_7
REMARK    4  A    between atoms: N_14  and  C_15
REMARK                            x       y       z     vdW  Elec       q    Type
REMARK                         _______ _______ _______ _____ _____    ______ ____
ROOT
ATOM      1  C   UNL     1       7.252   6.450  17.883  0.00  0.00    +0.000 C 
ENDROOT
BRANCH   1   3
ATOM      2  N   UNL     1       5.830   6.915  15.966  0.00  0.00    +0.000 NA
ATOM      3  C   UNL     1       6.842   6.268  16.433  0.00  0.00    +0.000 C 
ATOM      4  N   UNL     1       7.585   5.395  15.576  0.00  0.00    +0.000 N 
ATOM      5  H   UNL     1       5.278   7.565  16.544  0.00  0.00    +0.000 HD
ATOM      6  H   UNL     1       8.560   5.186  15.838  0.00  0.00    +0.000 HD
BRANCH   4   7
ATOM      7  C   UNL     1       7.081   4.825  14.363  0.00  0.00    +0.000 A 
ATOM      8  C   UNL     1       7.753   5.072  13.155  0.00  0.00    +0.000 A 
ATOM      9  C   UNL     1       7.301   4.505  11.958  0.00  0.00    +0.000 A 
ATOM     10  C   UNL     1       6.190   3.660  11.959  0.00  0.00    +0.000 A 
ATOM     11  C   UNL     1       5.519   3.391  13.154  0.00  0.00    +0.000 A 
ATOM     12  C   UNL     1       5.953   3.977  14.348  0.00  0.00    +0.000 A 
ENDBRANCH   4   7
ENDBRANCH   1   3
BRANCH   1  13
ATOM     13  C   UNL     1       6.381   5.700  18.856  0.00  0.00    +0.000 C 
ATOM     14  O   UNL     1       6.867   5.353  19.921  0.00  0.00    +0.000 OA
ATOM     15  N   UNL     1       5.080   5.408  18.528  0.00  0.00    +0.000 N 
ATOM     16  H   UNL     1       4.765   5.670  17.579  0.00  0.00    +0.000 HD
BRANCH  15  17
ATOM     17  C   UNL     1       4.120   4.738  19.357  0.00  0.00    +0.000 A 
ATOM     18  C   UNL     1       3.082   5.401  20.048  0.00  0.00    +0.000 A 
ATOM     19  C   UNL     1       2.188   4.691  20.853  0.00  0.00    +0.000 A 
ATOM     20  C   UNL     1       2.308   3.308  20.990  0.00  0.00    +0.000 A 
ATOM     21 CL   UNL     1       1.197   2.432  22.026  0.00  0.00    +0.000 Cl
ATOM     22  C   UNL     1       3.313   2.628  20.299  0.00  0.00    +0.000 A 
ATOM     23  C   UNL     1       4.206   3.332  19.483  0.00  0.00    +0.000 A 
ENDBRANCH  15  17
ENDBRANCH   1  13
TORSDOF 4
ENDMDL
MODEL 3
REMARK VINA RESULT:      -8.0      0.117      1.088
REMARK  Name = 
REMARK  4 active torsions:
REMARK  status: ('A' for Active; 'I' for Inactive)
REMARK    1  A    between atoms: C_2  and  C_3
REMARK    2  A    between atoms: C_3  and  C_4
REMARK    3  A    between atoms: N_6  and  C_7
REMARK    4  A    between atoms: N_14  and  C_15
REMARK                            x       y       z     vdW  Elec       q    Type
REMARK                         _______ _______ _______ _____ _____    ______ ____
ROOT
ATOM      1  C   UNL     1       7.315   6.367  17.804  0.00  0.00    +0.000 C 
ENDROOT
BRANCH   1   3
ATOM      2  N   UNL     1       5.781   6.725  15.953  0.00  0.00    +0.000 NA
ATOM      3  C   UNL     1       6.868   6.170  16.367  0.00  0.00    +0.000 C 
ATOM      4  N   UNL     1       7.656   5.388  15.465  0.00  0.00    +0.000 N 
ATOM      5  H   UNL     1       5.192   7.310  16.563  0.00  0.00    +0.000 HD
ATOM      6  H   UNL     1       8.656   5.269  15.686  0.00  0.00    +0.000 HD
BRANCH   4   7
ATOM      7  C   UNL     1       7.161   4.793  14.261  0.00  0.00    +0.000 A 
ATOM      8  C   UNL     1       6.027   3.965  14.316  0.00  0.00    +0.000 A 
ATOM      9  C   UNL     1       5.505   3.392  13.151  0.00  0.00    +0.000 A 
ATOM     10  C   UNL     1       6.089   3.665  11.912  0.00  0.00    +0.000 A 
ATOM     11  C   UNL     1       7.206   4.498  11.838  0.00  0.00    +0.000 A 
ATOM     12  C   UNL     1       7.748   5.052  13.004  0.00  0.00    +0.000 A 
ENDBRANCH   4   7
ENDBRANCH   1   3
BRANCH   1  13
ATOM     13  C   UNL     1       6.476   5.619  18.806  0.00  0.00    +0.000 C 
ATOM     14  O   UNL     1       6.954   5.390  19.906  0.00  0.00    +0.000 OA
ATOM     15  N   UNL     1       5.214   5.198  18.466  0.00  0.00    +0.000 N 
ATOM     16  H   UNL     1       4.911   5.365  17.493  0.00  0.00    +0.000 HD
BRANCH  15  17
ATOM     17  C   UNL     1       4.285   4.512  19.317  0.00  0.00    +0.000 A 
ATOM     18  C   UNL     1       4.346   3.128  19.588  0.00  0.00    +0.000 A 
ATOM     19  C   UNL     1       3.399   2.517  20.414  0.00  0.00    +0.000 A 
ATOM     20  C   UNL     1       2.372   3.267  20.985  0.00  0.00    +0.000 A 
ATOM     21 CL   UNL     1       1.173   2.483  21.998  0.00  0.00    +0.000 Cl
ATOM     22  C   UNL     1       2.305   4.642  20.749  0.00  0.00    +0.000 A 
ATOM     23  C   UNL     1       3.255   5.262  19.931  0.00  0.00    +0.000 A 
ENDBRANCH  15  17
ENDBRANCH   1  13
TORSDOF 4
ENDMDL
MODEL 4
REMARK VINA RESULT:      -8.0      0.135      1.534
REMARK  Name = 
REMARK  4 active torsions:
REMARK  status: ('A' for Active; 'I' for Inactive)
REMARK    1  A    between atoms: C_2  and  C_3
REMARK    2  A    between atoms: C_3  and  C_4
REMARK    3  A    between atoms: N_6  and  C_7
REMARK    4  A    between atoms: N_14  and  C_15
REMARK                            x       y       z     vdW  Elec       q    Type
REMARK                         _______ _______ _______ _____ _____    ______ ____
ROOT
ATOM      1  C   UNL     1       7.326   6.331  17.792  0.00  0.00    +0.000 C 
ENDROOT
BRANCH   1   3
ATOM      2  N   UNL     1       5.814   6.731  15.930  0.00  0.00    +0.000 NA
ATOM      3  C   UNL     1       6.885   6.149  16.350  0.00  0.00    +0.000 C 
ATOM      4  N   UNL     1       7.659   5.350  15.452  0.00  0.00    +0.000 N 
ATOM      5  H   UNL     1       5.236   7.329  16.539  0.00  0.00    +0.000 HD
ATOM      6  H   UNL     1       8.655   5.206  15.679  0.00  0.00    +0.000 HD
BRANCH   4   7
ATOM      7  C   UNL     1       7.159   4.771  14.242  0.00  0.00    +0.000 A 
ATOM      8  C   UNL     1       6.025   3.944  14.292  0.00  0.00    +0.000 A 
ATOM      9  C   UNL     1       5.496   3.387  13.121  0.00  0.00    +0.000 A 
ATOM     10  C   UNL     1       6.075   3.675  11.884  0.00  0.00    +0.000 A 
ATOM     11  C   UNL     1       7.193   4.508  11.815  0.00  0.00    +0.000 A 
ATOM     12  C   UNL     1       7.741   5.046  12.986  0.00  0.00    +0.000 A 
ENDBRANCH   4   7
ENDBRANCH   1   3
BRANCH   1  13
ATOM     13  C   UNL     1       6.448   5.619  18.786  0.00  0.00    +0.000 C 
ATOM     14  O   UNL     1       6.918   5.341  19.879  0.00  0.00    +0.000 OA
ATOM     15  N   UNL     1       5.160   5.285  18.450  0.00  0.00    +0.000 N 
ATOM     16  H   UNL     1       4.861   5.488  17.482  0.00  0.00    +0.000 HD
BRANCH  15  17
ATOM     17  C   UNL     1       4.195   4.644  19.295  0.00  0.00    +0.000 A 
ATOM     18  C   UNL     1       3.164   5.334  19.969  0.00  0.00    +0.000 A 
ATOM     19  C   UNL     1       2.264   4.651  20.793  0.00  0.00    +0.000 A 
ATOM     20  C   UNL     1       2.371   3.272  20.963  0.00  0.00    +0.000 A 
ATOM     21 CL   UNL     1       1.253   2.430  22.020  0.00  0.00    +0.000 Cl
ATOM     22  C   UNL     1       3.369   2.566  20.289  0.00  0.00    +0.000 A 
ATOM     23  C   UNL     1       4.268   3.241  19.455  0.00  0.00    +0.000 A 
ENDBRANCH  15  17
ENDBRANCH   1  13
TORSDOF 4
ENDMDL
MODEL 5
REMARK VINA RESULT:      -7.1      5.002      7.472
REMARK  Name = 
REMARK  4 active torsions:
REMARK  status: ('A' for Active; 'I' for Inactive)
REMARK    1  A    between atoms: C_2  and  C_3
REMARK    2  A    between atoms: C_3  and  C_4
REMARK    3  A    between atoms: N_6  and  C_7
REMARK    4  A    between atoms: N_14  and  C_15
REMARK                            x       y       z     vdW  Elec       q    Type
REMARK                         _______ _______ _______ _____ _____    ______ ____
ROOT
ATOM      1  C   UNL     1       7.960   6.424  18.154  0.00  0.00    +0.000 C 
ENDROOT
BRANCH   1   3
ATOM      2  N   UNL     1       6.423   5.264  19.639  0.00  0.00    +0.000 NA
ATOM      3  C   UNL     1       6.586   5.895  18.528  0.00  0.00    +0.000 C 
ATOM      4  N   UNL     1       5.469   6.110  17.661  0.00  0.00    +0.000 N 
ATOM      5  H   UNL     1       7.197   5.101  20.300  0.00  0.00    +0.000 HD
ATOM      6  H   UNL     1       5.525   6.896  16.996  0.00  0.00    +0.000 HD
BRANCH   4   7
ATOM      7  C   UNL     1       4.265   5.335  17.680  0.00  0.00    +0.000 A 
ATOM      8  C   UNL     1       3.082   5.911  18.173  0.00  0.00    +0.000 A 
ATOM      9  C   UNL     1       1.885   5.186  18.177  0.00  0.00    +0.000 A 
ATOM     10  C   UNL     1       1.847   3.890  17.661  0.00  0.00    +0.000 A 
ATOM     11  C   UNL     1       3.010   3.308  17.153  0.00  0.00    +0.000 A 
ATOM     12  C   UNL     1       4.216   4.019  17.171  0.00  0.00    +0.000 A 
ENDBRANCH   4   7
ENDBRANCH   1   3
BRANCH   1  13
ATOM     13  C   UNL     1       8.036   7.926  18.107  0.00  0.00    +0.000 C 
ATOM     14  O   UNL     1       7.325   8.518  17.309  0.00  0.00    +0.000 OA
ATOM     15  N   UNL     1       8.901   8.597  18.936  0.00  0.00    +0.000 N 
ATOM     16  H   UNL     1       9.522   8.022  19.529  0.00  0.00    +0.000 HD
BRANCH  15  17
ATOM     17  C   UNL     1       9.061  10.019  19.035  0.00  0.00    +0.000 A 
ATOM     18  C   UNL     1       8.996  10.893  17.928  0.00  0.00    +0.000 A 
ATOM     19  C   UNL     1       9.176  12.269  18.090  0.00  0.00    +0.000 A 
ATOM     20  C   UNL     1       9.425  12.804  19.353  0.00  0.00    +0.000 A 
ATOM     21 CL   UNL     1       9.677  14.530  19.540  0.00  0.00    +0.000 Cl
ATOM     22  C   UNL     1       9.471  11.961  20.466  0.00  0.00    +0.000 A 
ATOM     23  C   UNL     1       9.282  10.583  20.312  0.00  0.00    +0.000 A 
ENDBRANCH  15  17
ENDBRANCH   1  13
TORSDOF 4
ENDMDL
MODEL 6
REMARK VINA RESULT:      -7.1      4.996      7.458
REMARK  Name = 
REMARK  4 active torsions:
REMARK  status: ('A' for Active; 'I' for Inactive)
REMARK    1  A    between atoms: C_2  and  C_3
REMARK    2  A    between atoms: C_3  and  C_4
REMARK    3  A    between atoms: N_6  and  C_7
REMARK    4  A    between atoms: N_14  and  C_15
REMARK                            x       y       z     vdW  Elec       q    Type
REMARK                         _______ _______ _______ _____ _____    ______ ____
ROOT
ATOM      1  C   UNL     1       8.003   6.332  18.418  0.00  0.00    +0.000 C 
ENDROOT
BRANCH   1   3
ATOM      2  N   UNL     1       6.341   5.183  19.771  0.00  0.00    +0.000 NA
ATOM      3  C   UNL     1       6.590   5.848  18.696  0.00  0.00    +0.000 C 
ATOM      4  N   UNL     1       5.532   6.144  17.781  0.00  0.00    +0.000 N 
ATOM      5  H   UNL     1       7.070   4.963  20.465  0.00  0.00    +0.000 HD
ATOM      6  H   UNL     1       5.656   6.951  17.152  0.00  0.00    +0.000 HD
BRANCH   4   7
ATOM      7  C   UNL     1       4.298   5.421  17.705  0.00  0.00    +0.000 A 
ATOM      8  C   UNL     1       4.299   4.108  17.205  0.00  0.00    +0.000 A 
ATOM      9  C   UNL     1       3.113   3.367  17.146  0.00  0.00    +0.000 A 
ATOM     10  C   UNL     1       1.918   3.917  17.614  0.00  0.00    +0.000 A 
ATOM     11  C   UNL     1       1.903   5.215  18.128  0.00  0.00    +0.000 A 
ATOM     12  C   UNL     1       3.082   5.969  18.165  0.00  0.00    +0.000 A 
ENDBRANCH   4   7
ENDBRANCH   1   3
BRANCH   1  13
ATOM     13  C   UNL     1       8.104   7.821  18.223  0.00  0.00    +0.000 C 
ATOM     14  O   UNL     1       7.512   8.324  17.281  0.00  0.00    +0.000 OA
ATOM     15  N   UNL     1       8.862   8.576  19.084  0.00  0.00    +0.000 N 
ATOM     16  H   UNL     1       9.392   8.067  19.811  0.00  0.00    +0.000 HD
BRANCH  15  17
ATOM     17  C   UNL     1       9.026  10.000  19.053  0.00  0.00    +0.000 A 
ATOM     18  C   UNL     1       8.791  10.791  17.907  0.00  0.00    +0.000 A 
ATOM     19  C   UNL     1       8.985  12.175  17.939  0.00  0.00    +0.000 A 
ATOM     20  C   UNL     1       9.416  12.799  19.108  0.00  0.00    +0.000 A 
ATOM     21 CL   UNL     1       9.683  14.533  19.127  0.00  0.00    +0.000 Cl
ATOM     22  C   UNL     1       9.634  12.041  20.260  0.00  0.00    +0.000 A 
ATOM     23  C   UNL     1       9.432  10.656  20.238  0.00  0.00    +0.000 A 
ENDBRANCH  15  17
ENDBRANCH   1  13
TORSDOF 4
ENDMDL
MODEL 7
REMARK VINA RESULT:      -7.1      3.590      5.212
REMARK  Name = 
REMARK  4 active torsions:
REMARK  status: ('A' for Active; 'I' for Inactive)
REMARK    1  A    between atoms: C_2  and  C_3
REMARK    2  A    between atoms: C_3  and  C_4
REMARK    3  A    between atoms: N_6  and  C_7
REMARK    4  A    between atoms: N_14  and  C_15
REMARK                            x       y       z     vdW  Elec       q    Type
REMARK                         _______ _______ _______ _____ _____    ______ ____
ROOT
ATOM      1  C   UNL     1       3.001   3.696  20.584  0.00  0.00    +0.000 C 
ENDROOT
BRANCH   1   3
ATOM      2  N   UNL     1       5.009   2.668  19.676  0.00  0.00    +0.000 NA
ATOM      3  C   UNL     1       4.037   3.494  19.493  0.00  0.00    +0.000 C 
ATOM      4  N   UNL     1       3.929   4.202  18.254  0.00  0.00    +0.000 N 
ATOM      5  H   UNL     1       5.115   2.125  20.546  0.00  0.00    +0.000 HD
ATOM      6  H   UNL     1       2.998   4.553  17.985  0.00  0.00    +0.000 HD
BRANCH   4   7
ATOM      7  C   UNL     1       5.015   4.422  17.348  0.00  0.00    +0.000 A 
ATOM      8  C   UNL     1       5.041   3.734  16.123  0.00  0.00    +0.000 A 
ATOM      9  C   UNL     1       6.075   3.950  15.205  0.00  0.00    +0.000 A 
ATOM     10  C   UNL     1       7.078   4.880  15.485  0.00  0.00    +0.000 A 
ATOM     11  C   UNL     1       7.059   5.584  16.690  0.00  0.00    +0.000 A 
ATOM     12  C   UNL     1       6.041   5.352  17.622  0.00  0.00    +0.000 A 
ENDBRANCH   4   7
ENDBRANCH   1   3
BRANCH   1  13
ATOM     13  C   UNL     1       2.139   4.913  20.381  0.00  0.00    +0.000 C 
ATOM     14  O   UNL     1       0.926   4.767  20.362  0.00  0.00    +0.000 OA
ATOM     15  N   UNL     1       2.719   6.144  20.206  0.00  0.00    +0.000 N 
ATOM     16  H   UNL     1       3.751   6.174  20.160  0.00  0.00    +0.000 HD
BRANCH  15  17
ATOM     17  C   UNL     1       2.036   7.395  20.039  0.00  0.00    +0.000 A 
ATOM     18  C   UNL     1       1.298   8.027  21.063  0.00  0.00    +0.000 A 
ATOM     19  C   UNL     1       0.642   9.239  20.831  0.00  0.00    +0.000 A 
ATOM     20  C   UNL     1       0.704   9.845  19.577  0.00  0.00    +0.000 A 
ATOM     21 CL   UNL     1      -0.147  11.352  19.290  0.00  0.00    +0.000 Cl
ATOM     22  C   UNL     1       1.446   9.249  18.555  0.00  0.00    +0.000 A 
ATOM     23  C   UNL     1       2.114   8.041  18.783  0.00  0.00    +0.000 A 
ENDBRANCH  15  17
ENDBRANCH   1  13
TORSDOF 4
ENDMDL
MODEL 8
REMARK VINA RESULT:      -7.0      3.626      5.183
REMARK  Name = 
REMARK  4 active torsions:
REMARK  status: ('A' for Active; 'I' for Inactive)
REMARK    1  A    between atoms: C_2  and  C_3
REMARK    2  A    between atoms: C_3  and  C_4
REMARK    3  A    between atoms: N_6  and  C_7
REMARK    4  A    between atoms: N_14  and  C_15
REMARK                            x       y       z     vdW  Elec       q    Type
REMARK                         _______ _______ _______ _____ _____    ______ ____
ROOT
ATOM      1  C   UNL     1       3.067   3.822  20.602  0.00  0.00    +0.000 C 
ENDROOT
BRANCH   1   3
ATOM      2  N   UNL     1       4.988   2.756  19.561  0.00  0.00    +0.000 NA
ATOM      3  C   UNL     1       4.031   3.611  19.448  0.00  0.00    +0.000 C 
ATOM      4  N   UNL     1       3.872   4.344  18.230  0.00  0.00    +0.000 N 
ATOM      5  H   UNL     1       5.129   2.195  20.414  0.00  0.00    +0.000 HD
ATOM      6  H   UNL     1       2.937   4.725  18.021  0.00  0.00    +0.000 HD
BRANCH   4   7
ATOM      7  C   UNL     1       4.909   4.551  17.265  0.00  0.00    +0.000 A 
ATOM      8  C   UNL     1       5.932   5.475  17.539  0.00  0.00    +0.000 A 
ATOM      9  C   UNL     1       6.974   5.677  16.627  0.00  0.00    +0.000 A 
ATOM     10  C   UNL     1       7.025   4.936  15.445  0.00  0.00    +0.000 A 
ATOM     11  C   UNL     1       6.025   4.002  15.164  0.00  0.00    +0.000 A 
ATOM     12  C   UNL     1       4.967   3.816  16.061  0.00  0.00    +0.000 A 
ENDBRANCH   4   7
ENDBRANCH   1   3
BRANCH   1  13
ATOM     13  C   UNL     1       2.164   5.013  20.424  0.00  0.00    +0.000 C 
ATOM     14  O   UNL     1       0.957   4.828  20.414  0.00  0.00    +0.000 OA
ATOM     15  N   UNL     1       2.703   6.265  20.261  0.00  0.00    +0.000 N 
ATOM     16  H   UNL     1       3.733   6.329  20.207  0.00  0.00    +0.000 HD
BRANCH  15  17
ATOM     17  C   UNL     1       1.978   7.495  20.119  0.00  0.00    +0.000 A 
ATOM     18  C   UNL     1       1.258   8.106  21.169  0.00  0.00    +0.000 A 
ATOM     19  C   UNL     1       0.559   9.298  20.961  0.00  0.00    +0.000 A 
ATOM     20  C   UNL     1       0.561   9.906  19.706  0.00  0.00    +0.000 A 
ATOM     21 CL   UNL     1      -0.343  11.387  19.449  0.00  0.00    +0.000 Cl
ATOM     22  C   UNL     1       1.284   9.332  18.659  0.00  0.00    +0.000 A 
ATOM     23  C   UNL     1       1.994   8.143  18.863  0.00  0.00    +0.000 A 
ENDBRANCH  15  17
ENDBRANCH   1  13
TORSDOF 4
ENDMDL
MODEL 9
REMARK VINA RESULT:      -7.0      3.572      5.138
REMARK  Name = 
REMARK  4 active torsions:
REMARK  status: ('A' for Active; 'I' for Inactive)
REMARK    1  A    between atoms: C_2  and  C_3
REMARK    2  A    between atoms: C_3  and  C_4
REMARK    3  A    between atoms: N_6  and  C_7
REMARK    4  A    between atoms: N_14  and  C_15
REMARK                            x       y       z     vdW  Elec       q    Type
REMARK                         _______ _______ _______ _____ _____    ______ ____
ROOT
ATOM      1  C   UNL     1       2.967   3.630  20.455  0.00  0.00    +0.000 C 
ENDROOT
BRANCH   1   3
ATOM      2  N   UNL     1       5.072   2.716  19.654  0.00  0.00    +0.000 NA
ATOM      3  C   UNL     1       4.047   3.454  19.402  0.00  0.00    +0.000 C 
ATOM      4  N   UNL     1       3.922   4.089  18.126  0.00  0.00    +0.000 N 
ATOM      5  H   UNL     1       5.193   2.227  20.553  0.00  0.00    +0.000 HD
ATOM      6  H   UNL     1       2.976   4.353  17.815  0.00  0.00    +0.000 HD
BRANCH   4   7
ATOM      7  C   UNL     1       5.015   4.347  17.238  0.00  0.00    +0.000 A 
ATOM      8  C   UNL     1       5.080   3.666  16.011  0.00  0.00    +0.000 A 
ATOM      9  C   UNL     1       6.121   3.919  15.109  0.00  0.00    +0.000 A 
ATOM     10  C   UNL     1       7.091   4.877  15.409  0.00  0.00    +0.000 A 
ATOM     11  C   UNL     1       7.032   5.574  16.617  0.00  0.00    +0.000 A 
ATOM     12  C   UNL     1       6.008   5.305  17.533  0.00  0.00    +0.000 A 
ENDBRANCH   4   7
ENDBRANCH   1   3
BRANCH   1  13
ATOM     13  C   UNL     1       2.116   4.855  20.249  0.00  0.00    +0.000 C 
ATOM     14  O   UNL     1       0.909   4.710  20.135  0.00  0.00    +0.000 OA
ATOM     15  N   UNL     1       2.703   6.094  20.177  0.00  0.00    +0.000 N 
ATOM     16  H   UNL     1       3.736   6.126  20.207  0.00  0.00    +0.000 HD
BRANCH  15  17
ATOM     17  C   UNL     1       2.029   7.350  20.022  0.00  0.00    +0.000 A 
ATOM     18  C   UNL     1       2.030   8.098  18.824  0.00  0.00    +0.000 A 
ATOM     19  C   UNL     1       1.366   9.325  18.744  0.00  0.00    +0.000 A 
ATOM     20  C   UNL     1       0.689   9.834  19.851  0.00  0.00    +0.000 A 
ATOM     21 CL   UNL     1      -0.117  11.388  19.746  0.00  0.00    +0.000 Cl
ATOM     22  C   UNL     1       0.656   9.102  21.040  0.00  0.00    +0.000 A 
ATOM     23  C   UNL     1       1.310   7.868  21.124  0.00  0.00    +0.000 A 
ENDBRANCH  15  17
ENDBRANCH   1  13
TORSDOF 4
ENDMDL
