MODEL 1
REMARK VINA RESULT:      -8.0      0.000      0.000
REMARK  Name = 
REMARK  7 active torsions:
REMARK  status: ('A' for Active; 'I' for Inactive)
REMARK    1  A    between atoms: C_1  and  C_2
REMARK    2  A    between atoms: C_5  and  C_6
REMARK    3  A    between atoms: C_6  and  N_7
REMARK    4  A    between atoms: C_9  and  C_10
REMARK    5  A    between atoms: C_10  and  S_11
REMARK    6  A    between atoms: S_11  and  C_12
REMARK    7  A    between atoms: C_12  and  N_14
REMARK                            x       y       z     vdW  Elec       q    Type
REMARK                         _______ _______ _______ _____ _____    ______ ____
ROOT
ATOM      1  C   UNL     1       2.791   6.449  19.490  0.00  0.00    +0.000 C 
ENDROOT
BRANCH   1   4
ATOM      2  N   UNL     1       1.185   9.712  19.254  0.00  0.00    +0.000 N 
ATOM      3  C   UNL     1       2.052   8.823  18.694  0.00  0.00    +0.000 A 
ATOM      4  C   UNL     1       2.088   7.759  19.575  0.00  0.00    +0.000 A 
ATOM      5  N   UNL     1       1.260   8.053  20.636  0.00  0.00    +0.000 NA
ATOM      6  N   UNL     1       0.706   9.242  20.422  0.00  0.00    +0.000 NA
BRANCH   2   7
ATOM      7  C   UNL     1       0.627  10.905  18.638  0.00  0.00    +0.000 C 
BRANCH   7  12
ATOM      8  C   UNL     1      -5.128  10.845  17.697  0.00  0.00    +0.000 C 
ATOM      9  C   UNL     1      -3.655  10.838  17.984  0.00  0.00    +0.000 A 
ATOM     10  C   UNL     1      -3.092  11.733  18.898  0.00  0.00    +0.000 A 
ATOM     11  C   UNL     1      -1.712  11.734  19.129  0.00  0.00    +0.000 A 
ATOM     12  C   UNL     1      -0.870  10.838  18.453  0.00  0.00    +0.000 A 
ATOM     13  C   UNL     1      -1.441   9.936  17.546  0.00  0.00    +0.000 A 
ATOM     14  C   UNL     1      -2.819   9.936  17.314  0.00  0.00    +0.000 A 
ENDBRANCH   7  12
ENDBRANCH   2   7
ENDBRANCH   1   4
BRANCH   1  15
ATOM     15  S   UNL     1       1.743   5.112  20.134  0.00  0.00    +0.000 S 
BRANCH  15  16
ATOM     16  C   UNL     1       2.124   3.704  19.146  0.00  0.00    +0.000 C 
ATOM     17  S   UNL     1       1.021   2.480  18.824  0.00  0.00    +0.000 S 
BRANCH  16  18
ATOM     18  N   UNL     1       3.397   3.767  18.570  0.00  0.00    +0.000 N 
ATOM     19  C   UNL     1       3.627   3.904  17.119  0.00  0.00    +0.000 C 
ATOM     20  C   UNL     1       4.721   4.942  16.838  0.00  0.00    +0.000 C 
ATOM     21  N   UNL     1       5.947   4.637  17.577  0.00  0.00    +0.000 N 
ATOM     22  C   UNL     1       7.196   4.480  17.043  0.00  0.00    +0.000 C 
ATOM     23  N   UNL     1       7.309   4.608  15.701  0.00  0.00    +0.000 N 
ATOM     24  O   UNL     1       8.200   4.203  17.697  0.00  0.00    +0.000 OA
ATOM     25  C   UNL     1       5.755   4.469  19.023  0.00  0.00    +0.000 C 
ATOM     26  C   UNL     1       4.632   3.467  19.327  0.00  0.00    +0.000 C 
ATOM     27  H   UNL     1       6.755   5.306  15.232  0.00  0.00    +0.000 HD
ATOM     28  H   UNL     1       8.272   4.573  15.389  0.00  0.00    +0.000 HD
ENDBRANCH  16  18
ENDBRANCH  15  16
ENDBRANCH   1  15
TORSDOF 6
ENDMDL
MODEL 2
REMARK VINA RESULT:      -7.8      0.652      1.289
REMARK  Name = 
REMARK  7 active torsions:
REMARK  status: ('A' for Active; 'I' for Inactive)
REMARK    1  A    between atoms: C_1  and  C_2
REMARK    2  A    between atoms: C_5  and  C_6
REMARK    3  A    between atoms: C_6  and  N_7
REMARK    4  A    between atoms: C_9  and  C_10
REMARK    5  A    between atoms: C_10  and  S_11
REMARK    6  A    between atoms: S_11  and  C_12
REMARK    7  A    between atoms: C_12  and  N_14
REMARK                            x       y       z     vdW  Elec       q    Type
REMARK                         _______ _______ _______ _____ _____    ______ ____
ROOT
ATOM      1  C   UNL     1       3.013   6.435  19.585  0.00  0.00    +0.000 C 
ENDROOT
BRANCH   1   4
ATOM      2  N   UNL     1       1.068   9.502  19.281  0.00  0.00    +0.000 N 
ATOM      3  C   UNL     1       1.380   8.419  20.047  0.00  0.00    +0.000 A 
ATOM      4  C   UNL     1       2.261   7.683  19.277  0.00  0.00    +0.000 A 
ATOM      5  N   UNL     1       2.431   8.337  18.077  0.00  0.00    +0.000 NA
ATOM      6  N   UNL     1       1.707   9.451  18.096  0.00  0.00    +0.000 NA
BRANCH   2   7
ATOM      7  C   UNL     1       0.347  10.694  19.696  0.00  0.00    +0.000 C 
BRANCH   7  12
ATOM      8  C   UNL     1      -4.829  11.222  17.062  0.00  0.00    +0.000 C 
ATOM      9  C   UNL     1      -3.476  11.112  17.702  0.00  0.00    +0.000 A 
ATOM     10  C   UNL     1      -2.515  10.223  17.212  0.00  0.00    +0.000 A 
ATOM     11  C   UNL     1      -1.269  10.110  17.840  0.00  0.00    +0.000 A 
ATOM     12  C   UNL     1      -0.961  10.885  18.968  0.00  0.00    +0.000 A 
ATOM     13  C   UNL     1      -1.926  11.782  19.449  0.00  0.00    +0.000 A 
ATOM     14  C   UNL     1      -3.169  11.893  18.822  0.00  0.00    +0.000 A 
ENDBRANCH   7  12
ENDBRANCH   2   7
ENDBRANCH   1   4
BRANCH   1  15
ATOM     15  S   UNL     1       1.890   5.133  20.171  0.00  0.00    +0.000 S 
BRANCH  15  16
ATOM     16  C   UNL     1       2.208   3.743  19.138  0.00  0.00    +0.000 C 
ATOM     17  S   UNL     1       1.074   2.542  18.834  0.00  0.00    +0.000 S 
BRANCH  16  18
ATOM     18  N   UNL     1       3.457   3.799  18.512  0.00  0.00    +0.000 N 
ATOM     19  C   UNL     1       3.631   3.931  17.052  0.00  0.00    +0.000 C 
ATOM     20  C   UNL     1       4.716   4.965  16.725  0.00  0.00    +0.000 C 
ATOM     21  N   UNL     1       5.969   4.658  17.417  0.00  0.00    +0.000 N 
ATOM     22  C   UNL     1       7.196   4.495  16.834  0.00  0.00    +0.000 C 
ATOM     23  N   UNL     1       7.256   4.619  15.488  0.00  0.00    +0.000 N 
ATOM     24  O   UNL     1       8.223   4.216  17.448  0.00  0.00    +0.000 OA
ATOM     25  C   UNL     1       5.834   4.495  18.870  0.00  0.00    +0.000 C 
ATOM     26  C   UNL     1       4.720   3.497  19.221  0.00  0.00    +0.000 C 
ATOM     27  H   UNL     1       6.686   5.317  15.039  0.00  0.00    +0.000 HD
ATOM     28  H   UNL     1       8.206   4.580  15.138  0.00  0.00    +0.000 HD
ENDBRANCH  16  18
ENDBRANCH  15  16
ENDBRANCH   1  15
TORSDOF 6
ENDMDL
MODEL 3
REMARK VINA RESULT:      -7.8      0.636      1.127
REMARK  Name = 
REMARK  7 active torsions:
REMARK  status: ('A' for Active; 'I' for Inactive)
REMARK    1  A    between atoms: C_1  and  C_2
REMARK    2  A    between atoms: C_5  and  C_6
REMARK    3  A    between atoms: C_6  and  N_7
REMARK    4  A    between atoms: C_9  and  C_10
REMARK    5  A    between atoms: C_10  and  S_11
REMARK    6  A    between atoms: S_11  and  C_12
REMARK    7  A    between atoms: C_12  and  N_14
REMARK                            x       y       z     vdW  Elec       q    Type
REMARK                         _______ _______ _______ _____ _____    ______ ____
ROOT
ATOM      1  C   UNL     1       2.586   6.506  19.586  0.00  0.00    +0.000 C 
ENDROOT
BRANCH   1   4
ATOM      2  N   UNL     1       0.889   9.651  20.303  0.00  0.00    +0.000 N 
ATOM      3  C   UNL     1       1.818   9.001  19.547  0.00  0.00    +0.000 A 
ATOM      4  C   UNL     1       1.835   7.710  20.040  0.00  0.00    +0.000 A 
ATOM      5  N   UNL     1       0.935   7.635  21.080  0.00  0.00    +0.000 NA
ATOM      6  N   UNL     1       0.356   8.823  21.223  0.00  0.00    +0.000 NA
BRANCH   2   7
ATOM      7  C   UNL     1       0.329  10.971  20.067  0.00  0.00    +0.000 C 
BRANCH   7  12
ATOM      8  C   UNL     1      -4.254  10.740  16.469  0.00  0.00    +0.000 C 
ATOM      9  C   UNL     1      -3.049  10.826  17.360  0.00  0.00    +0.000 A 
ATOM     10  C   UNL     1      -1.916  10.042  17.122  0.00  0.00    +0.000 A 
ATOM     11  C   UNL     1      -0.814  10.111  17.981  0.00  0.00    +0.000 A 
ATOM     12  C   UNL     1      -0.823  10.968  19.093  0.00  0.00    +0.000 A 
ATOM     13  C   UNL     1      -1.958  11.758  19.321  0.00  0.00    +0.000 A 
ATOM     14  C   UNL     1      -3.058  11.688  18.463  0.00  0.00    +0.000 A 
ENDBRANCH   7  12
ENDBRANCH   2   7
ENDBRANCH   1   4
BRANCH   1  15
ATOM     15  S   UNL     1       1.942   5.007  20.385  0.00  0.00    +0.000 S 
BRANCH  15  16
ATOM     16  C   UNL     1       2.190   3.713  19.215  0.00  0.00    +0.000 C 
ATOM     17  S   UNL     1       1.002   2.598  18.810  0.00  0.00    +0.000 S 
BRANCH  16  18
ATOM     18  N   UNL     1       3.435   3.778  18.581  0.00  0.00    +0.000 N 
ATOM     19  C   UNL     1       3.598   3.886  17.119  0.00  0.00    +0.000 C 
ATOM     20  C   UNL     1       4.665   4.930  16.766  0.00  0.00    +0.000 C 
ATOM     21  N   UNL     1       5.927   4.656  17.456  0.00  0.00    +0.000 N 
ATOM     22  C   UNL     1       7.152   4.502  16.869  0.00  0.00    +0.000 C 
ATOM     23  N   UNL     1       7.204   4.602  15.521  0.00  0.00    +0.000 N 
ATOM     24  O   UNL     1       8.188   4.251  17.482  0.00  0.00    +0.000 OA
ATOM     25  C   UNL     1       5.802   4.517  18.913  0.00  0.00    +0.000 C 
ATOM     26  C   UNL     1       4.707   3.508  19.288  0.00  0.00    +0.000 C 
ATOM     27  H   UNL     1       6.620   5.283  15.063  0.00  0.00    +0.000 HD
ATOM     28  H   UNL     1       8.152   4.571  15.167  0.00  0.00    +0.000 HD
ENDBRANCH  16  18
ENDBRANCH  15  16
ENDBRANCH   1  15
TORSDOF 6
ENDMDL
MODEL 4
REMARK VINA RESULT:      -7.2      0.998      1.204
REMARK  Name = 
REMARK  7 active torsions:
REMARK  status: ('A' for Active; 'I' for Inactive)
REMARK    1  A    between atoms: C_1  and  C_2
REMARK    2  A    between atoms: C_5  and  C_6
REMARK    3  A    between atoms: C_6  and  N_7
REMARK    4  A    between atoms: C_9  and  C_10
REMARK    5  A    between atoms: C_10  and  S_11
REMARK    6  A    between atoms: S_11  and  C_12
REMARK    7  A    between atoms: C_12  and  N_14
REMARK                            x       y       z     vdW  Elec       q    Type
REMARK                         _______ _______ _______ _____ _____    ______ ____
ROOT
ATOM      1  C   UNL     1       2.180   7.752  18.776  0.00  0.00    +0.000 C 
ENDROOT
BRANCH   1   4
ATOM      2  N   UNL     1       0.314  10.844  19.267  0.00  0.00    +0.000 N 
ATOM      3  C   UNL     1       1.111  10.110  18.440  0.00  0.00    +0.000 A 
ATOM      4  C   UNL     1       1.411   8.969  19.160  0.00  0.00    +0.000 A 
ATOM      5  N   UNL     1       0.803   9.066  20.392  0.00  0.00    +0.000 NA
ATOM      6  N   UNL     1       0.127  10.209  20.440  0.00  0.00    +0.000 NA
BRANCH   2   7
ATOM      7  C   UNL     1      -0.450  12.032  18.925  0.00  0.00    +0.000 C 
BRANCH   7  12
ATOM      8  C   UNL     1      -6.153  11.232  18.005  0.00  0.00    +0.000 C 
ATOM      9  C   UNL     1      -4.687  11.405  18.280  0.00  0.00    +0.000 A 
ATOM     10  C   UNL     1      -4.240  12.154  19.373  0.00  0.00    +0.000 A 
ATOM     11  C   UNL     1      -2.871  12.331  19.597  0.00  0.00    +0.000 A 
ATOM     12  C   UNL     1      -1.922  11.762  18.733  0.00  0.00    +0.000 A 
ATOM     13  C   UNL     1      -2.376  11.005  17.644  0.00  0.00    +0.000 A 
ATOM     14  C   UNL     1      -3.744  10.829  17.421  0.00  0.00    +0.000 A 
ENDBRANCH   7  12
ENDBRANCH   2   7
ENDBRANCH   1   4
BRANCH   1  15
ATOM     15  S   UNL     1       2.335   6.617  20.186  0.00  0.00    +0.000 S 
BRANCH  15  16
ATOM     16  C   UNL     1       2.429   5.006  19.480  0.00  0.00    +0.000 C 
ATOM     17  S   UNL     1       1.167   3.900  19.541  0.00  0.00    +0.000 S 
BRANCH  16  18
ATOM     18  N   UNL     1       3.614   4.786  18.772  0.00  0.00    +0.000 N 
ATOM     19  C   UNL     1       3.702   4.830  17.299  0.00  0.00    +0.000 C 
ATOM     20  C   UNL     1       4.945   5.609  16.852  0.00  0.00    +0.000 C 
ATOM     21  N   UNL     1       6.159   5.077  17.474  0.00  0.00    +0.000 N 
ATOM     22  C   UNL     1       7.281   4.649  16.821  0.00  0.00    +0.000 C 
ATOM     23  N   UNL     1       7.266   4.711  15.470  0.00  0.00    +0.000 N 
ATOM     24  O   UNL     1       8.275   4.188  17.379  0.00  0.00    +0.000 OA
ATOM     25  C   UNL     1       6.102   4.995  18.939  0.00  0.00    +0.000 C 
ATOM     26  C   UNL     1       4.840   4.257  19.410  0.00  0.00    +0.000 C 
ATOM     27  H   UNL     1       6.816   5.495  15.026  0.00  0.00    +0.000 HD
ATOM     28  H   UNL     1       8.160   4.468  15.061  0.00  0.00    +0.000 HD
ENDBRANCH  16  18
ENDBRANCH  15  16
ENDBRANCH   1  15
TORSDOF 6
ENDMDL
MODEL 5
REMARK VINA RESULT:      -7.2      1.000      1.440
REMARK  Name = 
REMARK  7 active torsions:
REMARK  status: ('A' for Active; 'I' for Inactive)
REMARK    1  A    between atoms: C_1  and  C_2
REMARK    2  A    between atoms: C_5  and  C_6
REMARK    3  A    between atoms: C_6  and  N_7
REMARK    4  A    between atoms: C_9  and  C_10
REMARK    5  A    between atoms: C_10  and  S_11
REMARK    6  A    between atoms: S_11  and  C_12
REMARK    7  A    between atoms: C_12  and  N_14
REMARK                            x       y       z     vdW  Elec       q    Type
REMARK                         _______ _______ _______ _____ _____    ______ ____
ROOT
ATOM      1  C   UNL     1       2.264   7.469  18.627  0.00  0.00    +0.000 C 
ENDROOT
BRANCH   1   4
ATOM      2  N   UNL     1       0.896  10.814  19.103  0.00  0.00    +0.000 N 
ATOM      3  C   UNL     1       1.555   9.957  18.273  0.00  0.00    +0.000 A 
ATOM      4  C   UNL     1       1.696   8.793  19.006  0.00  0.00    +0.000 A 
ATOM      5  N   UNL     1       1.136   8.997  20.248  0.00  0.00    +0.000 NA
ATOM      6  N   UNL     1       0.642  10.230  20.290  0.00  0.00    +0.000 NA
BRANCH   2   7
ATOM      7  C   UNL     1       0.313  12.099  18.757  0.00  0.00    +0.000 C 
BRANCH   7  12
ATOM      8  C   UNL     1      -5.509  11.820  18.966  0.00  0.00    +0.000 C 
ATOM      9  C   UNL     1      -4.014  11.928  18.876  0.00  0.00    +0.000 A 
ATOM     10  C   UNL     1      -3.313  11.380  17.798  0.00  0.00    +0.000 A 
ATOM     11  C   UNL     1      -1.917  11.462  17.747  0.00  0.00    +0.000 A 
ATOM     12  C   UNL     1      -1.196  12.094  18.771  0.00  0.00    +0.000 A 
ATOM     13  C   UNL     1      -1.906  12.650  19.845  0.00  0.00    +0.000 A 
ATOM     14  C   UNL     1      -3.299  12.567  19.896  0.00  0.00    +0.000 A 
ENDBRANCH   7  12
ENDBRANCH   2   7
ENDBRANCH   1   4
BRANCH   1  15
ATOM     15  S   UNL     1       2.218   6.323  20.036  0.00  0.00    +0.000 S 
BRANCH  15  16
ATOM     16  C   UNL     1       2.391   4.716  19.334  0.00  0.00    +0.000 C 
ATOM     17  S   UNL     1       1.178   3.556  19.379  0.00  0.00    +0.000 S 
BRANCH  16  18
ATOM     18  N   UNL     1       3.595   4.546  18.644  0.00  0.00    +0.000 N 
ATOM     19  C   UNL     1       3.695   4.546  17.172  0.00  0.00    +0.000 C 
ATOM     20  C   UNL     1       4.892   5.385  16.708  0.00  0.00    +0.000 C 
ATOM     21  N   UNL     1       6.131   4.952  17.358  0.00  0.00    +0.000 N 
ATOM     22  C   UNL     1       7.284   4.572  16.729  0.00  0.00    +0.000 C 
ATOM     23  N   UNL     1       7.279   4.588  15.376  0.00  0.00    +0.000 N 
ATOM     24  O   UNL     1       8.298   4.193  17.311  0.00  0.00    +0.000 OA
ATOM     25  C   UNL     1       6.063   4.915  18.824  0.00  0.00    +0.000 C 
ATOM     26  C   UNL     1       4.845   4.117  19.310  0.00  0.00    +0.000 C 
ATOM     27  H   UNL     1       6.786   5.326  14.902  0.00  0.00    +0.000 HD
ATOM     28  H   UNL     1       8.190   4.387  14.983  0.00  0.00    +0.000 HD
ENDBRANCH  16  18
ENDBRANCH  15  16
ENDBRANCH   1  15
TORSDOF 6
ENDMDL
MODEL 6
REMARK VINA RESULT:      -7.1      1.198      1.302
REMARK  Name = 
REMARK  7 active torsions:
REMARK  status: ('A' for Active; 'I' for Inactive)
REMARK    1  A    between atoms: C_1  and  C_2
REMARK    2  A    between atoms: C_5  and  C_6
REMARK    3  A    between atoms: C_6  and  N_7
REMARK    4  A    between atoms: C_9  and  C_10
REMARK    5  A    between atoms: C_10  and  S_11
REMARK    6  A    between atoms: S_11  and  C_12
REMARK    7  A    between atoms: C_12  and  N_14
REMARK                            x       y       z     vdW  Elec       q    Type
REMARK                         _______ _______ _______ _____ _____    ______ ____
ROOT
ATOM      1  C   UNL     1       2.132   6.341  20.696  0.00  0.00    +0.000 C 
ENDROOT
BRANCH   1   4
ATOM      2  N   UNL     1       1.278   9.458  19.011  0.00  0.00    +0.000 N 
ATOM      3  C   UNL     1       1.094   8.662  20.101  0.00  0.00    +0.000 A 
ATOM      4  C   UNL     1       1.859   7.538  19.852  0.00  0.00    +0.000 A 
ATOM      5  N   UNL     1       2.457   7.690  18.621  0.00  0.00    +0.000 NA
ATOM      6  N   UNL     1       2.103   8.871  18.123  0.00  0.00    +0.000 NA
BRANCH   2   7
ATOM      7  C   UNL     1       0.869  10.844  18.854  0.00  0.00    +0.000 C 
BRANCH   7  12
ATOM      8  C   UNL     1      -4.843  11.717  18.064  0.00  0.00    +0.000 C 
ATOM      9  C   UNL     1      -3.384  11.466  18.309  0.00  0.00    +0.000 A 
ATOM     10  C   UNL     1      -2.687  12.162  19.302  0.00  0.00    +0.000 A 
ATOM     11  C   UNL     1      -1.319  11.940  19.495  0.00  0.00    +0.000 A 
ATOM     12  C   UNL     1      -0.623  11.014  18.703  0.00  0.00    +0.000 A 
ATOM     13  C   UNL     1      -1.329  10.312  17.716  0.00  0.00    +0.000 A 
ATOM     14  C   UNL     1      -2.694  10.536  17.522  0.00  0.00    +0.000 A 
ENDBRANCH   7  12
ENDBRANCH   2   7
ENDBRANCH   1   4
BRANCH   1  15
ATOM     15  S   UNL     1       1.555   4.828  19.873  0.00  0.00    +0.000 S 
BRANCH  15  16
ATOM     16  C   UNL     1       2.826   3.638  20.142  0.00  0.00    +0.000 C 
ATOM     17  S   UNL     1       2.787   2.515  21.389  0.00  0.00    +0.000 S 
BRANCH  16  18
ATOM     18  N   UNL     1       3.810   3.653  19.148  0.00  0.00    +0.000 N 
ATOM     19  C   UNL     1       3.641   3.019  17.826  0.00  0.00    +0.000 C 
ATOM     20  C   UNL     1       4.147   3.944  16.712  0.00  0.00    +0.000 C 
ATOM     21  N   UNL     1       5.524   4.372  16.960  0.00  0.00    +0.000 N 
ATOM     22  C   UNL     1       6.583   4.227  16.106  0.00  0.00    +0.000 C 
ATOM     23  N   UNL     1       6.337   3.621  14.922  0.00  0.00    +0.000 N 
ATOM     24  O   UNL     1       7.732   4.582  16.360  0.00  0.00    +0.000 OA
ATOM     25  C   UNL     1       5.739   4.986  18.276  0.00  0.00    +0.000 C 
ATOM     26  C   UNL     1       5.198   4.096  19.405  0.00  0.00    +0.000 C 
ATOM     27  H   UNL     1       5.464   3.805  14.454  0.00  0.00    +0.000 HD
ATOM     28  H   UNL     1       7.140   3.633  14.306  0.00  0.00    +0.000 HD
ENDBRANCH  16  18
ENDBRANCH  15  16
ENDBRANCH   1  15
TORSDOF 6
ENDMDL
MODEL 7
REMARK VINA RESULT:      -7.1      1.929      3.115
REMARK  Name = 
REMARK  7 active torsions:
REMARK  status: ('A' for Active; 'I' for Inactive)
REMARK    1  A    between atoms: C_1  and  C_2
REMARK    2  A    between atoms: C_5  and  C_6
REMARK    3  A    between atoms: C_6  and  N_7
REMARK    4  A    between atoms: C_9  and  C_10
REMARK    5  A    between atoms: C_10  and  S_11
REMARK    6  A    between atoms: S_11  and  C_12
REMARK    7  A    between atoms: C_12  and  N_14
REMARK                            x       y       z     vdW  Elec       q    Type
REMARK                         _______ _______ _______ _____ _____    ______ ____
ROOT
ATOM      1  C   UNL     1       2.934   6.697  19.461  0.00  0.00    +0.000 C 
ENDROOT
BRANCH   1   4
ATOM      2  N   UNL     1       0.771   9.616  19.169  0.00  0.00    +0.000 N 
ATOM      3  C   UNL     1       1.344   8.698  19.996  0.00  0.00    +0.000 A 
ATOM      4  C   UNL     1       2.044   7.852  19.156  0.00  0.00    +0.000 A 
ATOM      5  N   UNL     1       1.853   8.280  17.861  0.00  0.00    +0.000 NA
ATOM      6  N   UNL     1       1.084   9.363  17.883  0.00  0.00    +0.000 NA
BRANCH   2   7
ATOM      7  C   UNL     1       0.102  10.849  19.551  0.00  0.00    +0.000 C 
BRANCH   7  12
ATOM      8  C   UNL     1       2.984  15.677  18.004  0.00  0.00    +0.000 C 
ATOM      9  C   UNL     1       2.215  14.438  18.360  0.00  0.00    +0.000 A 
ATOM     10  C   UNL     1       0.898  14.511  18.823  0.00  0.00    +0.000 A 
ATOM     11  C   UNL     1       0.207  13.349  19.180  0.00  0.00    +0.000 A 
ATOM     12  C   UNL     1       0.819  12.090  19.079  0.00  0.00    +0.000 A 
ATOM     13  C   UNL     1       2.136  12.021  18.604  0.00  0.00    +0.000 A 
ATOM     14  C   UNL     1       2.826  13.183  18.249  0.00  0.00    +0.000 A 
ENDBRANCH   7  12
ENDBRANCH   2   7
ENDBRANCH   1   4
BRANCH   1  15
ATOM     15  S   UNL     1       1.996   5.348  20.236  0.00  0.00    +0.000 S 
BRANCH  15  16
ATOM     16  C   UNL     1       2.253   3.946  19.201  0.00  0.00    +0.000 C 
ATOM     17  S   UNL     1       1.073   2.788  18.911  0.00  0.00    +0.000 S 
BRANCH  16  18
ATOM     18  N   UNL     1       3.497   3.957  18.562  0.00  0.00    +0.000 N 
ATOM     19  C   UNL     1       3.658   4.050  17.099  0.00  0.00    +0.000 C 
ATOM     20  C   UNL     1       4.765   5.048  16.736  0.00  0.00    +0.000 C 
ATOM     21  N   UNL     1       6.018   4.726  17.423  0.00  0.00    +0.000 N 
ATOM     22  C   UNL     1       7.234   4.520  16.832  0.00  0.00    +0.000 C 
ATOM     23  N   UNL     1       7.284   4.609  15.483  0.00  0.00    +0.000 N 
ATOM     24  O   UNL     1       8.260   4.230  17.443  0.00  0.00    +0.000 OA
ATOM     25  C   UNL     1       5.893   4.602  18.880  0.00  0.00    +0.000 C 
ATOM     26  C   UNL     1       4.759   3.640  19.266  0.00  0.00    +0.000 C 
ATOM     27  H   UNL     1       6.726   5.310  15.023  0.00  0.00    +0.000 HD
ATOM     28  H   UNL     1       8.228   4.538  15.126  0.00  0.00    +0.000 HD
ENDBRANCH  16  18
ENDBRANCH  15  16
ENDBRANCH   1  15
TORSDOF 6
ENDMDL
MODEL 8
REMARK VINA RESULT:      -7.1      1.237      1.322
REMARK  Name = 
REMARK  7 active torsions:
REMARK  status: ('A' for Active; 'I' for Inactive)
REMARK    1  A    between atoms: C_1  and  C_2
REMARK    2  A    between atoms: C_5  and  C_6
REMARK    3  A    between atoms: C_6  and  N_7
REMARK    4  A    between atoms: C_9  and  C_10
REMARK    5  A    between atoms: C_10  and  S_11
REMARK    6  A    between atoms: S_11  and  C_12
REMARK    7  A    between atoms: C_12  and  N_14
REMARK                            x       y       z     vdW  Elec       q    Type
REMARK                         _______ _______ _______ _____ _____    ______ ____
ROOT
ATOM      1  C   UNL     1       2.693   6.183  18.499  0.00  0.00    +0.000 C 
ENDROOT
BRANCH   1   4
ATOM      2  N   UNL     1       1.485   9.591  18.959  0.00  0.00    +0.000 N 
ATOM      3  C   UNL     1       2.048   8.684  18.113  0.00  0.00    +0.000 A 
ATOM      4  C   UNL     1       2.202   7.539  18.872  0.00  0.00    +0.000 A 
ATOM      5  N   UNL     1       1.746   7.804  20.145  0.00  0.00    +0.000 NA
ATOM      6  N   UNL     1       1.300   9.055  20.181  0.00  0.00    +0.000 NA
BRANCH   2   7
ATOM      7  C   UNL     1       0.922  10.886  18.613  0.00  0.00    +0.000 C 
BRANCH   7  12
ATOM      8  C   UNL     1      -4.848  10.987  17.776  0.00  0.00    +0.000 C 
ATOM      9  C   UNL     1      -3.371  10.941  18.037  0.00  0.00    +0.000 A 
ATOM     10  C   UNL     1      -2.759  11.856  18.899  0.00  0.00    +0.000 A 
ATOM     11  C   UNL     1      -1.376  11.819  19.106  0.00  0.00    +0.000 A 
ATOM     12  C   UNL     1      -0.579  10.864  18.457  0.00  0.00    +0.000 A 
ATOM     13  C   UNL     1      -1.198   9.943  17.602  0.00  0.00    +0.000 A 
ATOM     14  C   UNL     1      -2.579   9.981  17.394  0.00  0.00    +0.000 A 
ENDBRANCH   7  12
ENDBRANCH   2   7
ENDBRANCH   1   4
BRANCH   1  15
ATOM     15  S   UNL     1       2.344   4.986  19.820  0.00  0.00    +0.000 S 
BRANCH  15  16
ATOM     16  C   UNL     1       3.614   3.771  19.696  0.00  0.00    +0.000 C 
ATOM     17  S   UNL     1       3.737   2.459  20.736  0.00  0.00    +0.000 S 
BRANCH  16  18
ATOM     18  N   UNL     1       4.437   3.952  18.581  0.00  0.00    +0.000 N 
ATOM     19  C   UNL     1       4.222   3.267  17.291  0.00  0.00    +0.000 C 
ATOM     20  C   UNL     1       4.389   4.246  16.122  0.00  0.00    +0.000 C 
ATOM     21  N   UNL     1       5.679   4.935  16.186  0.00  0.00    +0.000 N 
ATOM     22  C   UNL     1       6.624   4.976  15.198  0.00  0.00    +0.000 C 
ATOM     23  N   UNL     1       6.347   4.307  14.056  0.00  0.00    +0.000 N 
ATOM     24  O   UNL     1       7.707   5.550  15.298  0.00  0.00    +0.000 OA
ATOM     25  C   UNL     1       5.942   5.609  17.463  0.00  0.00    +0.000 C 
ATOM     26  C   UNL     1       5.735   4.658  18.652  0.00  0.00    +0.000 C 
ATOM     27  H   UNL     1       5.402   4.310  13.709  0.00  0.00    +0.000 HD
ATOM     28  H   UNL     1       7.046   4.459  13.339  0.00  0.00    +0.000 HD
ENDBRANCH  16  18
ENDBRANCH  15  16
ENDBRANCH   1  15
TORSDOF 6
ENDMDL
MODEL 9
REMARK VINA RESULT:      -7.1      2.598      3.700
REMARK  Name = 
REMARK  7 active torsions:
REMARK  status: ('A' for Active; 'I' for Inactive)
REMARK    1  A    between atoms: C_1  and  C_2
REMARK    2  A    between atoms: C_5  and  C_6
REMARK    3  A    between atoms: C_6  and  N_7
REMARK    4  A    between atoms: C_9  and  C_10
REMARK    5  A    between atoms: C_10  and  S_11
REMARK    6  A    between atoms: S_11  and  C_12
REMARK    7  A    between atoms: C_12  and  N_14
REMARK                            x       y       z     vdW  Elec       q    Type
REMARK                         _______ _______ _______ _____ _____    ______ ____
ROOT
ATOM      1  C   UNL     1       3.359   7.358  16.993  0.00  0.00    +0.000 C 
ENDROOT
BRANCH   1   4
ATOM      2  N   UNL     1       1.529   9.725  19.074  0.00  0.00    +0.000 N 
ATOM      3  C   UNL     1       2.220   9.518  17.919  0.00  0.00    +0.000 A 
ATOM      4  C   UNL     1       2.630   8.199  17.983  0.00  0.00    +0.000 A 
ATOM      5  N   UNL     1       2.189   7.670  19.176  0.00  0.00    +0.000 NA
ATOM      6  N   UNL     1       1.509   8.608  19.827  0.00  0.00    +0.000 NA
BRANCH   2   7
ATOM      7  C   UNL     1       0.709  10.876  19.415  0.00  0.00    +0.000 C 
BRANCH   7  12
ATOM      8  C   UNL     1      -4.509  10.934  16.812  0.00  0.00    +0.000 C 
ATOM      9  C   UNL     1      -3.186  10.894  17.521  0.00  0.00    +0.000 A 
ATOM     10  C   UNL     1      -2.925  11.727  18.613  0.00  0.00    +0.000 A 
ATOM     11  C   UNL     1      -1.676  11.699  19.242  0.00  0.00    +0.000 A 
ATOM     12  C   UNL     1      -0.665  10.837  18.792  0.00  0.00    +0.000 A 
ATOM     13  C   UNL     1      -0.935   9.997  17.703  0.00  0.00    +0.000 A 
ATOM     14  C   UNL     1      -2.183  10.026  17.075  0.00  0.00    +0.000 A 
ENDBRANCH   7  12
ENDBRANCH   2   7
ENDBRANCH   1   4
BRANCH   1  15
ATOM     15  S   UNL     1       5.084   7.109  17.505  0.00  0.00    +0.000 S 
BRANCH  15  16
ATOM     16  C   UNL     1       5.345   5.368  17.432  0.00  0.00    +0.000 C 
ATOM     17  S   UNL     1       6.753   4.673  16.837  0.00  0.00    +0.000 S 
BRANCH  16  18
ATOM     18  N   UNL     1       4.310   4.634  18.018  0.00  0.00    +0.000 N 
ATOM     19  C   UNL     1       4.187   4.422  19.473  0.00  0.00    +0.000 C 
ATOM     20  C   UNL     1       2.737   4.626  19.931  0.00  0.00    +0.000 C 
ATOM     21  N   UNL     1       1.813   3.793  19.160  0.00  0.00    +0.000 N 
ATOM     22  C   UNL     1       0.914   2.897  19.669  0.00  0.00    +0.000 C 
ATOM     23  N   UNL     1       0.882   2.758  21.014  0.00  0.00    +0.000 N 
ATOM     24  O   UNL     1       0.167   2.199  18.985  0.00  0.00    +0.000 OA
ATOM     25  C   UNL     1       1.921   3.958  17.705  0.00  0.00    +0.000 C 
ATOM     26  C   UNL     1       3.374   3.802  17.230  0.00  0.00    +0.000 C 
ATOM     27  H   UNL     1       1.006   3.575  21.589  0.00  0.00    +0.000 HD
ATOM     28  H   UNL     1       0.132   2.151  21.323  0.00  0.00    +0.000 HD
ENDBRANCH  16  18
ENDBRANCH  15  16
ENDBRANCH   1  15
TORSDOF 6
ENDMDL
