MODEL 1
REMARK VINA RESULT:      -6.9      0.000      0.000
REMARK  Name = 
REMARK  4 active torsions:
REMARK  status: ('A' for Active; 'I' for Inactive)
REMARK    1  A    between atoms: C_1  and  C_2
REMARK    2  A    between atoms: C_2  and  N_3
REMARK    3  A    between atoms: N_3  and  C_4
REMARK    4  A    between atoms: N_3  and  C_5
REMARK                            x       y       z     vdW  Elec       q    Type
REMARK                         _______ _______ _______ _____ _____    ______ ____
ROOT
ATOM      1  C   UNL     1       6.212   4.057  12.898  0.00  0.00    +0.000 A 
ATOM      2  N   UNL     1       7.231   4.417  12.101  0.00  0.00    +0.000 NA
ATOM      3  C   UNL     1       8.187   5.190  12.643  0.00  0.00    +0.000 A 
ATOM      4  N   UNL     1       8.231   5.653  13.900  0.00  0.00    +0.000 NA
ATOM      5  C   UNL     1       7.202   5.305  14.692  0.00  0.00    +0.000 A 
ATOM      6  C   UNL     1       6.157   4.505  14.219  0.00  0.00    +0.000 A 
ATOM      7  C   UNL     1       5.075   4.073  15.152  0.00  0.00    +0.000 C 
ATOM      8  C   UNL     1       5.708   3.136  16.192  0.00  0.00    +0.000 C 
ATOM      9  N   UNL     1       6.082   3.921  17.352  0.00  0.00    +0.000 N 
ATOM     10  C   UNL     1       5.297   4.201  18.460  0.00  0.00    +0.000 C 
ATOM     11  O   UNL     1       5.796   4.841  19.396  0.00  0.00    +0.000 OA
ATOM     12  N   UNL     1       3.975   3.786  18.539  0.00  0.00    +0.000 N 
ATOM     13  C   UNL     1       3.073   3.193  17.548  0.00  0.00    +0.000 C 
ATOM     14  C   UNL     1       1.714   3.891  17.510  0.00  0.00    +0.000 C 
ATOM     15  O   UNL     1       1.095   3.870  18.796  0.00  0.00    +0.000 OA
ATOM     16  C   UNL     1       1.937   4.548  19.744  0.00  0.00    +0.000 C 
ATOM     17  C   UNL     1       3.316   3.883  19.856  0.00  0.00    +0.000 C 
ATOM     18  C   UNL     1       7.356   4.653  17.173  0.00  0.00    +0.000 C 
ATOM     19  C   UNL     1       7.252   5.788  16.132  0.00  0.00    +0.000 C 
ENDROOT
BRANCH   1  20
ATOM     20  N   UNL     1       5.192   3.201  12.390  0.00  0.00    +0.000 N 
ATOM     21  C   UNL     1       5.769   2.019  11.736  0.00  0.00    +0.000 C 
BRANCH  20  23
ATOM     22  C   UNL     1       3.409   3.017  10.672  0.00  0.00    +0.000 C 
ATOM     23  C   UNL     1       4.223   3.948  11.567  0.00  0.00    +0.000 C 
ENDBRANCH  20  23
ENDBRANCH   1  20
TORSDOF 2
ENDMDL
MODEL 2
REMARK VINA RESULT:      -5.6     11.379     14.968
REMARK  Name = 
REMARK  4 active torsions:
REMARK  status: ('A' for Active; 'I' for Inactive)
REMARK    1  A    between atoms: C_1  and  C_2
REMARK    2  A    between atoms: C_2  and  N_3
REMARK    3  A    between atoms: N_3  and  C_4
REMARK    4  A    between atoms: N_3  and  C_5
REMARK                            x       y       z     vdW  Elec       q    Type
REMARK                         _______ _______ _______ _____ _____    ______ ____
ROOT
ATOM      1  C   UNL     1      -6.764  12.826  21.591  0.00  0.00    +0.000 A 
ATOM      2  N   UNL     1      -7.839  12.906  22.392  0.00  0.00    +0.000 NA
ATOM      3  C   UNL     1      -7.615  12.913  23.716  0.00  0.00    +0.000 A 
ATOM      4  N   UNL     1      -6.428  12.840  24.332  0.00  0.00    +0.000 NA
ATOM      5  C   UNL     1      -5.353  12.745  23.530  0.00  0.00    +0.000 A 
ATOM      6  C   UNL     1      -5.483  12.726  22.138  0.00  0.00    +0.000 A 
ATOM      7  C   UNL     1      -4.261  12.702  21.281  0.00  0.00    +0.000 C 
ATOM      8  C   UNL     1      -3.527  14.036  21.484  0.00  0.00    +0.000 C 
ATOM      9  N   UNL     1      -2.527  13.858  22.519  0.00  0.00    +0.000 N 
ATOM     10  C   UNL     1      -1.212  13.454  22.349  0.00  0.00    +0.000 C 
ATOM     11  O   UNL     1      -0.471  13.412  23.341  0.00  0.00    +0.000 OA
ATOM     12  N   UNL     1      -0.715  13.096  21.104  0.00  0.00    +0.000 N 
ATOM     13  C   UNL     1      -1.373  12.872  19.814  0.00  0.00    +0.000 C 
ATOM     14  C   UNL     1      -0.932  11.564  19.158  0.00  0.00    +0.000 C 
ATOM     15  O   UNL     1       0.485  11.534  18.987  0.00  0.00    +0.000 OA
ATOM     16  C   UNL     1       1.126  11.648  20.269  0.00  0.00    +0.000 C 
ATOM     17  C   UNL     1       0.748  12.955  20.977  0.00  0.00    +0.000 C 
ATOM     18  C   UNL     1      -3.091  13.910  23.886  0.00  0.00    +0.000 C 
ATOM     19  C   UNL     1      -3.993  12.699  24.208  0.00  0.00    +0.000 C 
ENDROOT
BRANCH   1  20
ATOM     20  N   UNL     1      -6.938  12.859  20.177  0.00  0.00    +0.000 N 
ATOM     21  C   UNL     1      -7.703  14.043  19.764  0.00  0.00    +0.000 C 
BRANCH  20  23
ATOM     22  C   UNL     1      -6.589  11.014  18.553  0.00  0.00    +0.000 C 
ATOM     23  C   UNL     1      -7.464  11.578  19.670  0.00  0.00    +0.000 C 
ENDBRANCH  20  23
ENDBRANCH   1  20
TORSDOF 2
ENDMDL
MODEL 3
REMARK VINA RESULT:      -5.5     11.083     14.565
REMARK  Name = 
REMARK  4 active torsions:
REMARK  status: ('A' for Active; 'I' for Inactive)
REMARK    1  A    between atoms: C_1  and  C_2
REMARK    2  A    between atoms: C_2  and  N_3
REMARK    3  A    between atoms: N_3  and  C_4
REMARK    4  A    between atoms: N_3  and  C_5
REMARK                            x       y       z     vdW  Elec       q    Type
REMARK                         _______ _______ _______ _____ _____    ______ ____
ROOT
ATOM      1  C   UNL     1      -6.509  13.535  21.058  0.00  0.00    +0.000 A 
ATOM      2  N   UNL     1      -7.523  13.960  21.828  0.00  0.00    +0.000 NA
ATOM      3  C   UNL     1      -7.344  13.910  23.158  0.00  0.00    +0.000 A 
ATOM      4  N   UNL     1      -6.257  13.470  23.807  0.00  0.00    +0.000 NA
ATOM      5  C   UNL     1      -5.248  13.030  23.036  0.00  0.00    +0.000 A 
ATOM      6  C   UNL     1      -5.341  13.039  21.641  0.00  0.00    +0.000 A 
ATOM      7  C   UNL     1      -4.168  12.619  20.818  0.00  0.00    +0.000 C 
ATOM      8  C   UNL     1      -3.054  13.652  21.039  0.00  0.00    +0.000 C 
ATOM      9  N   UNL     1      -2.190  13.176  22.103  0.00  0.00    +0.000 N 
ATOM     10  C   UNL     1      -1.067  12.374  21.970  0.00  0.00    +0.000 C 
ATOM     11  O   UNL     1      -0.404  12.108  22.983  0.00  0.00    +0.000 OA
ATOM     12  N   UNL     1      -0.677  11.863  20.740  0.00  0.00    +0.000 N 
ATOM     13  C   UNL     1      -1.338  11.847  19.433  0.00  0.00    +0.000 C 
ATOM     14  C   UNL     1      -1.319  10.459  18.791  0.00  0.00    +0.000 C 
ATOM     15  O   UNL     1       0.018   9.978  18.660  0.00  0.00    +0.000 OA
ATOM     16  C   UNL     1       0.629   9.897  19.959  0.00  0.00    +0.000 C 
ATOM     17  C   UNL     1       0.668  11.264  20.655  0.00  0.00    +0.000 C 
ATOM     18  C   UNL     1      -2.743  13.419  23.453  0.00  0.00    +0.000 C 
ATOM     19  C   UNL     1      -3.991  12.562  23.752  0.00  0.00    +0.000 C 
ENDROOT
BRANCH   1  20
ATOM     20  N   UNL     1      -6.626  13.607  19.639  0.00  0.00    +0.000 N 
ATOM     21  C   UNL     1      -6.973  14.965  19.204  0.00  0.00    +0.000 C 
BRANCH  20  23
ATOM     22  C   UNL     1      -6.898  11.846  17.911  0.00  0.00    +0.000 C 
ATOM     23  C   UNL     1      -7.512  12.548  19.119  0.00  0.00    +0.000 C 
ENDBRANCH  20  23
ENDBRANCH   1  20
TORSDOF 2
ENDMDL
MODEL 4
REMARK VINA RESULT:      -5.5     10.463     12.532
REMARK  Name = 
REMARK  4 active torsions:
REMARK  status: ('A' for Active; 'I' for Inactive)
REMARK    1  A    between atoms: C_1  and  C_2
REMARK    2  A    between atoms: C_2  and  N_3
REMARK    3  A    between atoms: N_3  and  C_4
REMARK    4  A    between atoms: N_3  and  C_5
REMARK                            x       y       z     vdW  Elec       q    Type
REMARK                         _______ _______ _______ _____ _____    ______ ____
ROOT
ATOM      1  C   UNL     1      10.726  14.761  18.435  0.00  0.00    +0.000 A 
ATOM      2  N   UNL     1      11.234  14.320  17.273  0.00  0.00    +0.000 NA
ATOM      3  C   UNL     1      11.493  13.005  17.180  0.00  0.00    +0.000 A 
ATOM      4  N   UNL     1      11.307  12.079  18.130  0.00  0.00    +0.000 NA
ATOM      5  C   UNL     1      10.813  12.524  19.298  0.00  0.00    +0.000 A 
ATOM      6  C   UNL     1      10.514  13.876  19.493  0.00  0.00    +0.000 A 
ATOM      7  C   UNL     1       9.891  14.318  20.776  0.00  0.00    +0.000 C 
ATOM      8  C   UNL     1       8.486  13.700  20.845  0.00  0.00    +0.000 C 
ATOM      9  N   UNL     1       8.569  12.452  21.579  0.00  0.00    +0.000 N 
ATOM     10  C   UNL     1       8.434  12.278  22.948  0.00  0.00    +0.000 C 
ATOM     11  O   UNL     1       8.472  11.127  23.407  0.00  0.00    +0.000 OA
ATOM     12  N   UNL     1       8.261  13.355  23.806  0.00  0.00    +0.000 N 
ATOM     13  C   UNL     1       8.357  14.801  23.593  0.00  0.00    +0.000 C 
ATOM     14  C   UNL     1       9.214  15.488  24.657  0.00  0.00    +0.000 C 
ATOM     15  O   UNL     1       8.706  15.226  25.965  0.00  0.00    +0.000 OA
ATOM     16  C   UNL     1       8.713  13.810  26.208  0.00  0.00    +0.000 C 
ATOM     17  C   UNL     1       7.849  13.055  25.190  0.00  0.00    +0.000 C 
ATOM     18  C   UNL     1       9.071  11.327  20.759  0.00  0.00    +0.000 C 
ATOM     19  C   UNL     1      10.559  11.484  20.376  0.00  0.00    +0.000 C 
ENDROOT
BRANCH   1  20
ATOM     20  N   UNL     1      10.390  16.140  18.576  0.00  0.00    +0.000 N 
ATOM     21  C   UNL     1       9.143  16.456  17.868  0.00  0.00    +0.000 C 
BRANCH  20  23
ATOM     22  C   UNL     1      12.322  17.414  19.474  0.00  0.00    +0.000 C 
ATOM     23  C   UNL     1      11.531  17.009  18.233  0.00  0.00    +0.000 C 
ENDBRANCH  20  23
ENDBRANCH   1  20
TORSDOF 2
ENDMDL
MODEL 5
REMARK VINA RESULT:      -5.5      2.636      6.341
REMARK  Name = 
REMARK  4 active torsions:
REMARK  status: ('A' for Active; 'I' for Inactive)
REMARK    1  A    between atoms: C_1  and  C_2
REMARK    2  A    between atoms: C_2  and  N_3
REMARK    3  A    between atoms: N_3  and  C_4
REMARK    4  A    between atoms: N_3  and  C_5
REMARK                            x       y       z     vdW  Elec       q    Type
REMARK                         _______ _______ _______ _____ _____    ______ ____
ROOT
ATOM      1  C   UNL     1       3.673   3.851  18.272  0.00  0.00    +0.000 A 
ATOM      2  N   UNL     1       3.655   4.138  19.583  0.00  0.00    +0.000 NA
ATOM      3  C   UNL     1       4.791   4.615  20.119  0.00  0.00    +0.000 A 
ATOM      4  N   UNL     1       5.951   4.831  19.485  0.00  0.00    +0.000 NA
ATOM      5  C   UNL     1       5.972   4.529  18.175  0.00  0.00    +0.000 A 
ATOM      6  C   UNL     1       4.841   4.023  17.527  0.00  0.00    +0.000 A 
ATOM      7  C   UNL     1       4.880   3.777  16.056  0.00  0.00    +0.000 C 
ATOM      8  C   UNL     1       5.023   5.140  15.362  0.00  0.00    +0.000 C 
ATOM      9  N   UNL     1       6.433   5.390  15.127  0.00  0.00    +0.000 N 
ATOM     10  C   UNL     1       7.169   5.032  14.009  0.00  0.00    +0.000 C 
ATOM     11  O   UNL     1       8.357   5.379  13.944  0.00  0.00    +0.000 OA
ATOM     12  N   UNL     1       6.610   4.296  12.973  0.00  0.00    +0.000 N 
ATOM     13  C   UNL     1       5.327   3.602  12.847  0.00  0.00    +0.000 C 
ATOM     14  C   UNL     1       5.488   2.176  12.319  0.00  0.00    +0.000 C 
ATOM     15  O   UNL     1       6.163   2.173  11.061  0.00  0.00    +0.000 OA
ATOM     16  C   UNL     1       7.465   2.761  11.214  0.00  0.00    +0.000 C 
ATOM     17  C   UNL     1       7.380   4.208  11.718  0.00  0.00    +0.000 C 
ATOM     18  C   UNL     1       7.144   5.877  16.329  0.00  0.00    +0.000 C 
ATOM     19  C   UNL     1       7.268   4.801  17.429  0.00  0.00    +0.000 C 
ENDROOT
BRANCH   1  20
ATOM     20  N   UNL     1       2.483   3.383  17.640  0.00  0.00    +0.000 N 
ATOM     21  C   UNL     1       1.449   4.425  17.619  0.00  0.00    +0.000 C 
BRANCH  20  23
ATOM     22  C   UNL     1       0.711   2.221  18.932  0.00  0.00    +0.000 C 
ATOM     23  C   UNL     1       2.047   2.092  18.205  0.00  0.00    +0.000 C 
ENDBRANCH  20  23
ENDBRANCH   1  20
TORSDOF 2
ENDMDL
MODEL 6
REMARK VINA RESULT:      -5.5     10.487     13.995
REMARK  Name = 
REMARK  4 active torsions:
REMARK  status: ('A' for Active; 'I' for Inactive)
REMARK    1  A    between atoms: C_1  and  C_2
REMARK    2  A    between atoms: C_2  and  N_3
REMARK    3  A    between atoms: N_3  and  C_4
REMARK    4  A    between atoms: N_3  and  C_5
REMARK                            x       y       z     vdW  Elec       q    Type
REMARK                         _______ _______ _______ _____ _____    ______ ____
ROOT
ATOM      1  C   UNL     1      -5.891  12.980  21.422  0.00  0.00    +0.000 A 
ATOM      2  N   UNL     1      -6.717  13.399  22.394  0.00  0.00    +0.000 NA
ATOM      3  C   UNL     1      -6.197  13.528  23.625  0.00  0.00    +0.000 A 
ATOM      4  N   UNL     1      -4.934  13.275  23.996  0.00  0.00    +0.000 NA
ATOM      5  C   UNL     1      -4.111  12.841  23.026  0.00  0.00    +0.000 A 
ATOM      6  C   UNL     1      -4.560  12.671  21.712  0.00  0.00    +0.000 A 
ATOM      7  C   UNL     1      -3.596  12.266  20.648  0.00  0.00    +0.000 C 
ATOM      8  C   UNL     1      -2.598  13.420  20.464  0.00  0.00    +0.000 C 
ATOM      9  N   UNL     1      -1.438  13.160  21.295  0.00  0.00    +0.000 N 
ATOM     10  C   UNL     1      -0.297  12.457  20.940  0.00  0.00    +0.000 C 
ATOM     11  O   UNL     1       0.632  12.381  21.757  0.00  0.00    +0.000 OA
ATOM     12  N   UNL     1      -0.177  11.840  19.703  0.00  0.00    +0.000 N 
ATOM     13  C   UNL     1      -1.145  11.601  18.629  0.00  0.00    +0.000 C 
ATOM     14  C   UNL     1      -1.121  10.154  18.137  0.00  0.00    +0.000 C 
ATOM     15  O   UNL     1       0.187   9.789  17.696  0.00  0.00    +0.000 OA
ATOM     16  C   UNL     1       1.116   9.924  18.785  0.00  0.00    +0.000 C 
ATOM     17  C   UNL     1       1.164  11.363  19.315  0.00  0.00    +0.000 C 
ATOM     18  C   UNL     1      -1.651  13.513  22.716  0.00  0.00    +0.000 C 
ATOM     19  C   UNL     1      -2.665  12.584  23.417  0.00  0.00    +0.000 C 
ENDROOT
BRANCH   1  20
ATOM     20  N   UNL     1      -6.377  12.867  20.087  0.00  0.00    +0.000 N 
ATOM     21  C   UNL     1      -7.002  14.119  19.642  0.00  0.00    +0.000 C 
BRANCH  20  23
ATOM     22  C   UNL     1      -6.761  10.823  18.732  0.00  0.00    +0.000 C 
ATOM     23  C   UNL     1      -7.216  11.666  19.920  0.00  0.00    +0.000 C 
ENDBRANCH  20  23
ENDBRANCH   1  20
TORSDOF 2
ENDMDL
MODEL 7
REMARK VINA RESULT:      -5.5     10.490     12.125
REMARK  Name = 
REMARK  4 active torsions:
REMARK  status: ('A' for Active; 'I' for Inactive)
REMARK    1  A    between atoms: C_1  and  C_2
REMARK    2  A    between atoms: C_2  and  N_3
REMARK    3  A    between atoms: N_3  and  C_4
REMARK    4  A    between atoms: N_3  and  C_5
REMARK                            x       y       z     vdW  Elec       q    Type
REMARK                         _______ _______ _______ _____ _____    ______ ____
ROOT
ATOM      1  C   UNL     1       9.973  13.290  18.849  0.00  0.00    +0.000 A 
ATOM      2  N   UNL     1      11.289  13.329  18.589  0.00  0.00    +0.000 NA
ATOM      3  C   UNL     1      11.820  14.528  18.299  0.00  0.00    +0.000 A 
ATOM      4  N   UNL     1      11.172  15.699  18.231  0.00  0.00    +0.000 NA
ATOM      5  C   UNL     1       9.851  15.658  18.476  0.00  0.00    +0.000 A 
ATOM      6  C   UNL     1       9.206  14.455  18.784  0.00  0.00    +0.000 A 
ATOM      7  C   UNL     1       7.754  14.463  19.130  0.00  0.00    +0.000 C 
ATOM      8  C   UNL     1       7.598  15.222  20.456  0.00  0.00    +0.000 C 
ATOM      9  N   UNL     1       7.301  16.610  20.159  0.00  0.00    +0.000 N 
ATOM     10  C   UNL     1       6.049  17.177  19.983  0.00  0.00    +0.000 C 
ATOM     11  O   UNL     1       5.970  18.399  19.794  0.00  0.00    +0.000 OA
ATOM     12  N   UNL     1       4.891  16.411  20.011  0.00  0.00    +0.000 N 
ATOM     13  C   UNL     1       4.677  14.962  20.028  0.00  0.00    +0.000 C 
ATOM     14  C   UNL     1       3.647  14.515  18.990  0.00  0.00    +0.000 C 
ATOM     15  O   UNL     1       2.403  15.188  19.186  0.00  0.00    +0.000 OA
ATOM     16  C   UNL     1       2.601  16.607  19.063  0.00  0.00    +0.000 C 
ATOM     17  C   UNL     1       3.607  17.132  20.096  0.00  0.00    +0.000 C 
ATOM     18  C   UNL     1       8.501  17.397  19.800  0.00  0.00    +0.000 C 
ATOM     19  C   UNL     1       9.105  16.981  18.441  0.00  0.00    +0.000 C 
ENDROOT
BRANCH   1  20
ATOM     20  N   UNL     1       9.363  12.052  19.207  0.00  0.00    +0.000 N 
ATOM     21  C   UNL     1       9.938  11.517  20.447  0.00  0.00    +0.000 C 
BRANCH  20  23
ATOM     22  C   UNL     1       8.747   9.765  18.464  0.00  0.00    +0.000 C 
ATOM     23  C   UNL     1       9.358  11.108  18.074  0.00  0.00    +0.000 C 
ENDBRANCH  20  23
ENDBRANCH   1  20
TORSDOF 2
ENDMDL
MODEL 8
REMARK VINA RESULT:      -5.4     10.038     11.707
REMARK  Name = 
REMARK  4 active torsions:
REMARK  status: ('A' for Active; 'I' for Inactive)
REMARK    1  A    between atoms: C_1  and  C_2
REMARK    2  A    between atoms: C_2  and  N_3
REMARK    3  A    between atoms: N_3  and  C_4
REMARK    4  A    between atoms: N_3  and  C_5
REMARK                            x       y       z     vdW  Elec       q    Type
REMARK                         _______ _______ _______ _____ _____    ______ ____
ROOT
ATOM      1  C   UNL     1       9.792  12.334  18.233  0.00  0.00    +0.000 A 
ATOM      2  N   UNL     1      10.980  12.062  17.670  0.00  0.00    +0.000 NA
ATOM      3  C   UNL     1      11.660  13.096  17.148  0.00  0.00    +0.000 A 
ATOM      4  N   UNL     1      11.276  14.380  17.120  0.00  0.00    +0.000 NA
ATOM      5  C   UNL     1      10.080  14.649  17.670  0.00  0.00    +0.000 A 
ATOM      6  C   UNL     1       9.295  13.639  18.237  0.00  0.00    +0.000 A 
ATOM      7  C   UNL     1       8.011  13.991  18.910  0.00  0.00    +0.000 C 
ATOM      8  C   UNL     1       8.353  14.822  20.156  0.00  0.00    +0.000 C 
ATOM      9  N   UNL     1       8.289  16.227  19.803  0.00  0.00    +0.000 N 
ATOM     10  C   UNL     1       7.180  17.055  19.871  0.00  0.00    +0.000 C 
ATOM     11  O   UNL     1       7.314  18.254  19.587  0.00  0.00    +0.000 OA
ATOM     12  N   UNL     1       5.932  16.574  20.243  0.00  0.00    +0.000 N 
ATOM     13  C   UNL     1       5.430  15.213  20.451  0.00  0.00    +0.000 C 
ATOM     14  C   UNL     1       4.104  14.967  19.732  0.00  0.00    +0.000 C 
ATOM     15  O   UNL     1       3.118  15.913  20.147  0.00  0.00    +0.000 OA
ATOM     16  C   UNL     1       3.571  17.243  19.843  0.00  0.00    +0.000 C 
ATOM     17  C   UNL     1       4.890  17.570  20.555  0.00  0.00    +0.000 C 
ATOM     18  C   UNL     1       9.498  16.705  19.097  0.00  0.00    +0.000 C 
ATOM     19  C   UNL     1       9.642  16.105  17.682  0.00  0.00    +0.000 C 
ENDROOT
BRANCH   1  20
ATOM     20  N   UNL     1       9.046  11.283  18.843  0.00  0.00    +0.000 N 
ATOM     21  C   UNL     1       9.744  10.751  20.020  0.00  0.00    +0.000 C 
BRANCH  20  23
ATOM     22  C   UNL     1       8.565   8.876  18.477  0.00  0.00    +0.000 C 
ATOM     23  C   UNL     1       8.643  10.267  17.853  0.00  0.00    +0.000 C 
ENDBRANCH  20  23
ENDBRANCH   1  20
TORSDOF 2
ENDMDL
MODEL 9
REMARK VINA RESULT:      -5.3     11.997     14.662
REMARK  Name = 
REMARK  4 active torsions:
REMARK  status: ('A' for Active; 'I' for Inactive)
REMARK    1  A    between atoms: C_1  and  C_2
REMARK    2  A    between atoms: C_2  and  N_3
REMARK    3  A    between atoms: N_3  and  C_4
REMARK    4  A    between atoms: N_3  and  C_5
REMARK                            x       y       z     vdW  Elec       q    Type
REMARK                         _______ _______ _______ _____ _____    ______ ____
ROOT
ATOM      1  C   UNL     1      -5.184  11.980  19.050  0.00  0.00    +0.000 A 
ATOM      2  N   UNL     1      -4.847  11.233  17.987  0.00  0.00    +0.000 NA
ATOM      3  C   UNL     1      -3.536  11.052  17.758  0.00  0.00    +0.000 A 
ATOM      4  N   UNL     1      -2.518  11.545  18.477  0.00  0.00    +0.000 NA
ATOM      5  C   UNL     1      -2.856  12.306  19.532  0.00  0.00    +0.000 A 
ATOM      6  C   UNL     1      -4.195  12.555  19.850  0.00  0.00    +0.000 A 
ATOM      7  C   UNL     1      -4.530  13.336  21.077  0.00  0.00    +0.000 C 
ATOM      8  C   UNL     1      -4.097  12.500  22.291  0.00  0.00    +0.000 C 
ATOM      9  N   UNL     1      -2.759  12.906  22.675  0.00  0.00    +0.000 N 
ATOM     10  C   UNL     1      -2.414  13.910  23.567  0.00  0.00    +0.000 C 
ATOM     11  O   UNL     1      -1.216  14.086  23.828  0.00  0.00    +0.000 OA
ATOM     12  N   UNL     1      -3.374  14.716  24.164  0.00  0.00    +0.000 N 
ATOM     13  C   UNL     1      -4.811  14.869  23.922  0.00  0.00    +0.000 C 
ATOM     14  C   UNL     1      -5.224  16.336  23.799  0.00  0.00    +0.000 C 
ATOM     15  O   UNL     1      -4.850  17.069  24.966  0.00  0.00    +0.000 OA
ATOM     16  C   UNL     1      -3.425  17.002  25.139  0.00  0.00    +0.000 C 
ATOM     17  C   UNL     1      -2.939  15.555  25.296  0.00  0.00    +0.000 C 
ATOM     18  C   UNL     1      -1.704  12.305  21.829  0.00  0.00    +0.000 C 
ATOM     19  C   UNL     1      -1.717  12.844  20.383  0.00  0.00    +0.000 C 
ENDROOT
BRANCH   1  20
ATOM     20  N   UNL     1      -6.561  12.170  19.367  0.00  0.00    +0.000 N 
ATOM     21  C   UNL     1      -7.134  10.966  19.982  0.00  0.00    +0.000 C 
BRANCH  20  23
ATOM     22  C   UNL     1      -7.023  14.167  17.968  0.00  0.00    +0.000 C 
ATOM     23  C   UNL     1      -7.313  12.688  18.209  0.00  0.00    +0.000 C 
ENDBRANCH  20  23
ENDBRANCH   1  20
TORSDOF 2
ENDMDL
