MODEL 1
REMARK VINA RESULT:      -7.9      0.000      0.000
REMARK  Name = 
REMARK  7 active torsions:
REMARK  status: ('A' for Active; 'I' for Inactive)
REMARK    1  A    between atoms: C_1  and  N_2
REMARK    2  A    between atoms: N_2  and  C_3
REMARK    3  A    between atoms: C_4  and  C_6
REMARK    4  A    between atoms: C_6  and  C_7
REMARK    5  A    between atoms: N_9  and  C_10
REMARK    6  A    between atoms: C_14  and  C_15
REMARK    7  A    between atoms: C_21  and  C_22
REMARK                            x       y       z     vdW  Elec       q    Type
REMARK                         _______ _______ _______ _____ _____    ______ ____
ROOT
ATOM      1  C   UNL     1       0.513  11.155  19.381  0.00  0.00    +0.000 A 
ATOM      2  C   UNL     1       1.074  10.140  18.633  0.00  0.00    +0.000 A 
ATOM      3  N   UNL     1       1.452   9.149  19.506  0.00  0.00    +0.000 N 
ATOM      4  N   UNL     1       1.191   9.497  20.785  0.00  0.00    +0.000 NA
ATOM      5  C   UNL     1       0.654  10.733  20.742  0.00  0.00    +0.000 A 
ENDROOT
BRANCH   5   6
ATOM      6  C   UNL     1       0.066  11.318  21.957  0.00  0.00    +0.000 A 
ATOM      7  C   UNL     1      -0.630  10.432  22.807  0.00  0.00    +0.000 A 
ATOM      8  C   UNL     1      -1.867  10.820  23.287  0.00  0.00    +0.000 A 
ATOM      9  C   UNL     1      -2.193  12.152  23.080  0.00  0.00    +0.000 A 
ATOM     10  C   UNL     1      -1.134  13.051  23.063  0.00  0.00    +0.000 A 
ATOM     11  C   UNL     1      -0.115  12.692  22.175  0.00  0.00    +0.000 A 
ATOM     12  C   UNL     1      -1.771  14.363  23.230  0.00  0.00    +0.000 C 
ATOM     13  O   UNL     1      -1.343  15.325  23.838  0.00  0.00    +0.000 OA
ATOM     14  C   UNL     1      -3.103  14.239  22.622  0.00  0.00    +0.000 A 
ATOM     15  C   UNL     1      -3.701  15.270  21.915  0.00  0.00    +0.000 A 
ATOM     16  C   UNL     1      -4.432  14.911  20.791  0.00  0.00    +0.000 A 
ATOM     17  C   UNL     1      -4.509  13.558  20.412  0.00  0.00    +0.000 A 
ATOM     18  C   UNL     1      -3.939  12.526  21.202  0.00  0.00    +0.000 A 
ATOM     19  C   UNL     1      -3.271  12.857  22.383  0.00  0.00    +0.000 A 
ENDBRANCH   5   6
BRANCH   3  20
ATOM     20  C   UNL     1       2.015   7.880  19.184  0.00  0.00    +0.000 A 
ATOM     21  C   UNL     1       2.835   7.718  18.059  0.00  0.00    +0.000 A 
ATOM     22  C   UNL     1       3.435   6.483  17.799  0.00  0.00    +0.000 A 
ATOM     23  C   UNL     1       3.192   5.395  18.636  0.00  0.00    +0.000 A 
ATOM     24  C   UNL     1       2.333   5.526  19.746  0.00  0.00    +0.000 A 
ATOM     25  C   UNL     1       1.757   6.776  20.012  0.00  0.00    +0.000 A 
BRANCH  24  26
ATOM     26  C   UNL     1       2.013   4.335  20.614  0.00  0.00    +0.000 C 
ATOM     27  F   UNL     1       2.570   3.172  20.176  0.00  0.00    +0.000 F 
ATOM     28  F   UNL     1       2.451   4.499  21.907  0.00  0.00    +0.000 F 
ATOM     29  F   UNL     1       0.677   4.096  20.699  0.00  0.00    +0.000 F 
ENDBRANCH  24  26
ENDBRANCH   3  20
BRANCH   1  30
ATOM     30  C   UNL     1      -0.148  12.365  18.797  0.00  0.00    +0.000 C 
BRANCH  30  34
ATOM     31  C   UNL     1       1.403  15.841  18.885  0.00  0.00    +0.000 C 
ATOM     32  N   UNL     1       0.508  14.734  19.171  0.00  0.00    +0.000 N 
ATOM     33  C   UNL     1      -0.843  15.061  19.593  0.00  0.00    +0.000 C 
ATOM     34  C   UNL     1       0.832  13.508  18.584  0.00  0.00    +0.000 C 
ATOM     35  O   UNL     1       1.866  13.372  17.924  0.00  0.00    +0.000 OA
ENDBRANCH  30  34
ENDBRANCH   1  30
TORSDOF 5
ENDMDL
MODEL 2
REMARK VINA RESULT:      -7.9      2.047      4.446
REMARK  Name = 
REMARK  7 active torsions:
REMARK  status: ('A' for Active; 'I' for Inactive)
REMARK    1  A    between atoms: C_1  and  N_2
REMARK    2  A    between atoms: N_2  and  C_3
REMARK    3  A    between atoms: C_4  and  C_6
REMARK    4  A    between atoms: C_6  and  C_7
REMARK    5  A    between atoms: N_9  and  C_10
REMARK    6  A    between atoms: C_14  and  C_15
REMARK    7  A    between atoms: C_21  and  C_22
REMARK                            x       y       z     vdW  Elec       q    Type
REMARK                         _______ _______ _______ _____ _____    ______ ____
ROOT
ATOM      1  C   UNL     1       1.076   9.982  20.901  0.00  0.00    +0.000 A 
ATOM      2  C   UNL     1       1.344   8.636  21.050  0.00  0.00    +0.000 A 
ATOM      3  N   UNL     1       1.623   8.133  19.804  0.00  0.00    +0.000 N 
ATOM      4  N   UNL     1       1.511   9.087  18.853  0.00  0.00    +0.000 NA
ATOM      5  C   UNL     1       1.139  10.216  19.490  0.00  0.00    +0.000 A 
ENDROOT
BRANCH   5   6
ATOM      6  C   UNL     1       1.132  11.496  18.764  0.00  0.00    +0.000 A 
ATOM      7  C   UNL     1       2.235  11.745  17.919  0.00  0.00    +0.000 A 
ATOM      8  C   UNL     1       2.842  12.986  17.983  0.00  0.00    +0.000 A 
ATOM      9  C   UNL     1       2.148  13.950  18.698  0.00  0.00    +0.000 A 
ATOM     10  C   UNL     1       0.763  13.846  18.691  0.00  0.00    +0.000 A 
ATOM     11  C   UNL     1       0.298  12.582  19.068  0.00  0.00    +0.000 A 
ATOM     12  C   UNL     1       0.299  15.159  19.157  0.00  0.00    +0.000 C 
ATOM     13  O   UNL     1      -0.689  15.769  18.796  0.00  0.00    +0.000 OA
ATOM     14  C   UNL     1       1.348  15.654  20.059  0.00  0.00    +0.000 A 
ATOM     15  C   UNL     1       1.067  16.379  21.206  0.00  0.00    +0.000 A 
ATOM     16  C   UNL     1       1.858  16.117  22.316  0.00  0.00    +0.000 A 
ATOM     17  C   UNL     1       2.864  15.136  22.240  0.00  0.00    +0.000 A 
ATOM     18  C   UNL     1       3.165  14.466  21.026  0.00  0.00    +0.000 A 
ATOM     19  C   UNL     1       2.437  14.774  19.874  0.00  0.00    +0.000 A 
ENDBRANCH   5   6
BRANCH   3  20
ATOM     20  C   UNL     1       2.021   6.804  19.476  0.00  0.00    +0.000 A 
ATOM     21  C   UNL     1       2.599   6.509  18.234  0.00  0.00    +0.000 A 
ATOM     22  C   UNL     1       3.048   5.215  17.958  0.00  0.00    +0.000 A 
ATOM     23  C   UNL     1       2.887   4.200  18.901  0.00  0.00    +0.000 A 
ATOM     24  C   UNL     1       2.265   4.467  20.137  0.00  0.00    +0.000 A 
ATOM     25  C   UNL     1       1.842   5.775  20.414  0.00  0.00    +0.000 A 
BRANCH  24  26
ATOM     26  C   UNL     1       2.027   3.359  21.131  0.00  0.00    +0.000 C 
ATOM     27  F   UNL     1       0.731   2.946  21.193  0.00  0.00    +0.000 F 
ATOM     28  F   UNL     1       2.767   2.234  20.846  0.00  0.00    +0.000 F 
ATOM     29  F   UNL     1       2.362   3.716  22.400  0.00  0.00    +0.000 F 
ENDBRANCH  24  26
ENDBRANCH   3  20
BRANCH   1  30
ATOM     30  C   UNL     1       0.854  10.929  22.039  0.00  0.00    +0.000 C 
BRANCH  30  34
ATOM     31  C   UNL     1      -2.627  11.923  23.216  0.00  0.00    +0.000 C 
ATOM     32  N   UNL     1      -1.317  12.004  22.595  0.00  0.00    +0.000 N 
ATOM     33  C   UNL     1      -0.716  13.322  22.476  0.00  0.00    +0.000 C 
ATOM     34  C   UNL     1      -0.556  10.833  22.600  0.00  0.00    +0.000 C 
ATOM     35  O   UNL     1      -1.016   9.776  23.043  0.00  0.00    +0.000 OA
ENDBRANCH  30  34
ENDBRANCH   1  30
TORSDOF 5
ENDMDL
MODEL 3
REMARK VINA RESULT:      -7.8      1.789      2.265
REMARK  Name = 
REMARK  7 active torsions:
REMARK  status: ('A' for Active; 'I' for Inactive)
REMARK    1  A    between atoms: C_1  and  N_2
REMARK    2  A    between atoms: N_2  and  C_3
REMARK    3  A    between atoms: C_4  and  C_6
REMARK    4  A    between atoms: C_6  and  C_7
REMARK    5  A    between atoms: N_9  and  C_10
REMARK    6  A    between atoms: C_14  and  C_15
REMARK    7  A    between atoms: C_21  and  C_22
REMARK                            x       y       z     vdW  Elec       q    Type
REMARK                         _______ _______ _______ _____ _____    ______ ____
ROOT
ATOM      1  C   UNL     1      -0.657  10.762  19.344  0.00  0.00    +0.000 A 
ATOM      2  C   UNL     1      -0.029   9.807  18.571  0.00  0.00    +0.000 A 
ATOM      3  N   UNL     1       1.000   9.289  19.317  0.00  0.00    +0.000 N 
ATOM      4  N   UNL     1       1.084   9.893  20.523  0.00  0.00    +0.000 NA
ATOM      5  C   UNL     1       0.110  10.824  20.551  0.00  0.00    +0.000 A 
ENDROOT
BRANCH   5   6
ATOM      6  C   UNL     1      -0.202  11.519  21.810  0.00  0.00    +0.000 A 
ATOM      7  C   UNL     1      -0.832  10.750  22.812  0.00  0.00    +0.000 A 
ATOM      8  C   UNL     1      -1.924  11.293  23.464  0.00  0.00    +0.000 A 
ATOM      9  C   UNL     1      -2.140  12.643  23.237  0.00  0.00    +0.000 A 
ATOM     10  C   UNL     1      -1.011  13.417  22.996  0.00  0.00    +0.000 A 
ATOM     11  C   UNL     1      -0.199  12.911  21.976  0.00  0.00    +0.000 A 
ATOM     12  C   UNL     1      -1.471  14.798  23.189  0.00  0.00    +0.000 C 
ATOM     13  O   UNL     1      -0.849  15.729  23.662  0.00  0.00    +0.000 OA
ATOM     14  C   UNL     1      -2.892  14.800  22.814  0.00  0.00    +0.000 A 
ATOM     15  C   UNL     1      -3.490  15.863  22.157  0.00  0.00    +0.000 A 
ATOM     16  C   UNL     1      -4.433  15.544  21.190  0.00  0.00    +0.000 A 
ATOM     17  C   UNL     1      -4.713  14.194  20.906  0.00  0.00    +0.000 A 
ATOM     18  C   UNL     1      -4.128  13.137  21.651  0.00  0.00    +0.000 A 
ATOM     19  C   UNL     1      -3.240  13.437  22.686  0.00  0.00    +0.000 A 
ENDBRANCH   5   6
BRANCH   3  20
ATOM     20  C   UNL     1       1.883   8.230  18.956  0.00  0.00    +0.000 A 
ATOM     21  C   UNL     1       2.765   8.360  17.875  0.00  0.00    +0.000 A 
ATOM     22  C   UNL     1       3.672   7.339  17.581  0.00  0.00    +0.000 A 
ATOM     23  C   UNL     1       3.679   6.167  18.337  0.00  0.00    +0.000 A 
ATOM     24  C   UNL     1       2.767   5.997  19.398  0.00  0.00    +0.000 A 
ATOM     25  C   UNL     1       1.879   7.039  19.701  0.00  0.00    +0.000 A 
BRANCH  24  26
ATOM     26  C   UNL     1       2.725   4.705  20.173  0.00  0.00    +0.000 C 
ATOM     27  F   UNL     1       3.890   4.002  20.133  0.00  0.00    +0.000 F 
ATOM     28  F   UNL     1       2.452   4.905  21.506  0.00  0.00    +0.000 F 
ATOM     29  F   UNL     1       1.765   3.855  19.718  0.00  0.00    +0.000 F 
ENDBRANCH  24  26
ENDBRANCH   3  20
BRANCH   1  30
ATOM     30  C   UNL     1      -1.914  11.474  18.949  0.00  0.00    +0.000 C 
BRANCH  30  34
ATOM     31  C   UNL     1      -3.067  10.855  15.374  0.00  0.00    +0.000 C 
ATOM     32  N   UNL     1      -3.008  10.792  16.823  0.00  0.00    +0.000 N 
ATOM     33  C   UNL     1      -3.549   9.604  17.461  0.00  0.00    +0.000 C 
ATOM     34  C   UNL     1      -2.051  11.602  17.440  0.00  0.00    +0.000 C 
ATOM     35  O   UNL     1      -1.354  12.379  16.781  0.00  0.00    +0.000 OA
ENDBRANCH  30  34
ENDBRANCH   1  30
TORSDOF 5
ENDMDL
MODEL 4
REMARK VINA RESULT:      -7.8      4.389      7.596
REMARK  Name = 
REMARK  7 active torsions:
REMARK  status: ('A' for Active; 'I' for Inactive)
REMARK    1  A    between atoms: C_1  and  N_2
REMARK    2  A    between atoms: N_2  and  C_3
REMARK    3  A    between atoms: C_4  and  C_6
REMARK    4  A    between atoms: C_6  and  C_7
REMARK    5  A    between atoms: N_9  and  C_10
REMARK    6  A    between atoms: C_14  and  C_15
REMARK    7  A    between atoms: C_21  and  C_22
REMARK                            x       y       z     vdW  Elec       q    Type
REMARK                         _______ _______ _______ _____ _____    ______ ____
ROOT
ATOM      1  C   UNL     1       0.651  10.236  18.535  0.00  0.00    +0.000 A 
ATOM      2  C   UNL     1      -0.657   9.983  18.173  0.00  0.00    +0.000 A 
ATOM      3  N   UNL     1      -1.354  11.157  18.311  0.00  0.00    +0.000 N 
ATOM      4  N   UNL     1      -0.562  12.147  18.779  0.00  0.00    +0.000 NA
ATOM      5  C   UNL     1       0.658  11.602  18.963  0.00  0.00    +0.000 A 
ENDROOT
BRANCH   5   6
ATOM      6  C   UNL     1       1.807  12.469  19.270  0.00  0.00    +0.000 A 
ATOM      7  C   UNL     1       1.946  12.874  20.615  0.00  0.00    +0.000 A 
ATOM      8  C   UNL     1       2.210  14.207  20.874  0.00  0.00    +0.000 A 
ATOM      9  C   UNL     1       2.558  14.967  19.768  0.00  0.00    +0.000 A 
ATOM     10  C   UNL     1       3.228  14.304  18.748  0.00  0.00    +0.000 A 
ATOM     11  C   UNL     1       2.573  13.148  18.312  0.00  0.00    +0.000 A 
ATOM     12  C   UNL     1       3.805  15.382  17.934  0.00  0.00    +0.000 C 
ATOM     13  O   UNL     1       4.872  15.384  17.352  0.00  0.00    +0.000 OA
ATOM     14  C   UNL     1       2.886  16.520  18.072  0.00  0.00    +0.000 A 
ATOM     15  C   UNL     1       2.601  17.382  17.025  0.00  0.00    +0.000 A 
ATOM     16  C   UNL     1       1.291  17.830  16.928  0.00  0.00    +0.000 A 
ATOM     17  C   UNL     1       0.330  17.382  17.854  0.00  0.00    +0.000 A 
ATOM     18  C   UNL     1       0.679  16.554  18.952  0.00  0.00    +0.000 A 
ATOM     19  C   UNL     1       2.008  16.159  19.117  0.00  0.00    +0.000 A 
ENDBRANCH   5   6
BRANCH   3  20
ATOM     20  C   UNL     1      -2.723  11.394  17.989  0.00  0.00    +0.000 A 
ATOM     21  C   UNL     1      -3.215  11.152  16.700  0.00  0.00    +0.000 A 
ATOM     22  C   UNL     1      -4.574  11.323  16.423  0.00  0.00    +0.000 A 
ATOM     23  C   UNL     1      -5.442  11.773  17.417  0.00  0.00    +0.000 A 
ATOM     24  C   UNL     1      -4.957  12.067  18.707  0.00  0.00    +0.000 A 
ATOM     25  C   UNL     1      -3.596  11.867  18.981  0.00  0.00    +0.000 A 
BRANCH  24  26
ATOM     26  C   UNL     1      -5.879  12.619  19.766  0.00  0.00    +0.000 C 
ATOM     27  F   UNL     1      -5.791  13.969  19.920  0.00  0.00    +0.000 F 
ATOM     28  F   UNL     1      -7.201  12.356  19.494  0.00  0.00    +0.000 F 
ATOM     29  F   UNL     1      -5.636  12.090  20.995  0.00  0.00    +0.000 F 
ENDBRANCH  24  26
ENDBRANCH   3  20
BRANCH   1  30
ATOM     30  C   UNL     1       1.769   9.249  18.400  0.00  0.00    +0.000 C 
BRANCH  30  34
ATOM     31  C   UNL     1       2.332   6.007  20.315  0.00  0.00    +0.000 C 
ATOM     32  N   UNL     1       2.417   7.012  19.271  0.00  0.00    +0.000 N 
ATOM     33  C   UNL     1       2.704   6.551  17.924  0.00  0.00    +0.000 C 
ATOM     34  C   UNL     1       1.769   8.225  19.523  0.00  0.00    +0.000 C 
ATOM     35  O   UNL     1       1.224   8.441  20.610  0.00  0.00    +0.000 OA
ENDBRANCH  30  34
ENDBRANCH   1  30
TORSDOF 5
ENDMDL
MODEL 5
REMARK VINA RESULT:      -7.8      8.052      9.341
REMARK  Name = 
REMARK  7 active torsions:
REMARK  status: ('A' for Active; 'I' for Inactive)
REMARK    1  A    between atoms: C_1  and  N_2
REMARK    2  A    between atoms: N_2  and  C_3
REMARK    3  A    between atoms: C_4  and  C_6
REMARK    4  A    between atoms: C_6  and  C_7
REMARK    5  A    between atoms: N_9  and  C_10
REMARK    6  A    between atoms: C_14  and  C_15
REMARK    7  A    between atoms: C_21  and  C_22
REMARK                            x       y       z     vdW  Elec       q    Type
REMARK                         _______ _______ _______ _____ _____    ______ ____
ROOT
ATOM      1  C   UNL     1       8.938  11.349  18.163  0.00  0.00    +0.000 A 
ATOM      2  C   UNL     1       8.495  10.214  17.515  0.00  0.00    +0.000 A 
ATOM      3  N   UNL     1       8.460   9.201  18.441  0.00  0.00    +0.000 N 
ATOM      4  N   UNL     1       8.895   9.625  19.649  0.00  0.00    +0.000 NA
ATOM      5  C   UNL     1       9.231  10.922  19.498  0.00  0.00    +0.000 A 
ENDROOT
BRANCH   5   6
ATOM      6  C   UNL     1       9.548  11.738  20.681  0.00  0.00    +0.000 A 
ATOM      7  C   UNL     1       8.905  11.376  21.884  0.00  0.00    +0.000 A 
ATOM      8  C   UNL     1       8.332  12.376  22.648  0.00  0.00    +0.000 A 
ATOM      9  C   UNL     1       8.664  13.670  22.275  0.00  0.00    +0.000 A 
ATOM     10  C   UNL     1       9.922  13.848  21.715  0.00  0.00    +0.000 A 
ATOM     11  C   UNL     1      10.180  12.989  20.642  0.00  0.00    +0.000 A 
ATOM     12  C   UNL     1      10.151  15.297  21.793  0.00  0.00    +0.000 C 
ATOM     13  O   UNL     1      11.201  15.872  22.002  0.00  0.00    +0.000 OA
ATOM     14  C   UNL     1       8.822  15.915  21.700  0.00  0.00    +0.000 A 
ATOM     15  C   UNL     1       8.595  17.103  21.023  0.00  0.00    +0.000 A 
ATOM     16  C   UNL     1       7.409  17.195  20.309  0.00  0.00    +0.000 A 
ATOM     17  C   UNL     1       6.525  16.100  20.279  0.00  0.00    +0.000 A 
ATOM     18  C   UNL     1       6.762  14.927  21.043  0.00  0.00    +0.000 A 
ATOM     19  C   UNL     1       7.908  14.846  21.836  0.00  0.00    +0.000 A 
ENDBRANCH   5   6
BRANCH   3  20
ATOM     20  C   UNL     1       8.005   7.865  18.246  0.00  0.00    +0.000 A 
ATOM     21  C   UNL     1       8.425   6.827  19.089  0.00  0.00    +0.000 A 
ATOM     22  C   UNL     1       7.913   5.538  18.926  0.00  0.00    +0.000 A 
ATOM     23  C   UNL     1       7.011   5.266  17.898  0.00  0.00    +0.000 A 
ATOM     24  C   UNL     1       6.613   6.285  17.010  0.00  0.00    +0.000 A 
ATOM     25  C   UNL     1       7.113   7.582  17.200  0.00  0.00    +0.000 A 
BRANCH  24  26
ATOM     26  C   UNL     1       5.691   5.981  15.856  0.00  0.00    +0.000 C 
ATOM     27  F   UNL     1       4.960   7.052  15.441  0.00  0.00    +0.000 F 
ATOM     28  F   UNL     1       6.373   5.539  14.746  0.00  0.00    +0.000 F 
ATOM     29  F   UNL     1       4.787   5.009  16.153  0.00  0.00    +0.000 F 
ENDBRANCH  24  26
ENDBRANCH   3  20
BRANCH   1  30
ATOM     30  C   UNL     1       8.992  12.709  17.539  0.00  0.00    +0.000 C 
BRANCH  30  34
ATOM     31  C   UNL     1      12.021  15.011  17.393  0.00  0.00    +0.000 C 
ATOM     32  N   UNL     1      10.678  14.532  17.667  0.00  0.00    +0.000 N 
ATOM     33  C   UNL     1       9.623  15.526  17.765  0.00  0.00    +0.000 C 
ATOM     34  C   UNL     1      10.420  13.196  17.347  0.00  0.00    +0.000 C 
ATOM     35  O   UNL     1      11.315  12.457  16.927  0.00  0.00    +0.000 OA
ENDBRANCH  30  34
ENDBRANCH   1  30
TORSDOF 5
ENDMDL
MODEL 6
REMARK VINA RESULT:      -7.7      2.454      4.807
REMARK  Name = 
REMARK  7 active torsions:
REMARK  status: ('A' for Active; 'I' for Inactive)
REMARK    1  A    between atoms: C_1  and  N_2
REMARK    2  A    between atoms: N_2  and  C_3
REMARK    3  A    between atoms: C_4  and  C_6
REMARK    4  A    between atoms: C_6  and  C_7
REMARK    5  A    between atoms: N_9  and  C_10
REMARK    6  A    between atoms: C_14  and  C_15
REMARK    7  A    between atoms: C_21  and  C_22
REMARK                            x       y       z     vdW  Elec       q    Type
REMARK                         _______ _______ _______ _____ _____    ______ ____
ROOT
ATOM      1  C   UNL     1       1.040   9.844  21.095  0.00  0.00    +0.000 A 
ATOM      2  C   UNL     1       1.316   8.514  21.336  0.00  0.00    +0.000 A 
ATOM      3  N   UNL     1       1.612   7.932  20.129  0.00  0.00    +0.000 N 
ATOM      4  N   UNL     1       1.503   8.820  19.116  0.00  0.00    +0.000 NA
ATOM      5  C   UNL     1       1.116   9.985  19.672  0.00  0.00    +0.000 A 
ENDROOT
BRANCH   5   6
ATOM      6  C   UNL     1       1.108  11.215  18.864  0.00  0.00    +0.000 A 
ATOM      7  C   UNL     1       2.191  11.389  17.975  0.00  0.00    +0.000 A 
ATOM      8  C   UNL     1       2.818  12.621  17.939  0.00  0.00    +0.000 A 
ATOM      9  C   UNL     1       2.158  13.641  18.607  0.00  0.00    +0.000 A 
ATOM     10  C   UNL     1       0.772  13.560  18.644  0.00  0.00    +0.000 A 
ATOM     11  C   UNL     1       0.300  12.332  19.117  0.00  0.00    +0.000 A 
ATOM     12  C   UNL     1       0.341  14.909  19.034  0.00  0.00    +0.000 C 
ATOM     13  O   UNL     1      -0.646  15.510  18.661  0.00  0.00    +0.000 OA
ATOM     14  C   UNL     1       1.423  15.445  19.872  0.00  0.00    +0.000 A 
ATOM     15  C   UNL     1       1.185  16.249  20.976  0.00  0.00    +0.000 A 
ATOM     16  C   UNL     1       2.003  16.048  22.079  0.00  0.00    +0.000 A 
ATOM     17  C   UNL     1       2.992  15.047  22.041  0.00  0.00    +0.000 A 
ATOM     18  C   UNL     1       3.248  14.293  20.866  0.00  0.00    +0.000 A 
ATOM     19  C   UNL     1       2.493  14.537  19.717  0.00  0.00    +0.000 A 
ENDBRANCH   5   6
BRANCH   3  20
ATOM     20  C   UNL     1       2.023   6.587  19.893  0.00  0.00    +0.000 A 
ATOM     21  C   UNL     1       1.616   5.548  20.741  0.00  0.00    +0.000 A 
ATOM     22  C   UNL     1       1.970   4.227  20.453  0.00  0.00    +0.000 A 
ATOM     23  C   UNL     1       2.764   3.939  19.343  0.00  0.00    +0.000 A 
ATOM     24  C   UNL     1       3.222   4.976  18.506  0.00  0.00    +0.000 A 
ATOM     25  C   UNL     1       2.839   6.295  18.789  0.00  0.00    +0.000 A 
BRANCH  24  26
ATOM     26  C   UNL     1       4.137   4.677  17.345  0.00  0.00    +0.000 C 
ATOM     27  F   UNL     1       5.376   4.253  17.718  0.00  0.00    +0.000 F 
ATOM     28  F   UNL     1       3.635   3.693  16.525  0.00  0.00    +0.000 F 
ATOM     29  F   UNL     1       4.341   5.760  16.549  0.00  0.00    +0.000 F 
ENDBRANCH  24  26
ENDBRANCH   3  20
BRANCH   1  30
ATOM     30  C   UNL     1       0.799  10.863  22.166  0.00  0.00    +0.000 C 
BRANCH  30  34
ATOM     31  C   UNL     1      -2.687  11.980  23.212  0.00  0.00    +0.000 C 
ATOM     32  N   UNL     1      -1.359  12.009  22.626  0.00  0.00    +0.000 N 
ATOM     33  C   UNL     1      -0.721  13.306  22.483  0.00  0.00    +0.000 C 
ATOM     34  C   UNL     1      -0.628  10.820  22.690  0.00  0.00    +0.000 C 
ATOM     35  O   UNL     1      -1.126   9.790  23.153  0.00  0.00    +0.000 OA
ENDBRANCH  30  34
ENDBRANCH   1  30
TORSDOF 5
ENDMDL
MODEL 7
REMARK VINA RESULT:      -7.7      1.924      2.850
REMARK  Name = 
REMARK  7 active torsions:
REMARK  status: ('A' for Active; 'I' for Inactive)
REMARK    1  A    between atoms: C_1  and  N_2
REMARK    2  A    between atoms: N_2  and  C_3
REMARK    3  A    between atoms: C_4  and  C_6
REMARK    4  A    between atoms: C_6  and  C_7
REMARK    5  A    between atoms: N_9  and  C_10
REMARK    6  A    between atoms: C_14  and  C_15
REMARK    7  A    between atoms: C_21  and  C_22
REMARK                            x       y       z     vdW  Elec       q    Type
REMARK                         _______ _______ _______ _____ _____    ______ ____
ROOT
ATOM      1  C   UNL     1       0.641  12.339  20.692  0.00  0.00    +0.000 A 
ATOM      2  C   UNL     1       1.572  11.529  20.073  0.00  0.00    +0.000 A 
ATOM      3  N   UNL     1       1.006  10.286  19.937  0.00  0.00    +0.000 N 
ATOM      4  N   UNL     1      -0.234  10.249  20.473  0.00  0.00    +0.000 NA
ATOM      5  C   UNL     1      -0.466  11.478  20.977  0.00  0.00    +0.000 A 
ENDROOT
BRANCH   5   6
ATOM      6  C   UNL     1      -1.815  11.832  21.449  0.00  0.00    +0.000 A 
ATOM      7  C   UNL     1      -2.627  12.552  20.547  0.00  0.00    +0.000 A 
ATOM      8  C   UNL     1      -3.313  13.655  21.020  0.00  0.00    +0.000 A 
ATOM      9  C   UNL     1      -3.326  13.798  22.399  0.00  0.00    +0.000 A 
ATOM     10  C   UNL     1      -3.286  12.625  23.142  0.00  0.00    +0.000 A 
ATOM     11  C   UNL     1      -2.232  11.778  22.787  0.00  0.00    +0.000 A 
ATOM     12  C   UNL     1      -3.706  13.035  24.489  0.00  0.00    +0.000 C 
ATOM     13  O   UNL     1      -4.371  12.402  25.284  0.00  0.00    +0.000 OA
ATOM     14  C   UNL     1      -3.269  14.431  24.634  0.00  0.00    +0.000 A 
ATOM     15  C   UNL     1      -2.789  14.944  25.828  0.00  0.00    +0.000 A 
ATOM     16  C   UNL     1      -1.734  15.842  25.739  0.00  0.00    +0.000 A 
ATOM     17  C   UNL     1      -1.195  16.163  24.479  0.00  0.00    +0.000 A 
ATOM     18  C   UNL     1      -1.761  15.669  23.276  0.00  0.00    +0.000 A 
ATOM     19  C   UNL     1      -2.876  14.830  23.337  0.00  0.00    +0.000 A 
ENDBRANCH   5   6
BRANCH   3  20
ATOM     20  C   UNL     1       1.569   9.144  19.296  0.00  0.00    +0.000 A 
ATOM     21  C   UNL     1       2.055   9.217  17.984  0.00  0.00    +0.000 A 
ATOM     22  C   UNL     1       2.668   8.107  17.398  0.00  0.00    +0.000 A 
ATOM     23  C   UNL     1       2.765   6.907  18.102  0.00  0.00    +0.000 A 
ATOM     24  C   UNL     1       2.240   6.799  19.405  0.00  0.00    +0.000 A 
ATOM     25  C   UNL     1       1.650   7.928  19.992  0.00  0.00    +0.000 A 
BRANCH  24  26
ATOM     26  C   UNL     1       2.281   5.484  20.142  0.00  0.00    +0.000 C 
ATOM     27  F   UNL     1       1.474   4.528  19.605  0.00  0.00    +0.000 F 
ATOM     28  F   UNL     1       3.544   4.940  20.168  0.00  0.00    +0.000 F 
ATOM     29  F   UNL     1       1.898   5.604  21.442  0.00  0.00    +0.000 F 
ENDBRANCH  24  26
ENDBRANCH   3  20
BRANCH   1  30
ATOM     30  C   UNL     1       0.815  13.811  20.906  0.00  0.00    +0.000 C 
BRANCH  30  34
ATOM     31  C   UNL     1       4.177  15.279  19.892  0.00  0.00    +0.000 C 
ATOM     32  N   UNL     1       2.757  14.976  19.883  0.00  0.00    +0.000 N 
ATOM     33  C   UNL     1       2.072  15.035  18.603  0.00  0.00    +0.000 C 
ATOM     34  C   UNL     1       2.279  14.216  20.953  0.00  0.00    +0.000 C 
ATOM     35  O   UNL     1       3.021  13.892  21.886  0.00  0.00    +0.000 OA
ENDBRANCH  30  34
ENDBRANCH   1  30
TORSDOF 5
ENDMDL
MODEL 8
REMARK VINA RESULT:      -7.6      1.856      3.846
REMARK  Name = 
REMARK  7 active torsions:
REMARK  status: ('A' for Active; 'I' for Inactive)
REMARK    1  A    between atoms: C_1  and  N_2
REMARK    2  A    between atoms: N_2  and  C_3
REMARK    3  A    between atoms: C_4  and  C_6
REMARK    4  A    between atoms: C_6  and  C_7
REMARK    5  A    between atoms: N_9  and  C_10
REMARK    6  A    between atoms: C_14  and  C_15
REMARK    7  A    between atoms: C_21  and  C_22
REMARK                            x       y       z     vdW  Elec       q    Type
REMARK                         _______ _______ _______ _____ _____    ______ ____
ROOT
ATOM      1  C   UNL     1       0.320  10.971  20.380  0.00  0.00    +0.000 A 
ATOM      2  C   UNL     1       0.559   9.612  20.361  0.00  0.00    +0.000 A 
ATOM      3  N   UNL     1       1.466   9.369  19.360  0.00  0.00    +0.000 N 
ATOM      4  N   UNL     1       1.796  10.507  18.710  0.00  0.00    +0.000 NA
ATOM      5  C   UNL     1       1.081  11.494  19.285  0.00  0.00    +0.000 A 
ENDROOT
BRANCH   5   6
ATOM      6  C   UNL     1       1.365  12.897  18.944  0.00  0.00    +0.000 A 
ATOM      7  C   UNL     1       2.644  13.382  19.293  0.00  0.00    +0.000 A 
ATOM      8  C   UNL     1       2.730  14.613  19.917  0.00  0.00    +0.000 A 
ATOM      9  C   UNL     1       1.563  15.361  19.916  0.00  0.00    +0.000 A 
ATOM     10  C   UNL     1       0.717  15.184  18.828  0.00  0.00    +0.000 A 
ATOM     11  C   UNL     1       0.395  13.845  18.588  0.00  0.00    +0.000 A 
ATOM     12  C   UNL     1      -0.187  16.340  18.881  0.00  0.00    +0.000 C 
ATOM     13  O   UNL     1      -0.660  16.956  17.947  0.00  0.00    +0.000 OA
ATOM     14  C   UNL     1      -0.302  16.690  20.304  0.00  0.00    +0.000 A 
ATOM     15  C   UNL     1      -1.485  17.136  20.870  0.00  0.00    +0.000 A 
ATOM     16  C   UNL     1      -1.767  16.689  22.153  0.00  0.00    +0.000 A 
ATOM     17  C   UNL     1      -0.881  15.804  22.795  0.00  0.00    +0.000 A 
ATOM     18  C   UNL     1       0.354  15.426  22.207  0.00  0.00    +0.000 A 
ATOM     19  C   UNL     1       0.698  15.931  20.951  0.00  0.00    +0.000 A 
ENDBRANCH   5   6
BRANCH   3  20
ATOM     20  C   UNL     1       2.059   8.120  19.014  0.00  0.00    +0.000 A 
ATOM     21  C   UNL     1       2.852   7.990  17.866  0.00  0.00    +0.000 A 
ATOM     22  C   UNL     1       3.483   6.776  17.581  0.00  0.00    +0.000 A 
ATOM     23  C   UNL     1       3.294   5.675  18.416  0.00  0.00    +0.000 A 
ATOM     24  C   UNL     1       2.462   5.772  19.549  0.00  0.00    +0.000 A 
ATOM     25  C   UNL     1       1.856   7.003  19.839  0.00  0.00    +0.000 A 
BRANCH  24  26
ATOM     26  C   UNL     1       2.201   4.566  20.415  0.00  0.00    +0.000 C 
ATOM     27  F   UNL     1       2.409   4.789  21.742  0.00  0.00    +0.000 F 
ATOM     28  F   UNL     1       0.906   4.117  20.308  0.00  0.00    +0.000 F 
ATOM     29  F   UNL     1       2.993   3.509  20.089  0.00  0.00    +0.000 F 
ENDBRANCH  24  26
ENDBRANCH   3  20
BRANCH   1  30
ATOM     30  C   UNL     1      -0.511  11.667  21.412  0.00  0.00    +0.000 C 
BRANCH  30  34
ATOM     31  C   UNL     1      -4.153  12.773  21.342  0.00  0.00    +0.000 C 
ATOM     32  N   UNL     1      -2.803  12.539  21.821  0.00  0.00    +0.000 N 
ATOM     33  C   UNL     1      -2.621  12.397  23.256  0.00  0.00    +0.000 C 
ATOM     34  C   UNL     1      -1.901  12.006  20.897  0.00  0.00    +0.000 C 
ATOM     35  O   UNL     1      -2.228  11.823  19.721  0.00  0.00    +0.000 OA
ENDBRANCH  30  34
ENDBRANCH   1  30
TORSDOF 5
ENDMDL
MODEL 9
REMARK VINA RESULT:      -7.6      1.742      2.729
REMARK  Name = 
REMARK  7 active torsions:
REMARK  status: ('A' for Active; 'I' for Inactive)
REMARK    1  A    between atoms: C_1  and  N_2
REMARK    2  A    between atoms: N_2  and  C_3
REMARK    3  A    between atoms: C_4  and  C_6
REMARK    4  A    between atoms: C_6  and  C_7
REMARK    5  A    between atoms: N_9  and  C_10
REMARK    6  A    between atoms: C_14  and  C_15
REMARK    7  A    between atoms: C_21  and  C_22
REMARK                            x       y       z     vdW  Elec       q    Type
REMARK                         _______ _______ _______ _____ _____    ______ ____
ROOT
ATOM      1  C   UNL     1       0.642  12.365  20.781  0.00  0.00    +0.000 A 
ATOM      2  C   UNL     1       1.574  11.564  20.153  0.00  0.00    +0.000 A 
ATOM      3  N   UNL     1       1.004  10.326  19.986  0.00  0.00    +0.000 N 
ATOM      4  N   UNL     1      -0.241  10.285  20.510  0.00  0.00    +0.000 NA
ATOM      5  C   UNL     1      -0.472  11.503  21.038  0.00  0.00    +0.000 A 
ENDROOT
BRANCH   5   6
ATOM      6  C   UNL     1      -1.823  11.853  21.506  0.00  0.00    +0.000 A 
ATOM      7  C   UNL     1      -2.640  12.558  20.596  0.00  0.00    +0.000 A 
ATOM      8  C   UNL     1      -3.333  13.662  21.057  0.00  0.00    +0.000 A 
ATOM      9  C   UNL     1      -3.348  13.820  22.434  0.00  0.00    +0.000 A 
ATOM     10  C   UNL     1      -3.300  12.656  23.190  0.00  0.00    +0.000 A 
ATOM     11  C   UNL     1      -2.240  11.812  22.844  0.00  0.00    +0.000 A 
ATOM     12  C   UNL     1      -3.723  13.078  24.532  0.00  0.00    +0.000 C 
ATOM     13  O   UNL     1      -4.384  12.450  25.334  0.00  0.00    +0.000 OA
ATOM     14  C   UNL     1      -3.295  14.478  24.661  0.00  0.00    +0.000 A 
ATOM     15  C   UNL     1      -2.818  15.007  25.850  0.00  0.00    +0.000 A 
ATOM     16  C   UNL     1      -1.770  15.911  25.751  0.00  0.00    +0.000 A 
ATOM     17  C   UNL     1      -1.233  16.222  24.488  0.00  0.00    +0.000 A 
ATOM     18  C   UNL     1      -1.796  15.711  23.290  0.00  0.00    +0.000 A 
ATOM     19  C   UNL     1      -2.905  14.865  23.360  0.00  0.00    +0.000 A 
ENDBRANCH   5   6
BRANCH   3  20
ATOM     20  C   UNL     1       1.567   9.196  19.326  0.00  0.00    +0.000 A 
ATOM     21  C   UNL     1       2.049   9.290  18.013  0.00  0.00    +0.000 A 
ATOM     22  C   UNL     1       2.662   8.190  17.409  0.00  0.00    +0.000 A 
ATOM     23  C   UNL     1       2.764   6.979  18.093  0.00  0.00    +0.000 A 
ATOM     24  C   UNL     1       2.243   6.851  19.396  0.00  0.00    +0.000 A 
ATOM     25  C   UNL     1       1.653   7.969  20.003  0.00  0.00    +0.000 A 
BRANCH  24  26
ATOM     26  C   UNL     1       2.289   5.525  20.113  0.00  0.00    +0.000 C 
ATOM     27  F   UNL     1       3.524   4.954  20.132  0.00  0.00    +0.000 F 
ATOM     28  F   UNL     1       1.903   5.630  21.429  0.00  0.00    +0.000 F 
ATOM     29  F   UNL     1       1.463   4.600  19.554  0.00  0.00    +0.000 F 
ENDBRANCH  24  26
ENDBRANCH   3  20
BRANCH   1  30
ATOM     30  C   UNL     1       0.820  13.831  21.028  0.00  0.00    +0.000 C 
BRANCH  30  34
ATOM     31  C   UNL     1       1.832  16.358  18.366  0.00  0.00    +0.000 C 
ATOM     32  N   UNL     1       1.884  15.531  19.558  0.00  0.00    +0.000 N 
ATOM     33  C   UNL     1       2.694  16.008  20.666  0.00  0.00    +0.000 C 
ATOM     34  C   UNL     1       0.827  14.634  19.737  0.00  0.00    +0.000 C 
ATOM     35  O   UNL     1      -0.055  14.511  18.882  0.00  0.00    +0.000 OA
ENDBRANCH  30  34
ENDBRANCH   1  30
TORSDOF 5
ENDMDL
