MODEL 1
REMARK VINA RESULT:      -7.6      0.000      0.000
REMARK  Name = 
REMARK  6 active torsions:
REMARK  status: ('A' for Active; 'I' for Inactive)
REMARK    1  A    between atoms: O_1  and  C_2
REMARK    2  A    between atoms: C_2  and  C_3
REMARK    3  A    between atoms: C_2  and  C_12
REMARK    4  A    between atoms: C_2  and  C_18
REMARK    5  A    between atoms: C_4  and  C_5
REMARK    6  A    between atoms: C_5  and  N_6
REMARK                            x       y       z     vdW  Elec       q    Type
REMARK                         _______ _______ _______ _____ _____    ______ ____
ROOT
ATOM      1  C   UNL     1       3.661   5.739  18.331  0.00  0.00    +0.000 C 
ENDROOT
BRANCH   1   2
ATOM      2  C   UNL     1       2.600   4.770  18.926  0.00  0.00    +0.000 A 
ATOM      3  C   UNL     1       2.302   4.735  20.316  0.00  0.00    +0.000 A 
ATOM      4  C   UNL     1       1.360   3.827  20.829  0.00  0.00    +0.000 A 
ATOM      5  C   UNL     1       0.710   2.931  19.982  0.00  0.00    +0.000 A 
ATOM      6  C   UNL     1       0.960   2.974  18.613  0.00  0.00    +0.000 A 
ATOM      7  C   UNL     1       1.876   3.892  18.086  0.00  0.00    +0.000 A 
ENDBRANCH   1   2
BRANCH   1   8
ATOM      8  C   UNL     1       4.192   5.246  16.916  0.00  0.00    +0.000 C 
ATOM      9  C   UNL     1       5.067   6.270  16.172  0.00  0.00    +0.000 C 
ATOM     10  C   UNL     1       5.719   5.451  15.047  0.00  0.00    +0.000 C 
ATOM     11  C   UNL     1       5.869   4.027  15.597  0.00  0.00    +0.000 C 
ATOM     12  C   UNL     1       5.197   4.077  16.971  0.00  0.00    +0.000 C 
ENDBRANCH   1   8
BRANCH   1  13
ATOM     13  O   UNL     1       4.764   5.854  19.185  0.00  0.00    +0.000 OA
ATOM     14  H   UNL     1       4.466   5.719  20.123  0.00  0.00    +0.000 HD
ENDBRANCH   1  13
BRANCH   1  15
ATOM     15  C   UNL     1       3.033   7.066  18.194  0.00  0.00    +0.000 C 
ATOM     16  C   UNL     1       2.462   8.132  18.093  0.00  0.00    +0.000 C 
BRANCH  16  17
ATOM     17  C   UNL     1       1.776   9.449  18.019  0.00  0.00    +0.000 C 
BRANCH  17  18
ATOM     18  N   UNL     1       0.497   9.436  18.760  0.00  0.00    +0.000 NA
ATOM     19  C   UNL     1      -0.549  10.348  18.244  0.00  0.00    +0.000 C 
ATOM     20  C   UNL     1      -0.287  11.828  18.609  0.00  0.00    +0.000 C 
ATOM     21  O   UNL     1       0.027  12.030  19.982  0.00  0.00    +0.000 OA
ATOM     22  C   UNL     1       1.075  11.176  20.417  0.00  0.00    +0.000 C 
ATOM     23  C   UNL     1       0.692   9.708  20.197  0.00  0.00    +0.000 C 
ENDBRANCH  17  18
ENDBRANCH  16  17
ENDBRANCH   1  15
TORSDOF 6
ENDMDL
MODEL 2
REMARK VINA RESULT:      -7.5      3.886      5.951
REMARK  Name = 
REMARK  6 active torsions:
REMARK  status: ('A' for Active; 'I' for Inactive)
REMARK    1  A    between atoms: O_1  and  C_2
REMARK    2  A    between atoms: C_2  and  C_3
REMARK    3  A    between atoms: C_2  and  C_12
REMARK    4  A    between atoms: C_2  and  C_18
REMARK    5  A    between atoms: C_4  and  C_5
REMARK    6  A    between atoms: C_5  and  N_6
REMARK                            x       y       z     vdW  Elec       q    Type
REMARK                         _______ _______ _______ _____ _____    ______ ____
ROOT
ATOM      1  C   UNL     1       5.679   5.319  15.785  0.00  0.00    +0.000 C 
ENDROOT
BRANCH   1   2
ATOM      2  C   UNL     1       6.604   5.862  16.911  0.00  0.00    +0.000 A 
ATOM      3  C   UNL     1       6.977   7.231  16.989  0.00  0.00    +0.000 A 
ATOM      4  C   UNL     1       7.840   7.688  18.000  0.00  0.00    +0.000 A 
ATOM      5  C   UNL     1       8.358   6.797  18.940  0.00  0.00    +0.000 A 
ATOM      6  C   UNL     1       7.975   5.459  18.904  0.00  0.00    +0.000 A 
ATOM      7  C   UNL     1       7.096   4.998  17.917  0.00  0.00    +0.000 A 
ENDBRANCH   1   2
BRANCH   1   8
ATOM      8  C   UNL     1       6.498   4.558  14.655  0.00  0.00    +0.000 C 
ATOM      9  C   UNL     1       5.629   3.919  13.558  0.00  0.00    +0.000 C 
ATOM     10  C   UNL     1       6.631   3.573  12.446  0.00  0.00    +0.000 C 
ATOM     11  C   UNL     1       7.738   4.631  12.534  0.00  0.00    +0.000 C 
ATOM     12  C   UNL     1       7.369   5.467  13.762  0.00  0.00    +0.000 C 
ENDBRANCH   1   8
BRANCH   1  13
ATOM     13  O   UNL     1       4.974   6.362  15.174  0.00  0.00    +0.000 OA
ATOM     14  H   UNL     1       5.384   6.561  14.291  0.00  0.00    +0.000 HD
ENDBRANCH   1  13
BRANCH   1  15
ATOM     15  C   UNL     1       4.709   4.397  16.405  0.00  0.00    +0.000 C 
ATOM     16  C   UNL     1       3.953   3.622  16.955  0.00  0.00    +0.000 C 
BRANCH  16  17
ATOM     17  C   UNL     1       3.007   2.714  17.655  0.00  0.00    +0.000 C 
BRANCH  17  18
ATOM     18  N   UNL     1       1.671   3.331  17.801  0.00  0.00    +0.000 NA
ATOM     19  C   UNL     1       1.666   4.752  18.217  0.00  0.00    +0.000 C 
ATOM     20  C   UNL     1       1.978   4.937  19.720  0.00  0.00    +0.000 C 
ATOM     21  O   UNL     1       1.218   4.085  20.569  0.00  0.00    +0.000 OA
ATOM     22  C   UNL     1       1.300   2.725  20.167  0.00  0.00    +0.000 C 
ATOM     23  C   UNL     1       0.811   2.566  18.723  0.00  0.00    +0.000 C 
ENDBRANCH  17  18
ENDBRANCH  16  17
ENDBRANCH   1  15
TORSDOF 6
ENDMDL
MODEL 3
REMARK VINA RESULT:      -7.5      3.899      5.950
REMARK  Name = 
REMARK  6 active torsions:
REMARK  status: ('A' for Active; 'I' for Inactive)
REMARK    1  A    between atoms: O_1  and  C_2
REMARK    2  A    between atoms: C_2  and  C_3
REMARK    3  A    between atoms: C_2  and  C_12
REMARK    4  A    between atoms: C_2  and  C_18
REMARK    5  A    between atoms: C_4  and  C_5
REMARK    6  A    between atoms: C_5  and  N_6
REMARK                            x       y       z     vdW  Elec       q    Type
REMARK                         _______ _______ _______ _____ _____    ______ ____
ROOT
ATOM      1  C   UNL     1       5.625   5.352  15.858  0.00  0.00    +0.000 C 
ENDROOT
BRANCH   1   2
ATOM      2  C   UNL     1       6.609   5.860  16.950  0.00  0.00    +0.000 A 
ATOM      3  C   UNL     1       7.140   4.999  17.950  0.00  0.00    +0.000 A 
ATOM      4  C   UNL     1       8.002   5.493  18.944  0.00  0.00    +0.000 A 
ATOM      5  C   UNL     1       8.341   6.846  18.975  0.00  0.00    +0.000 A 
ATOM      6  C   UNL     1       7.862   7.698  17.984  0.00  0.00    +0.000 A 
ATOM      7  C   UNL     1       7.023   7.212  16.973  0.00  0.00    +0.000 A 
ENDBRANCH   1   2
BRANCH   1   8
ATOM      8  C   UNL     1       6.367   4.510  14.732  0.00  0.00    +0.000 C 
ATOM      9  C   UNL     1       5.441   3.960  13.634  0.00  0.00    +0.000 C 
ATOM     10  C   UNL     1       6.407   3.512  12.526  0.00  0.00    +0.000 C 
ATOM     11  C   UNL     1       7.614   4.453  12.616  0.00  0.00    +0.000 C 
ATOM     12  C   UNL     1       7.328   5.324  13.840  0.00  0.00    +0.000 C 
ENDBRANCH   1   8
BRANCH   1  13
ATOM     13  O   UNL     1       4.978   6.425  15.234  0.00  0.00    +0.000 OA
ATOM     14  H   UNL     1       4.154   6.649  15.742  0.00  0.00    +0.000 HD
ENDBRANCH   1  13
BRANCH   1  15
ATOM     15  C   UNL     1       4.610   4.513  16.521  0.00  0.00    +0.000 C 
ATOM     16  C   UNL     1       3.745   3.819  17.014  0.00  0.00    +0.000 C 
BRANCH  16  17
ATOM     17  C   UNL     1       2.718   2.926  17.613  0.00  0.00    +0.000 C 
BRANCH  17  18
ATOM     18  N   UNL     1       1.613   3.701  18.217  0.00  0.00    +0.000 NA
ATOM     19  C   UNL     1       2.015   4.927  18.943  0.00  0.00    +0.000 C 
ATOM     20  C   UNL     1       2.636   4.626  20.327  0.00  0.00    +0.000 C 
ATOM     21  O   UNL     1       1.872   3.717  21.110  0.00  0.00    +0.000 OA
ATOM     22  C   UNL     1       1.561   2.532  20.393  0.00  0.00    +0.000 C 
ATOM     23  C   UNL     1       0.787   2.871  19.113  0.00  0.00    +0.000 C 
ENDBRANCH  17  18
ENDBRANCH  16  17
ENDBRANCH   1  15
TORSDOF 6
ENDMDL
MODEL 4
REMARK VINA RESULT:      -7.5      0.620      1.140
REMARK  Name = 
REMARK  6 active torsions:
REMARK  status: ('A' for Active; 'I' for Inactive)
REMARK    1  A    between atoms: O_1  and  C_2
REMARK    2  A    between atoms: C_2  and  C_3
REMARK    3  A    between atoms: C_2  and  C_12
REMARK    4  A    between atoms: C_2  and  C_18
REMARK    5  A    between atoms: C_4  and  C_5
REMARK    6  A    between atoms: C_5  and  N_6
REMARK                            x       y       z     vdW  Elec       q    Type
REMARK                         _______ _______ _______ _____ _____    ______ ____
ROOT
ATOM      1  C   UNL     1       3.555   5.744  18.344  0.00  0.00    +0.000 C 
ENDROOT
BRANCH   1   2
ATOM      2  C   UNL     1       2.524   4.746  18.944  0.00  0.00    +0.000 A 
ATOM      3  C   UNL     1       2.262   4.676  20.340  0.00  0.00    +0.000 A 
ATOM      4  C   UNL     1       1.348   3.742  20.857  0.00  0.00    +0.000 A 
ATOM      5  C   UNL     1       0.689   2.855  20.006  0.00  0.00    +0.000 A 
ATOM      6  C   UNL     1       0.903   2.932  18.632  0.00  0.00    +0.000 A 
ATOM      7  C   UNL     1       1.792   3.875  18.104  0.00  0.00    +0.000 A 
ENDBRANCH   1   2
BRANCH   1   8
ATOM      8  C   UNL     1       4.157   5.225  16.967  0.00  0.00    +0.000 C 
ATOM      9  C   UNL     1       5.001   6.263  16.209  0.00  0.00    +0.000 C 
ATOM     10  C   UNL     1       5.731   5.437  15.139  0.00  0.00    +0.000 C 
ATOM     11  C   UNL     1       5.936   4.046  15.751  0.00  0.00    +0.000 C 
ATOM     12  C   UNL     1       5.218   4.114  17.101  0.00  0.00    +0.000 C 
ENDBRANCH   1   8
BRANCH   1  13
ATOM     13  O   UNL     1       4.622   5.947  19.228  0.00  0.00    +0.000 OA
ATOM     14  H   UNL     1       4.828   5.094  19.694  0.00  0.00    +0.000 HD
ENDBRANCH   1  13
BRANCH   1  15
ATOM     15  C   UNL     1       2.867   7.031  18.135  0.00  0.00    +0.000 C 
ATOM     16  C   UNL     1       2.249   8.064  17.982  0.00  0.00    +0.000 C 
BRANCH  16  17
ATOM     17  C   UNL     1       1.509   9.346  17.840  0.00  0.00    +0.000 C 
BRANCH  17  18
ATOM     18  N   UNL     1       1.625  10.175  19.059  0.00  0.00    +0.000 NA
ATOM     19  C   UNL     1       0.960   9.634  20.265  0.00  0.00    +0.000 C 
ATOM     20  C   UNL     1      -0.577   9.802  20.229  0.00  0.00    +0.000 C 
ATOM     21  O   UNL     1      -0.999  11.115  19.878  0.00  0.00    +0.000 OA
ATOM     22  C   UNL     1      -0.381  11.569  18.683  0.00  0.00    +0.000 C 
ATOM     23  C   UNL     1       1.145  11.552  18.833  0.00  0.00    +0.000 C 
ENDBRANCH  17  18
ENDBRANCH  16  17
ENDBRANCH   1  15
TORSDOF 6
ENDMDL
MODEL 5
REMARK VINA RESULT:      -7.5      0.089      1.032
REMARK  Name = 
REMARK  6 active torsions:
REMARK  status: ('A' for Active; 'I' for Inactive)
REMARK    1  A    between atoms: O_1  and  C_2
REMARK    2  A    between atoms: C_2  and  C_3
REMARK    3  A    between atoms: C_2  and  C_12
REMARK    4  A    between atoms: C_2  and  C_18
REMARK    5  A    between atoms: C_4  and  C_5
REMARK    6  A    between atoms: C_5  and  N_6
REMARK                            x       y       z     vdW  Elec       q    Type
REMARK                         _______ _______ _______ _____ _____    ______ ____
ROOT
ATOM      1  C   UNL     1       3.617   5.731  18.346  0.00  0.00    +0.000 C 
ENDROOT
BRANCH   1   2
ATOM      2  C   UNL     1       2.600   4.715  18.941  0.00  0.00    +0.000 A 
ATOM      3  C   UNL     1       1.834   3.843  18.120  0.00  0.00    +0.000 A 
ATOM      4  C   UNL     1       0.899   2.958  18.683  0.00  0.00    +0.000 A 
ATOM      5  C   UNL     1       0.697   2.929  20.063  0.00  0.00    +0.000 A 
ATOM      6  C   UNL     1       1.464   3.749  20.887  0.00  0.00    +0.000 A 
ATOM      7  C   UNL     1       2.416   4.616  20.339  0.00  0.00    +0.000 A 
ENDBRANCH   1   2
BRANCH   1   8
ATOM      8  C   UNL     1       4.162   5.268  16.927  0.00  0.00    +0.000 C 
ATOM      9  C   UNL     1       5.062   6.298  16.223  0.00  0.00    +0.000 C 
ATOM     10  C   UNL     1       5.720   5.500  15.087  0.00  0.00    +0.000 C 
ATOM     11  C   UNL     1       5.842   4.060  15.602  0.00  0.00    +0.000 C 
ATOM     12  C   UNL     1       5.150   4.084  16.966  0.00  0.00    +0.000 C 
ENDBRANCH   1   8
BRANCH   1  13
ATOM     13  O   UNL     1       4.717   5.890  19.197  0.00  0.00    +0.000 OA
ATOM     14  H   UNL     1       5.549   5.673  18.698  0.00  0.00    +0.000 HD
ENDBRANCH   1  13
BRANCH   1  15
ATOM     15  C   UNL     1       2.931   7.031  18.218  0.00  0.00    +0.000 C 
ATOM     16  C   UNL     1       2.384   8.113  18.170  0.00  0.00    +0.000 C 
BRANCH  16  17
ATOM     17  C   UNL     1       1.756   9.458  18.086  0.00  0.00    +0.000 C 
BRANCH  17  18
ATOM     18  N   UNL     1       0.452   9.492  18.783  0.00  0.00    +0.000 NA
ATOM     19  C   UNL     1      -0.532  10.459  18.249  0.00  0.00    +0.000 C 
ATOM     20  C   UNL     1      -0.216  11.919  18.650  0.00  0.00    +0.000 C 
ATOM     21  O   UNL     1       0.060  12.083  20.036  0.00  0.00    +0.000 OA
ATOM     22  C   UNL     1       1.052  11.175  20.490  0.00  0.00    +0.000 C 
ATOM     23  C   UNL     1       0.610   9.730  20.230  0.00  0.00    +0.000 C 
ENDBRANCH  17  18
ENDBRANCH  16  17
ENDBRANCH   1  15
TORSDOF 6
ENDMDL
MODEL 6
REMARK VINA RESULT:      -7.5      0.610      1.535
REMARK  Name = 
REMARK  6 active torsions:
REMARK  status: ('A' for Active; 'I' for Inactive)
REMARK    1  A    between atoms: O_1  and  C_2
REMARK    2  A    between atoms: C_2  and  C_3
REMARK    3  A    between atoms: C_2  and  C_12
REMARK    4  A    between atoms: C_2  and  C_18
REMARK    5  A    between atoms: C_4  and  C_5
REMARK    6  A    between atoms: C_5  and  N_6
REMARK                            x       y       z     vdW  Elec       q    Type
REMARK                         _______ _______ _______ _____ _____    ______ ____
ROOT
ATOM      1  C   UNL     1       3.592   5.696  18.348  0.00  0.00    +0.000 C 
ENDROOT
BRANCH   1   2
ATOM      2  C   UNL     1       2.582   4.676  18.948  0.00  0.00    +0.000 A 
ATOM      3  C   UNL     1       1.816   3.801  18.130  0.00  0.00    +0.000 A 
ATOM      4  C   UNL     1       0.887   2.912  18.698  0.00  0.00    +0.000 A 
ATOM      5  C   UNL     1       0.692   2.882  20.078  0.00  0.00    +0.000 A 
ATOM      6  C   UNL     1       1.459   3.704  20.899  0.00  0.00    +0.000 A 
ATOM      7  C   UNL     1       2.406   4.575  20.347  0.00  0.00    +0.000 A 
ENDBRANCH   1   2
BRANCH   1   8
ATOM      8  C   UNL     1       4.155   5.222  16.939  0.00  0.00    +0.000 C 
ATOM      9  C   UNL     1       5.039   6.257  16.225  0.00  0.00    +0.000 C 
ATOM     10  C   UNL     1       5.719   5.454  15.105  0.00  0.00    +0.000 C 
ATOM     11  C   UNL     1       5.865   4.025  15.643  0.00  0.00    +0.000 C 
ATOM     12  C   UNL     1       5.164   4.057  17.003  0.00  0.00    +0.000 C 
ENDBRANCH   1   8
BRANCH   1  13
ATOM     13  O   UNL     1       4.684   5.877  19.206  0.00  0.00    +0.000 OA
ATOM     14  H   UNL     1       5.037   6.799  19.094  0.00  0.00    +0.000 HD
ENDBRANCH   1  13
BRANCH   1  15
ATOM     15  C   UNL     1       2.893   6.986  18.199  0.00  0.00    +0.000 C 
ATOM     16  C   UNL     1       2.285   8.023  18.032  0.00  0.00    +0.000 C 
BRANCH  16  17
ATOM     17  C   UNL     1       1.508   9.280  17.868  0.00  0.00    +0.000 C 
BRANCH  17  18
ATOM     18  N   UNL     1       1.629  10.150  19.057  0.00  0.00    +0.000 NA
ATOM     19  C   UNL     1       0.958   9.656  20.281  0.00  0.00    +0.000 C 
ATOM     20  C   UNL     1      -0.577   9.835  20.236  0.00  0.00    +0.000 C 
ATOM     21  O   UNL     1      -0.988  11.138  19.839  0.00  0.00    +0.000 OA
ATOM     22  C   UNL     1      -0.364  11.546  18.630  0.00  0.00    +0.000 C 
ATOM     23  C   UNL     1       1.161  11.521  18.783  0.00  0.00    +0.000 C 
ENDBRANCH  17  18
ENDBRANCH  16  17
ENDBRANCH   1  15
TORSDOF 6
ENDMDL
MODEL 7
REMARK VINA RESULT:      -7.4      4.105      5.974
REMARK  Name = 
REMARK  6 active torsions:
REMARK  status: ('A' for Active; 'I' for Inactive)
REMARK    1  A    between atoms: O_1  and  C_2
REMARK    2  A    between atoms: C_2  and  C_3
REMARK    3  A    between atoms: C_2  and  C_12
REMARK    4  A    between atoms: C_2  and  C_18
REMARK    5  A    between atoms: C_4  and  C_5
REMARK    6  A    between atoms: C_5  and  N_6
REMARK                            x       y       z     vdW  Elec       q    Type
REMARK                         _______ _______ _______ _____ _____    ______ ____
ROOT
ATOM      1  C   UNL     1       5.573   5.486  15.838  0.00  0.00    +0.000 C 
ENDROOT
BRANCH   1   2
ATOM      2  C   UNL     1       6.571   5.927  16.947  0.00  0.00    +0.000 A 
ATOM      3  C   UNL     1       7.042   5.028  17.942  0.00  0.00    +0.000 A 
ATOM      4  C   UNL     1       7.919   5.462  18.950  0.00  0.00    +0.000 A 
ATOM      5  C   UNL     1       8.334   6.793  19.000  0.00  0.00    +0.000 A 
ATOM      6  C   UNL     1       7.914   7.681  18.013  0.00  0.00    +0.000 A 
ATOM      7  C   UNL     1       7.061   7.253  16.988  0.00  0.00    +0.000 A 
ENDBRANCH   1   2
BRANCH   1   8
ATOM      8  C   UNL     1       6.259   4.544  14.757  0.00  0.00    +0.000 C 
ATOM      9  C   UNL     1       5.300   4.000  13.685  0.00  0.00    +0.000 C 
ATOM     10  C   UNL     1       6.235   3.438  12.603  0.00  0.00    +0.000 C 
ATOM     11  C   UNL     1       7.500   4.303  12.650  0.00  0.00    +0.000 C 
ATOM     12  C   UNL     1       7.270   5.250  13.830  0.00  0.00    +0.000 C 
ENDBRANCH   1   8
BRANCH   1  13
ATOM     13  O   UNL     1       5.052   6.598  15.167  0.00  0.00    +0.000 OA
ATOM     14  H   UNL     1       4.522   7.146  15.806  0.00  0.00    +0.000 HD
ENDBRANCH   1  13
BRANCH   1  15
ATOM     15  C   UNL     1       4.462   4.769  16.492  0.00  0.00    +0.000 C 
ATOM     16  C   UNL     1       3.546   4.142  16.983  0.00  0.00    +0.000 C 
BRANCH  16  17
ATOM     17  C   UNL     1       2.459   3.348  17.612  0.00  0.00    +0.000 C 
BRANCH  17  18
ATOM     18  N   UNL     1       2.885   2.777  18.908  0.00  0.00    +0.000 NA
ATOM     19  C   UNL     1       1.797   2.245  19.759  0.00  0.00    +0.000 C 
ATOM     20  C   UNL     1       0.980   3.359  20.454  0.00  0.00    +0.000 C 
ATOM     21  O   UNL     1       1.785   4.342  21.094  0.00  0.00    +0.000 OA
ATOM     22  C   UNL     1       2.776   4.866  20.223  0.00  0.00    +0.000 C 
ATOM     23  C   UNL     1       3.674   3.740  19.698  0.00  0.00    +0.000 C 
ENDBRANCH  17  18
ENDBRANCH  16  17
ENDBRANCH   1  15
TORSDOF 6
ENDMDL
MODEL 8
REMARK VINA RESULT:      -7.3      4.125      5.990
REMARK  Name = 
REMARK  6 active torsions:
REMARK  status: ('A' for Active; 'I' for Inactive)
REMARK    1  A    between atoms: O_1  and  C_2
REMARK    2  A    between atoms: C_2  and  C_3
REMARK    3  A    between atoms: C_2  and  C_12
REMARK    4  A    between atoms: C_2  and  C_18
REMARK    5  A    between atoms: C_4  and  C_5
REMARK    6  A    between atoms: C_5  and  N_6
REMARK                            x       y       z     vdW  Elec       q    Type
REMARK                         _______ _______ _______ _____ _____    ______ ____
ROOT
ATOM      1  C   UNL     1       5.602   5.474  15.810  0.00  0.00    +0.000 C 
ENDROOT
BRANCH   1   2
ATOM      2  C   UNL     1       6.558   5.945  16.943  0.00  0.00    +0.000 A 
ATOM      3  C   UNL     1       7.018   7.287  17.037  0.00  0.00    +0.000 A 
ATOM      4  C   UNL     1       7.907   7.676  18.053  0.00  0.00    +0.000 A 
ATOM      5  C   UNL     1       8.365   6.744  18.984  0.00  0.00    +0.000 A 
ATOM      6  C   UNL     1       7.898   5.434  18.933  0.00  0.00    +0.000 A 
ATOM      7  C   UNL     1       6.992   5.041  17.941  0.00  0.00    +0.000 A 
ENDBRANCH   1   2
BRANCH   1   8
ATOM      8  C   UNL     1       6.355   4.594  14.721  0.00  0.00    +0.000 C 
ATOM      9  C   UNL     1       5.437   3.988  13.647  0.00  0.00    +0.000 C 
ATOM     10  C   UNL     1       6.410   3.505  12.559  0.00  0.00    +0.000 C 
ATOM     11  C   UNL     1       7.606   4.462  12.610  0.00  0.00    +0.000 C 
ATOM     12  C   UNL     1       7.308   5.381  13.797  0.00  0.00    +0.000 C 
ENDBRANCH   1   8
BRANCH   1  13
ATOM     13  O   UNL     1       5.031   6.571  15.154  0.00  0.00    +0.000 OA
ATOM     14  H   UNL     1       4.043   6.528  15.247  0.00  0.00    +0.000 HD
ENDBRANCH   1  13
BRANCH   1  15
ATOM     15  C   UNL     1       4.523   4.684  16.431  0.00  0.00    +0.000 C 
ATOM     16  C   UNL     1       3.624   4.080  16.980  0.00  0.00    +0.000 C 
BRANCH  16  17
ATOM     17  C   UNL     1       2.491   3.356  17.612  0.00  0.00    +0.000 C 
BRANCH  17  18
ATOM     18  N   UNL     1       2.882   2.763  18.909  0.00  0.00    +0.000 NA
ATOM     19  C   UNL     1       1.771   2.234  19.731  0.00  0.00    +0.000 C 
ATOM     20  C   UNL     1       0.955   3.350  20.424  0.00  0.00    +0.000 C 
ATOM     21  O   UNL     1       1.759   4.314  21.093  0.00  0.00    +0.000 OA
ATOM     22  C   UNL     1       2.774   4.836  20.249  0.00  0.00    +0.000 C 
ATOM     23  C   UNL     1       3.668   3.705  19.727  0.00  0.00    +0.000 C 
ENDBRANCH  17  18
ENDBRANCH  16  17
ENDBRANCH   1  15
TORSDOF 6
ENDMDL
MODEL 9
REMARK VINA RESULT:      -7.1      1.238      1.414
REMARK  Name = 
REMARK  6 active torsions:
REMARK  status: ('A' for Active; 'I' for Inactive)
REMARK    1  A    between atoms: O_1  and  C_2
REMARK    2  A    between atoms: C_2  and  C_3
REMARK    3  A    between atoms: C_2  and  C_12
REMARK    4  A    between atoms: C_2  and  C_18
REMARK    5  A    between atoms: C_4  and  C_5
REMARK    6  A    between atoms: C_5  and  N_6
REMARK                            x       y       z     vdW  Elec       q    Type
REMARK                         _______ _______ _______ _____ _____    ______ ____
ROOT
ATOM      1  C   UNL     1       3.385   5.848  18.891  0.00  0.00    +0.000 C 
ENDROOT
BRANCH   1   2
ATOM      2  C   UNL     1       2.452   4.715  19.407  0.00  0.00    +0.000 A 
ATOM      3  C   UNL     1       2.410   4.333  20.775  0.00  0.00    +0.000 A 
ATOM      4  C   UNL     1       1.580   3.285  21.207  0.00  0.00    +0.000 A 
ATOM      5  C   UNL     1       0.789   2.589  20.293  0.00  0.00    +0.000 A 
ATOM      6  C   UNL     1       0.787   2.972  18.954  0.00  0.00    +0.000 A 
ATOM      7  C   UNL     1       1.590   4.032  18.517  0.00  0.00    +0.000 A 
ENDBRANCH   1   2
BRANCH   1   8
ATOM      8  C   UNL     1       3.835   5.612  17.385  0.00  0.00    +0.000 C 
ATOM      9  C   UNL     1       4.841   6.645  16.851  0.00  0.00    +0.000 C 
ATOM     10  C   UNL     1       5.366   6.013  15.553  0.00  0.00    +0.000 C 
ATOM     11  C   UNL     1       5.318   4.497  15.774  0.00  0.00    +0.000 C 
ATOM     12  C   UNL     1       4.666   4.334  17.149  0.00  0.00    +0.000 C 
ENDBRANCH   1   8
BRANCH   1  13
ATOM     13  O   UNL     1       4.542   5.934  19.675  0.00  0.00    +0.000 OA
ATOM     14  H   UNL     1       5.330   6.059  19.082  0.00  0.00    +0.000 HD
ENDBRANCH   1  13
BRANCH   1  15
ATOM     15  C   UNL     1       2.649   7.122  18.999  0.00  0.00    +0.000 C 
ATOM     16  C   UNL     1       2.051   8.167  19.149  0.00  0.00    +0.000 C 
BRANCH  16  17
ATOM     17  C   UNL     1       1.363   9.473  19.319  0.00  0.00    +0.000 C 
BRANCH  17  18
ATOM     18  N   UNL     1       0.103   9.327  20.080  0.00  0.00    +0.000 NA
ATOM     19  C   UNL     1      -0.599  10.590  20.401  0.00  0.00    +0.000 C 
ATOM     20  C   UNL     1       0.072  11.372  21.554  0.00  0.00    +0.000 C 
ATOM     21  O   UNL     1       0.366  10.571  22.692  0.00  0.00    +0.000 OA
ATOM     22  C   UNL     1       1.092   9.401  22.343  0.00  0.00    +0.000 C 
ATOM     23  C   UNL     1       0.301   8.567  21.328  0.00  0.00    +0.000 C 
ENDBRANCH  17  18
ENDBRANCH  16  17
ENDBRANCH   1  15
TORSDOF 6
ENDMDL
