MODEL 1
REMARK VINA RESULT:      -7.7      0.000      0.000
REMARK  Name = 
REMARK  6 active torsions:
REMARK  status: ('A' for Active; 'I' for Inactive)
REMARK    1  A    between atoms: C_2  and  C_20
REMARK    2  A    between atoms: N_3  and  C_4
REMARK    3  A    between atoms: C_9  and  N_10
REMARK    4  A    between atoms: C_11  and  C_13
REMARK    5  A    between atoms: C_16  and  O_17
REMARK    6  A    between atoms: C_23  and  O_24
REMARK                            x       y       z     vdW  Elec       q    Type
REMARK                         _______ _______ _______ _____ _____    ______ ____
ROOT
ATOM      1  C   UNL     1       5.068   5.974  16.893  0.00  0.00    +0.000 A 
ATOM      2  C   UNL     1       4.553   4.694  16.605  0.00  0.00    +0.000 A 
ATOM      3  C   UNL     1       5.330   3.710  15.993  0.00  0.00    +0.000 A 
ATOM      4  C   UNL     1       6.641   3.990  15.658  0.00  0.00    +0.000 A 
ATOM      5  C   UNL     1       7.168   5.252  15.920  0.00  0.00    +0.000 A 
ATOM      6  C   UNL     1       6.407   6.271  16.525  0.00  0.00    +0.000 A 
ENDROOT
BRANCH   1   9
ATOM      7  O   UNL     1       2.969   5.669  18.954  0.00  0.00    +0.000 OA
ATOM      8  C   UNL     1       3.205   6.731  18.385  0.00  0.00    +0.000 C 
ATOM      9  N   UNL     1       4.227   6.967  17.472  0.00  0.00    +0.000 N 
ATOM     10  H   UNL     1       4.415   7.923  17.217  0.00  0.00    +0.000 HD
BRANCH   8  11
ATOM     11  C   UNL     1       2.361   7.901  18.756  0.00  0.00    +0.000 A 
ATOM     12  C   UNL     1       1.833   7.946  20.058  0.00  0.00    +0.000 A 
ATOM     13  C   UNL     1       1.034   9.017  20.463  0.00  0.00    +0.000 A 
ATOM     14  C   UNL     1       0.756  10.034  19.558  0.00  0.00    +0.000 A 
ATOM     15  C   UNL     1       1.248   9.988  18.256  0.00  0.00    +0.000 A 
ATOM     16  C   UNL     1       2.044   8.916  17.847  0.00  0.00    +0.000 A 
BRANCH  14  17
ATOM     17  O   UNL     1      -0.015  11.101  19.906  0.00  0.00    +0.000 OA
ATOM     18  H   UNL     1       0.441  11.917  19.641  0.00  0.00    +0.000 HD
ENDBRANCH  14  17
ENDBRANCH   8  11
ENDBRANCH   1   9
BRANCH   6  19
ATOM     19  N   UNL     1       7.001   7.539  16.818  0.00  0.00    +0.000 N 
ATOM     20  C   UNL     1       7.830   7.793  17.910  0.00  0.00    +0.000 C 
ATOM     21  O   UNL     1       8.289   6.948  18.673  0.00  0.00    +0.000 OA
ATOM     22  H   UNL     1       6.739   8.310  16.225  0.00  0.00    +0.000 HD
BRANCH  20  23
ATOM     23  C   UNL     1       8.226   9.204  18.189  0.00  0.00    +0.000 A 
ATOM     24  C   UNL     1       9.123   9.419  19.252  0.00  0.00    +0.000 A 
ATOM     25  C   UNL     1       9.636  10.691  19.516  0.00  0.00    +0.000 A 
ATOM     26  C   UNL     1       9.248  11.752  18.712  0.00  0.00    +0.000 A 
ATOM     27  C   UNL     1       8.342  11.564  17.669  0.00  0.00    +0.000 A 
ATOM     28  C   UNL     1       7.830  10.289  17.400  0.00  0.00    +0.000 A 
BRANCH  26  29
ATOM     29  O   UNL     1       9.756  13.003  18.898  0.00  0.00    +0.000 OA
ATOM     30  H   UNL     1      10.726  12.942  18.936  0.00  0.00    +0.000 HD
ENDBRANCH  26  29
ENDBRANCH  20  23
ENDBRANCH   6  19
TORSDOF 6
ENDMDL
MODEL 2
REMARK VINA RESULT:      -7.7      0.183      6.334
REMARK  Name = 
REMARK  6 active torsions:
REMARK  status: ('A' for Active; 'I' for Inactive)
REMARK    1  A    between atoms: C_2  and  C_20
REMARK    2  A    between atoms: N_3  and  C_4
REMARK    3  A    between atoms: C_9  and  N_10
REMARK    4  A    between atoms: C_11  and  C_13
REMARK    5  A    between atoms: C_16  and  O_17
REMARK    6  A    between atoms: C_23  and  O_24
REMARK                            x       y       z     vdW  Elec       q    Type
REMARK                         _______ _______ _______ _____ _____    ______ ____
ROOT
ATOM      1  C   UNL     1       6.381   6.235  16.465  0.00  0.00    +0.000 A 
ATOM      2  C   UNL     1       7.114   5.219  15.819  0.00  0.00    +0.000 A 
ATOM      3  C   UNL     1       6.545   3.983  15.514  0.00  0.00    +0.000 A 
ATOM      4  C   UNL     1       5.227   3.739  15.849  0.00  0.00    +0.000 A 
ATOM      5  C   UNL     1       4.486   4.722  16.500  0.00  0.00    +0.000 A 
ATOM      6  C   UNL     1       5.034   5.976  16.833  0.00  0.00    +0.000 A 
ENDROOT
BRANCH   1   9
ATOM      7  O   UNL     1       8.214   6.830  18.707  0.00  0.00    +0.000 OA
ATOM      8  C   UNL     1       7.805   7.685  17.926  0.00  0.00    +0.000 C 
ATOM      9  N   UNL     1       7.014   7.465  16.805  0.00  0.00    +0.000 N 
ATOM     10  H   UNL     1       6.899   8.226  16.156  0.00  0.00    +0.000 HD
BRANCH   8  11
ATOM     11  C   UNL     1       8.256   9.086  18.158  0.00  0.00    +0.000 A 
ATOM     12  C   UNL     1       9.097   9.335  19.256  0.00  0.00    +0.000 A 
ATOM     13  C   UNL     1       9.550  10.628  19.524  0.00  0.00    +0.000 A 
ATOM     14  C   UNL     1       9.149  11.670  18.697  0.00  0.00    +0.000 A 
ATOM     15  C   UNL     1       8.293  11.443  17.623  0.00  0.00    +0.000 A 
ATOM     16  C   UNL     1       7.835  10.152  17.355  0.00  0.00    +0.000 A 
BRANCH  14  17
ATOM     17  O   UNL     1       9.567  12.948  18.915  0.00  0.00    +0.000 OA
ATOM     18  H   UNL     1       8.810  13.478  19.217  0.00  0.00    +0.000 HD
ENDBRANCH  14  17
ENDBRANCH   8  11
ENDBRANCH   1   9
BRANCH   6  19
ATOM     19  N   UNL     1       4.224   6.975  17.460  0.00  0.00    +0.000 N 
ATOM     20  C   UNL     1       3.253   6.717  18.427  0.00  0.00    +0.000 C 
ATOM     21  O   UNL     1       3.066   5.639  18.985  0.00  0.00    +0.000 OA
ATOM     22  H   UNL     1       4.323   7.918  17.120  0.00  0.00    +0.000 HD
BRANCH  20  23
ATOM     23  C   UNL     1       2.362   7.834  18.856  0.00  0.00    +0.000 A 
ATOM     24  C   UNL     1       1.951   8.742  17.861  0.00  0.00    +0.000 A 
ATOM     25  C   UNL     1       1.029   9.752  18.146  0.00  0.00    +0.000 A 
ATOM     26  C   UNL     1       0.518   9.853  19.430  0.00  0.00    +0.000 A 
ATOM     27  C   UNL     1       0.930   8.979  20.435  0.00  0.00    +0.000 A 
ATOM     28  C   UNL     1       1.852   7.963  20.151  0.00  0.00    +0.000 A 
BRANCH  26  29
ATOM     29  O   UNL     1      -0.419  10.791  19.747  0.00  0.00    +0.000 OA
ATOM     30  H   UNL     1      -0.461  10.875  20.715  0.00  0.00    +0.000 HD
ENDBRANCH  26  29
ENDBRANCH  20  23
ENDBRANCH   6  19
TORSDOF 6
ENDMDL
MODEL 3
REMARK VINA RESULT:      -7.6      0.142      6.266
REMARK  Name = 
REMARK  6 active torsions:
REMARK  status: ('A' for Active; 'I' for Inactive)
REMARK    1  A    between atoms: C_2  and  C_20
REMARK    2  A    between atoms: N_3  and  C_4
REMARK    3  A    between atoms: C_9  and  N_10
REMARK    4  A    between atoms: C_11  and  C_13
REMARK    5  A    between atoms: C_16  and  O_17
REMARK    6  A    between atoms: C_23  and  O_24
REMARK                            x       y       z     vdW  Elec       q    Type
REMARK                         _______ _______ _______ _____ _____    ______ ____
ROOT
ATOM      1  C   UNL     1       6.473   6.286  16.529  0.00  0.00    +0.000 A 
ATOM      2  C   UNL     1       7.228   5.264  15.919  0.00  0.00    +0.000 A 
ATOM      3  C   UNL     1       6.670   4.025  15.604  0.00  0.00    +0.000 A 
ATOM      4  C   UNL     1       5.341   3.784  15.895  0.00  0.00    +0.000 A 
ATOM      5  C   UNL     1       4.578   4.773  16.511  0.00  0.00    +0.000 A 
ATOM      6  C   UNL     1       5.114   6.029  16.852  0.00  0.00    +0.000 A 
ENDROOT
BRANCH   1   9
ATOM      7  O   UNL     1       8.303   6.877  18.775  0.00  0.00    +0.000 OA
ATOM      8  C   UNL     1       7.885   7.735  18.003  0.00  0.00    +0.000 C 
ATOM      9  N   UNL     1       7.093   7.518  16.881  0.00  0.00    +0.000 N 
ATOM     10  H   UNL     1       6.970   8.285  16.240  0.00  0.00    +0.000 HD
BRANCH   8  11
ATOM     11  C   UNL     1       8.321   9.138  18.249  0.00  0.00    +0.000 A 
ATOM     12  C   UNL     1       7.826  10.142  17.398  0.00  0.00    +0.000 A 
ATOM     13  C   UNL     1       8.200  11.474  17.579  0.00  0.00    +0.000 A 
ATOM     14  C   UNL     1       9.080  11.797  18.604  0.00  0.00    +0.000 A 
ATOM     15  C   UNL     1       9.601  10.810  19.437  0.00  0.00    +0.000 A 
ATOM     16  C   UNL     1       9.232   9.476  19.256  0.00  0.00    +0.000 A 
BRANCH  14  17
ATOM     17  O   UNL     1       9.472  13.083  18.823  0.00  0.00    +0.000 OA
ATOM     18  H   UNL     1      10.403  13.175  18.561  0.00  0.00    +0.000 HD
ENDBRANCH  14  17
ENDBRANCH   8  11
ENDBRANCH   1   9
BRANCH   6  19
ATOM     19  N   UNL     1       4.282   7.033  17.442  0.00  0.00    +0.000 N 
ATOM     20  C   UNL     1       3.195   6.774  18.276  0.00  0.00    +0.000 C 
ATOM     21  O   UNL     1       2.897   5.679  18.744  0.00  0.00    +0.000 OA
ATOM     22  H   UNL     1       4.462   7.987  17.173  0.00  0.00    +0.000 HD
BRANCH  20  23
ATOM     23  C   UNL     1       2.312   7.911  18.667  0.00  0.00    +0.000 A 
ATOM     24  C   UNL     1       1.825   7.918  19.988  0.00  0.00    +0.000 A 
ATOM     25  C   UNL     1       1.083   8.996  20.476  0.00  0.00    +0.000 A 
ATOM     26  C   UNL     1       0.829  10.071  19.638  0.00  0.00    +0.000 A 
ATOM     27  C   UNL     1       1.281  10.072  18.320  0.00  0.00    +0.000 A 
ATOM     28  C   UNL     1       2.028   8.993  17.829  0.00  0.00    +0.000 A 
BRANCH  26  29
ATOM     29  O   UNL     1       0.151  11.167  20.081  0.00  0.00    +0.000 OA
ATOM     30  H   UNL     1       0.495  11.413  20.957  0.00  0.00    +0.000 HD
ENDBRANCH  26  29
ENDBRANCH  20  23
ENDBRANCH   6  19
TORSDOF 6
ENDMDL
MODEL 4
REMARK VINA RESULT:      -7.5      3.881      7.055
REMARK  Name = 
REMARK  6 active torsions:
REMARK  status: ('A' for Active; 'I' for Inactive)
REMARK    1  A    between atoms: C_2  and  C_20
REMARK    2  A    between atoms: N_3  and  C_4
REMARK    3  A    between atoms: C_9  and  N_10
REMARK    4  A    between atoms: C_11  and  C_13
REMARK    5  A    between atoms: C_16  and  O_17
REMARK    6  A    between atoms: C_23  and  O_24
REMARK                            x       y       z     vdW  Elec       q    Type
REMARK                         _______ _______ _______ _____ _____    ______ ____
ROOT
ATOM      1  C   UNL     1       3.423   3.953  19.578  0.00  0.00    +0.000 A 
ATOM      2  C   UNL     1       3.493   2.644  20.097  0.00  0.00    +0.000 A 
ATOM      3  C   UNL     1       2.697   2.234  21.165  0.00  0.00    +0.000 A 
ATOM      4  C   UNL     1       1.812   3.128  21.736  0.00  0.00    +0.000 A 
ATOM      5  C   UNL     1       1.735   4.431  21.250  0.00  0.00    +0.000 A 
ATOM      6  C   UNL     1       2.533   4.880  20.181  0.00  0.00    +0.000 A 
ENDROOT
BRANCH   1   9
ATOM      7  O   UNL     1       3.155   3.472  16.672  0.00  0.00    +0.000 OA
ATOM      8  C   UNL     1       4.134   4.014  17.178  0.00  0.00    +0.000 C 
ATOM      9  N   UNL     1       4.290   4.347  18.519  0.00  0.00    +0.000 N 
ATOM     10  H   UNL     1       5.062   4.945  18.766  0.00  0.00    +0.000 HD
BRANCH   8  11
ATOM     11  C   UNL     1       5.235   4.420  16.259  0.00  0.00    +0.000 A 
ATOM     12  C   UNL     1       5.155   4.015  14.916  0.00  0.00    +0.000 A 
ATOM     13  C   UNL     1       6.157   4.364  14.009  0.00  0.00    +0.000 A 
ATOM     14  C   UNL     1       7.243   5.108  14.454  0.00  0.00    +0.000 A 
ATOM     15  C   UNL     1       7.350   5.491  15.788  0.00  0.00    +0.000 A 
ATOM     16  C   UNL     1       6.351   5.140  16.698  0.00  0.00    +0.000 A 
BRANCH  14  17
ATOM     17  O   UNL     1       8.244   5.476  13.607  0.00  0.00    +0.000 OA
ATOM     18  H   UNL     1       9.098   5.335  14.050  0.00  0.00    +0.000 HD
ENDBRANCH  14  17
ENDBRANCH   8  11
ENDBRANCH   1   9
BRANCH   6  19
ATOM     19  N   UNL     1       2.389   6.214  19.683  0.00  0.00    +0.000 N 
ATOM     20  C   UNL     1       1.770   7.256  20.372  0.00  0.00    +0.000 C 
ATOM     21  O   UNL     1       1.409   7.224  21.545  0.00  0.00    +0.000 OA
ATOM     22  H   UNL     1       2.698   6.380  18.739  0.00  0.00    +0.000 HD
BRANCH  20  23
ATOM     23  C   UNL     1       1.532   8.541  19.653  0.00  0.00    +0.000 A 
ATOM     24  C   UNL     1       0.836   9.546  20.352  0.00  0.00    +0.000 A 
ATOM     25  C   UNL     1       0.663  10.818  19.801  0.00  0.00    +0.000 A 
ATOM     26  C   UNL     1       1.189  11.084  18.547  0.00  0.00    +0.000 A 
ATOM     27  C   UNL     1       1.861  10.096  17.829  0.00  0.00    +0.000 A 
ATOM     28  C   UNL     1       2.038   8.821  18.380  0.00  0.00    +0.000 A 
BRANCH  26  29
ATOM     29  O   UNL     1       1.089  12.323  17.987  0.00  0.00    +0.000 OA
ATOM     30  H   UNL     1       0.315  12.774  18.365  0.00  0.00    +0.000 HD
ENDBRANCH  26  29
ENDBRANCH  20  23
ENDBRANCH   6  19
TORSDOF 6
ENDMDL
MODEL 5
REMARK VINA RESULT:      -7.5      3.837      5.344
REMARK  Name = 
REMARK  6 active torsions:
REMARK  status: ('A' for Active; 'I' for Inactive)
REMARK    1  A    between atoms: C_2  and  C_20
REMARK    2  A    between atoms: N_3  and  C_4
REMARK    3  A    between atoms: C_9  and  N_10
REMARK    4  A    between atoms: C_11  and  C_13
REMARK    5  A    between atoms: C_16  and  O_17
REMARK    6  A    between atoms: C_23  and  O_24
REMARK                            x       y       z     vdW  Elec       q    Type
REMARK                         _______ _______ _______ _____ _____    ______ ____
ROOT
ATOM      1  C   UNL     1       2.627   4.802  20.339  0.00  0.00    +0.000 A 
ATOM      2  C   UNL     1       1.791   4.326  21.369  0.00  0.00    +0.000 A 
ATOM      3  C   UNL     1       1.835   3.000  21.797  0.00  0.00    +0.000 A 
ATOM      4  C   UNL     1       2.721   2.122  21.202  0.00  0.00    +0.000 A 
ATOM      5  C   UNL     1       3.547   2.565  20.173  0.00  0.00    +0.000 A 
ATOM      6  C   UNL     1       3.519   3.894  19.709  0.00  0.00    +0.000 A 
ENDROOT
BRANCH   1   9
ATOM      7  O   UNL     1       1.046   7.018  21.494  0.00  0.00    +0.000 OA
ATOM      8  C   UNL     1       1.686   7.119  20.451  0.00  0.00    +0.000 C 
ATOM      9  N   UNL     1       2.515   6.151  19.896  0.00  0.00    +0.000 N 
ATOM     10  H   UNL     1       3.114   6.428  19.136  0.00  0.00    +0.000 HD
BRANCH   8  11
ATOM     11  C   UNL     1       1.625   8.429  19.743  0.00  0.00    +0.000 A 
ATOM     12  C   UNL     1       1.020   9.510  20.406  0.00  0.00    +0.000 A 
ATOM     13  C   UNL     1       0.933  10.760  19.792  0.00  0.00    +0.000 A 
ATOM     14  C   UNL     1       1.443  10.922  18.510  0.00  0.00    +0.000 A 
ATOM     15  C   UNL     1       2.019   9.853  17.830  0.00  0.00    +0.000 A 
ATOM     16  C   UNL     1       2.104   8.600  18.439  0.00  0.00    +0.000 A 
BRANCH  14  17
ATOM     17  O   UNL     1       1.385  12.123  17.871  0.00  0.00    +0.000 OA
ATOM     18  H   UNL     1       0.619  12.124  17.274  0.00  0.00    +0.000 HD
ENDBRANCH  14  17
ENDBRANCH   8  11
ENDBRANCH   1   9
BRANCH   6  19
ATOM     19  N   UNL     1       4.419   4.320  18.681  0.00  0.00    +0.000 N 
ATOM     20  C   UNL     1       4.278   4.016  17.328  0.00  0.00    +0.000 C 
ATOM     21  O   UNL     1       3.299   3.485  16.811  0.00  0.00    +0.000 OA
ATOM     22  H   UNL     1       5.244   4.815  18.977  0.00  0.00    +0.000 HD
BRANCH  20  23
ATOM     23  C   UNL     1       5.390   4.372  16.399  0.00  0.00    +0.000 A 
ATOM     24  C   UNL     1       5.247   3.987  15.052  0.00  0.00    +0.000 A 
ATOM     25  C   UNL     1       6.183   4.374  14.090  0.00  0.00    +0.000 A 
ATOM     26  C   UNL     1       7.265   5.148  14.479  0.00  0.00    +0.000 A 
ATOM     27  C   UNL     1       7.437   5.520  15.811  0.00  0.00    +0.000 A 
ATOM     28  C   UNL     1       6.498   5.136  16.777  0.00  0.00    +0.000 A 
BRANCH  26  29
ATOM     29  O   UNL     1       8.180   5.591  13.570  0.00  0.00    +0.000 OA
ATOM     30  H   UNL     1       8.098   5.057  12.761  0.00  0.00    +0.000 HD
ENDBRANCH  26  29
ENDBRANCH  20  23
ENDBRANCH   6  19
TORSDOF 6
ENDMDL
MODEL 6
REMARK VINA RESULT:      -7.3      3.729      6.253
REMARK  Name = 
REMARK  6 active torsions:
REMARK  status: ('A' for Active; 'I' for Inactive)
REMARK    1  A    between atoms: C_2  and  C_20
REMARK    2  A    between atoms: N_3  and  C_4
REMARK    3  A    between atoms: C_9  and  N_10
REMARK    4  A    between atoms: C_11  and  C_13
REMARK    5  A    between atoms: C_16  and  O_17
REMARK    6  A    between atoms: C_23  and  O_24
REMARK                            x       y       z     vdW  Elec       q    Type
REMARK                         _______ _______ _______ _____ _____    ______ ____
ROOT
ATOM      1  C   UNL     1       4.905   5.597  15.989  0.00  0.00    +0.000 A 
ATOM      2  C   UNL     1       5.607   6.020  14.842  0.00  0.00    +0.000 A 
ATOM      3  C   UNL     1       6.503   5.182  14.178  0.00  0.00    +0.000 A 
ATOM      4  C   UNL     1       6.714   3.901  14.651  0.00  0.00    +0.000 A 
ATOM      5  C   UNL     1       6.043   3.466  15.791  0.00  0.00    +0.000 A 
ATOM      6  C   UNL     1       5.141   4.290  16.490  0.00  0.00    +0.000 A 
ENDROOT
BRANCH   1   9
ATOM      7  O   UNL     1       4.780   6.253  18.869  0.00  0.00    +0.000 OA
ATOM      8  C   UNL     1       3.988   6.697  18.042  0.00  0.00    +0.000 C 
ATOM      9  N   UNL     1       4.037   6.500  16.667  0.00  0.00    +0.000 N 
ATOM     10  H   UNL     1       3.433   7.064  16.091  0.00  0.00    +0.000 HD
BRANCH   8  11
ATOM     11  C   UNL     1       2.910   7.591  18.548  0.00  0.00    +0.000 A 
ATOM     12  C   UNL     1       2.368   7.319  19.816  0.00  0.00    +0.000 A 
ATOM     13  C   UNL     1       1.354   8.121  20.342  0.00  0.00    +0.000 A 
ATOM     14  C   UNL     1       0.876   9.188  19.591  0.00  0.00    +0.000 A 
ATOM     15  C   UNL     1       1.383   9.452  18.321  0.00  0.00    +0.000 A 
ATOM     16  C   UNL     1       2.395   8.649  17.791  0.00  0.00    +0.000 A 
BRANCH  14  17
ATOM     17  O   UNL     1      -0.109  10.002  20.061  0.00  0.00    +0.000 OA
ATOM     18  H   UNL     1      -0.807  10.070  19.389  0.00  0.00    +0.000 HD
ENDBRANCH  14  17
ENDBRANCH   8  11
ENDBRANCH   1   9
BRANCH   6  19
ATOM     19  N   UNL     1       4.438   3.787  17.631  0.00  0.00    +0.000 N 
ATOM     20  C   UNL     1       3.104   3.380  17.624  0.00  0.00    +0.000 C 
ATOM     21  O   UNL     1       2.400   3.248  16.627  0.00  0.00    +0.000 OA
ATOM     22  H   UNL     1       4.931   3.797  18.509  0.00  0.00    +0.000 HD
BRANCH  20  23
ATOM     23  C   UNL     1       2.455   3.053  18.926  0.00  0.00    +0.000 A 
ATOM     24  C   UNL     1       3.305   2.750  20.008  0.00  0.00    +0.000 A 
ATOM     25  C   UNL     1       2.792   2.541  21.290  0.00  0.00    +0.000 A 
ATOM     26  C   UNL     1       1.423   2.634  21.490  0.00  0.00    +0.000 A 
ATOM     27  C   UNL     1       0.563   2.909  20.428  0.00  0.00    +0.000 A 
ATOM     28  C   UNL     1       1.075   3.123  19.142  0.00  0.00    +0.000 A 
BRANCH  26  29
ATOM     29  O   UNL     1       0.878   2.485  22.730  0.00  0.00    +0.000 OA
ATOM     30  H   UNL     1       0.647   3.364  23.076  0.00  0.00    +0.000 HD
ENDBRANCH  26  29
ENDBRANCH  20  23
ENDBRANCH   6  19
TORSDOF 6
ENDMDL
MODEL 7
REMARK VINA RESULT:      -7.3      3.798      6.998
REMARK  Name = 
REMARK  6 active torsions:
REMARK  status: ('A' for Active; 'I' for Inactive)
REMARK    1  A    between atoms: C_2  and  C_20
REMARK    2  A    between atoms: N_3  and  C_4
REMARK    3  A    between atoms: C_9  and  N_10
REMARK    4  A    between atoms: C_11  and  C_13
REMARK    5  A    between atoms: C_16  and  O_17
REMARK    6  A    between atoms: C_23  and  O_24
REMARK                            x       y       z     vdW  Elec       q    Type
REMARK                         _______ _______ _______ _____ _____    ______ ____
ROOT
ATOM      1  C   UNL     1       3.375   3.803  19.635  0.00  0.00    +0.000 A 
ATOM      2  C   UNL     1       3.336   2.446  20.015  0.00  0.00    +0.000 A 
ATOM      3  C   UNL     1       2.555   2.004  21.082  0.00  0.00    +0.000 A 
ATOM      4  C   UNL     1       1.795   2.914  21.792  0.00  0.00    +0.000 A 
ATOM      5  C   UNL     1       1.828   4.262  21.444  0.00  0.00    +0.000 A 
ATOM      6  C   UNL     1       2.615   4.742  20.380  0.00  0.00    +0.000 A 
ENDROOT
BRANCH   1   9
ATOM      7  O   UNL     1       3.038   3.427  16.721  0.00  0.00    +0.000 OA
ATOM      8  C   UNL     1       4.035   3.937  17.224  0.00  0.00    +0.000 C 
ATOM      9  N   UNL     1       4.225   4.221  18.571  0.00  0.00    +0.000 N 
ATOM     10  H   UNL     1       5.011   4.799  18.822  0.00  0.00    +0.000 HD
BRANCH   8  11
ATOM     11  C   UNL     1       5.121   4.359  16.295  0.00  0.00    +0.000 A 
ATOM     12  C   UNL     1       6.136   5.189  16.801  0.00  0.00    +0.000 A 
ATOM     13  C   UNL     1       7.179   5.617  15.978  0.00  0.00    +0.000 A 
ATOM     14  C   UNL     1       7.196   5.221  14.646  0.00  0.00    +0.000 A 
ATOM     15  C   UNL     1       6.183   4.422  14.124  0.00  0.00    +0.000 A 
ATOM     16  C   UNL     1       5.136   3.996  14.944  0.00  0.00    +0.000 A 
BRANCH  14  17
ATOM     17  O   UNL     1       8.195   5.609  13.804  0.00  0.00    +0.000 OA
ATOM     18  H   UNL     1       9.033   5.232  14.119  0.00  0.00    +0.000 HD
ENDBRANCH  14  17
ENDBRANCH   8  11
ENDBRANCH   1   9
BRANCH   6  19
ATOM     19  N   UNL     1       2.584   6.129  20.028  0.00  0.00    +0.000 N 
ATOM     20  C   UNL     1       1.631   7.041  20.478  0.00  0.00    +0.000 C 
ATOM     21  O   UNL     1       0.792   6.829  21.350  0.00  0.00    +0.000 OA
ATOM     22  H   UNL     1       3.263   6.440  19.351  0.00  0.00    +0.000 HD
BRANCH  20  23
ATOM     23  C   UNL     1       1.618   8.409  19.882  0.00  0.00    +0.000 A 
ATOM     24  C   UNL     1       2.074   8.533  18.556  0.00  0.00    +0.000 A 
ATOM     25  C   UNL     1       1.994   9.752  17.878  0.00  0.00    +0.000 A 
ATOM     26  C   UNL     1       1.456  10.849  18.531  0.00  0.00    +0.000 A 
ATOM     27  C   UNL     1       1.020  10.753  19.852  0.00  0.00    +0.000 A 
ATOM     28  C   UNL     1       1.096   9.531  20.532  0.00  0.00    +0.000 A 
BRANCH  26  29
ATOM     29  O   UNL     1       1.312  12.048  17.898  0.00  0.00    +0.000 OA
ATOM     30  H   UNL     1       2.181  12.328  17.562  0.00  0.00    +0.000 HD
ENDBRANCH  26  29
ENDBRANCH  20  23
ENDBRANCH   6  19
TORSDOF 6
ENDMDL
MODEL 8
REMARK VINA RESULT:      -7.3      0.253      1.363
REMARK  Name = 
REMARK  6 active torsions:
REMARK  status: ('A' for Active; 'I' for Inactive)
REMARK    1  A    between atoms: C_2  and  C_20
REMARK    2  A    between atoms: N_3  and  C_4
REMARK    3  A    between atoms: C_9  and  N_10
REMARK    4  A    between atoms: C_11  and  C_13
REMARK    5  A    between atoms: C_16  and  O_17
REMARK    6  A    between atoms: C_23  and  O_24
REMARK                            x       y       z     vdW  Elec       q    Type
REMARK                         _______ _______ _______ _____ _____    ______ ____
ROOT
ATOM      1  C   UNL     1       5.060   5.960  16.929  0.00  0.00    +0.000 A 
ATOM      2  C   UNL     1       4.501   4.700  16.636  0.00  0.00    +0.000 A 
ATOM      3  C   UNL     1       5.235   3.702  15.994  0.00  0.00    +0.000 A 
ATOM      4  C   UNL     1       6.545   3.947  15.633  0.00  0.00    +0.000 A 
ATOM      5  C   UNL     1       7.115   5.190  15.899  0.00  0.00    +0.000 A 
ATOM      6  C   UNL     1       6.399   6.222  16.535  0.00  0.00    +0.000 A 
ENDROOT
BRANCH   1   9
ATOM      7  O   UNL     1       2.696   5.661  18.680  0.00  0.00    +0.000 OA
ATOM      8  C   UNL     1       3.113   6.748  18.291  0.00  0.00    +0.000 C 
ATOM      9  N   UNL     1       4.262   6.969  17.540  0.00  0.00    +0.000 N 
ATOM     10  H   UNL     1       4.581   7.919  17.441  0.00  0.00    +0.000 HD
BRANCH   8  11
ATOM     11  C   UNL     1       2.357   7.957  18.722  0.00  0.00    +0.000 A 
ATOM     12  C   UNL     1       2.254   9.028  17.818  0.00  0.00    +0.000 A 
ATOM     13  C   UNL     1       1.559  10.187  18.166  0.00  0.00    +0.000 A 
ATOM     14  C   UNL     1       0.979  10.276  19.425  0.00  0.00    +0.000 A 
ATOM     15  C   UNL     1       1.097   9.235  20.342  0.00  0.00    +0.000 A 
ATOM     16  C   UNL     1       1.795   8.075  19.998  0.00  0.00    +0.000 A 
BRANCH  14  17
ATOM     17  O   UNL     1       0.287  11.384  19.811  0.00  0.00    +0.000 OA
ATOM     18  H   UNL     1       0.075  11.308  20.756  0.00  0.00    +0.000 HD
ENDBRANCH  14  17
ENDBRANCH   8  11
ENDBRANCH   1   9
BRANCH   6  19
ATOM     19  N   UNL     1       7.037   7.468  16.831  0.00  0.00    +0.000 N 
ATOM     20  C   UNL     1       7.862   7.694  17.932  0.00  0.00    +0.000 C 
ATOM     21  O   UNL     1       8.281   6.835  18.702  0.00  0.00    +0.000 OA
ATOM     22  H   UNL     1       6.810   8.247  16.234  0.00  0.00    +0.000 HD
BRANCH  20  23
ATOM     23  C   UNL     1       8.308   9.090  18.211  0.00  0.00    +0.000 A 
ATOM     24  C   UNL     1       7.796  10.104  17.379  0.00  0.00    +0.000 A 
ATOM     25  C   UNL     1       8.068  11.450  17.633  0.00  0.00    +0.000 A 
ATOM     26  C   UNL     1       8.855  11.782  18.724  0.00  0.00    +0.000 A 
ATOM     27  C   UNL     1       9.391  10.792  19.547  0.00  0.00    +0.000 A 
ATOM     28  C   UNL     1       9.117   9.442  19.296  0.00  0.00    +0.000 A 
BRANCH  26  29
ATOM     29  O   UNL     1       9.111  13.083  19.043  0.00  0.00    +0.000 OA
ATOM     30  H   UNL     1      10.013  13.303  18.753  0.00  0.00    +0.000 HD
ENDBRANCH  26  29
ENDBRANCH  20  23
ENDBRANCH   6  19
TORSDOF 6
ENDMDL
MODEL 9
REMARK VINA RESULT:      -7.2      3.700      5.714
REMARK  Name = 
REMARK  6 active torsions:
REMARK  status: ('A' for Active; 'I' for Inactive)
REMARK    1  A    between atoms: C_2  and  C_20
REMARK    2  A    between atoms: N_3  and  C_4
REMARK    3  A    between atoms: C_9  and  N_10
REMARK    4  A    between atoms: C_11  and  C_13
REMARK    5  A    between atoms: C_16  and  O_17
REMARK    6  A    between atoms: C_23  and  O_24
REMARK                            x       y       z     vdW  Elec       q    Type
REMARK                         _______ _______ _______ _____ _____    ______ ____
ROOT
ATOM      1  C   UNL     1       5.126   4.370  16.558  0.00  0.00    +0.000 A 
ATOM      2  C   UNL     1       6.047   3.511  15.926  0.00  0.00    +0.000 A 
ATOM      3  C   UNL     1       6.747   3.895  14.783  0.00  0.00    +0.000 A 
ATOM      4  C   UNL     1       6.538   5.152  14.249  0.00  0.00    +0.000 A 
ATOM      5  C   UNL     1       5.622   6.014  14.847  0.00  0.00    +0.000 A 
ATOM      6  C   UNL     1       4.891   5.652  15.994  0.00  0.00    +0.000 A 
ENDROOT
BRANCH   1   9
ATOM      7  O   UNL     1       2.395   3.243  16.689  0.00  0.00    +0.000 OA
ATOM      8  C   UNL     1       3.078   3.472  17.683  0.00  0.00    +0.000 C 
ATOM      9  N   UNL     1       4.394   3.920  17.694  0.00  0.00    +0.000 N 
ATOM     10  H   UNL     1       4.889   3.897  18.570  0.00  0.00    +0.000 HD
BRANCH   8  11
ATOM     11  C   UNL     1       2.464   3.178  19.008  0.00  0.00    +0.000 A 
ATOM     12  C   UNL     1       3.320   2.835  20.070  0.00  0.00    +0.000 A 
ATOM     13  C   UNL     1       2.802   2.548  21.334  0.00  0.00    +0.000 A 
ATOM     14  C   UNL     1       1.428   2.593  21.529  0.00  0.00    +0.000 A 
ATOM     15  C   UNL     1       0.566   2.902  20.480  0.00  0.00    +0.000 A 
ATOM     16  C   UNL     1       1.080   3.186  19.213  0.00  0.00    +0.000 A 
BRANCH  14  17
ATOM     17  O   UNL     1       0.875   2.324  22.744  0.00  0.00    +0.000 OA
ATOM     18  H   UNL     1       0.184   1.650  22.632  0.00  0.00    +0.000 HD
ENDBRANCH  14  17
ENDBRANCH   8  11
ENDBRANCH   1   9
BRANCH   6  19
ATOM     19  N   UNL     1       3.994   6.586  16.604  0.00  0.00    +0.000 N 
ATOM     20  C   UNL     1       3.929   6.846  17.971  0.00  0.00    +0.000 C 
ATOM     21  O   UNL     1       4.722   6.440  18.817  0.00  0.00    +0.000 OA
ATOM     22  H   UNL     1       3.320   7.028  15.999  0.00  0.00    +0.000 HD
BRANCH  20  23
ATOM     23  C   UNL     1       2.822   7.706  18.480  0.00  0.00    +0.000 A 
ATOM     24  C   UNL     1       2.317   7.410  19.761  0.00  0.00    +0.000 A 
ATOM     25  C   UNL     1       1.358   8.227  20.364  0.00  0.00    +0.000 A 
ATOM     26  C   UNL     1       0.904   9.345  19.682  0.00  0.00    +0.000 A 
ATOM     27  C   UNL     1       1.374   9.643  18.404  0.00  0.00    +0.000 A 
ATOM     28  C   UNL     1       2.337   8.827  17.798  0.00  0.00    +0.000 A 
BRANCH  26  29
ATOM     29  O   UNL     1       0.005  10.200  20.247  0.00  0.00    +0.000 OA
ATOM     30  H   UNL     1      -0.170  10.925  19.622  0.00  0.00    +0.000 HD
ENDBRANCH  26  29
ENDBRANCH  20  23
ENDBRANCH   6  19
TORSDOF 6
ENDMDL
