MODEL 1
REMARK VINA RESULT:      -9.2      0.000      0.000
REMARK  Name = 
REMARK  15 active torsions:
REMARK  status: ('A' for Active; 'I' for Inactive)
REMARK    1  A    between atoms: C_1  and  C_2
REMARK    2  A    between atoms: C_2  and  C_3
REMARK    3  A    between atoms: C_2  and  C_4
REMARK    4  A    between atoms: C_6  and  O_7
REMARK    5  A    between atoms: C_8  and  C_9
REMARK    6  A    between atoms: C_9  and  C_11
REMARK    7  A    between atoms: C_11  and  C_12
REMARK    8  A    between atoms: C_12  and  C_13
REMARK    9  A    between atoms: C_22  and  O_23
REMARK   10  A    between atoms: O_23  and  C_24
REMARK   11  A    between atoms: C_26  and  C_27
REMARK   12  A    between atoms: C_27  and  O_28
REMARK   13  A    between atoms: C_29  and  O_30
REMARK   14  A    between atoms: C_31  and  O_32
REMARK   15  A    between atoms: C_33  and  O_34
REMARK                            x       y       z     vdW  Elec       q    Type
REMARK                         _______ _______ _______ _____ _____    ______ ____
ROOT
ATOM      1  C   UNL     1       6.196   4.124  14.186  0.00  0.00    +0.000 A 
ATOM      2  C   UNL     1       6.932   5.119  14.828  0.00  0.00    +0.000 A 
ATOM      3  C   UNL     1       6.679   5.443  16.165  0.00  0.00    +0.000 A 
ATOM      4  C   UNL     1       5.644   4.837  16.900  0.00  0.00    +0.000 A 
ATOM      5  C   UNL     1       4.880   3.847  16.252  0.00  0.00    +0.000 A 
ATOM      6  C   UNL     1       5.169   3.499  14.912  0.00  0.00    +0.000 A 
ENDROOT
BRANCH   1   8
ATOM      7  C   UNL     1       5.169   3.404  12.036  0.00  0.00    +0.000 C 
ATOM      8  C   UNL     1       6.485   3.720  12.748  0.00  0.00    +0.000 C 
ATOM      9  C   UNL     1       7.275   4.758  11.934  0.00  0.00    +0.000 C 
ENDBRANCH   1   8
BRANCH   3  10
ATOM     10  O   UNL     1       7.554   6.318  16.749  0.00  0.00    +0.000 OA
ATOM     11  H   UNL     1       7.289   7.235  16.574  0.00  0.00    +0.000 HD
ENDBRANCH   3  10
BRANCH   4  12
ATOM     12  C   UNL     1       5.467   5.140  18.356  0.00  0.00    +0.000 C 
ATOM     13  O   UNL     1       6.321   4.775  19.163  0.00  0.00    +0.000 OA
BRANCH  12  14
ATOM     14  C   UNL     1       4.207   5.834  18.858  0.00  0.00    +0.000 C 
BRANCH  14  15
ATOM     15  C   UNL     1       3.663   6.792  17.798  0.00  0.00    +0.000 C 
BRANCH  15  16
ATOM     16  C   UNL     1       2.685   7.774  18.399  0.00  0.00    +0.000 A 
ATOM     17  C   UNL     1       2.226   8.863  17.640  0.00  0.00    +0.000 A 
ATOM     18  C   UNL     1       1.304   9.780  18.157  0.00  0.00    +0.000 A 
ATOM     19  C   UNL     1       0.867   9.551  19.458  0.00  0.00    +0.000 A 
ATOM     20  O   UNL     1      -0.020  10.325  20.143  0.00  0.00    +0.000 OA
ATOM     21  C   UNL     1      -0.175   9.757  21.369  0.00  0.00    +0.000 A 
ATOM     22  C   UNL     1       0.599   8.623  21.480  0.00  0.00    +0.000 A 
ATOM     23  C   UNL     1       1.283   8.483  20.245  0.00  0.00    +0.000 A 
ATOM     24  C   UNL     1       2.204   7.568  19.707  0.00  0.00    +0.000 A 
ENDBRANCH  15  16
ENDBRANCH  14  15
ENDBRANCH  12  14
ENDBRANCH   4  12
BRANCH   5  25
ATOM     25  O   UNL     1       4.041   2.959  16.862  0.00  0.00    +0.000 OA
BRANCH  25  26
ATOM     26  C   UNL     1       3.577   3.132  18.215  0.00  0.00    +0.000 C 
ATOM     27  O   UNL     1       4.146   2.268  19.211  0.00  0.00    +0.000 OA
ATOM     28  C   UNL     1       3.604   2.519  20.524  0.00  0.00    +0.000 C 
ATOM     29  C   UNL     1       2.095   2.237  20.557  0.00  0.00    +0.000 C 
ATOM     30  C   UNL     1       1.396   3.141  19.537  0.00  0.00    +0.000 C 
ATOM     31  C   UNL     1       2.023   3.053  18.150  0.00  0.00    +0.000 C 
BRANCH  29  32
ATOM     32  O   UNL     1       1.597   2.500  21.877  0.00  0.00    +0.000 OA
ATOM     33  H   UNL     1       1.799   1.734  22.445  0.00  0.00    +0.000 HD
ENDBRANCH  29  32
BRANCH  30  34
ATOM     34  O   UNL     1      -0.005   2.819  19.502  0.00  0.00    +0.000 OA
ATOM     35  H   UNL     1      -0.506   3.658  19.534  0.00  0.00    +0.000 HD
ENDBRANCH  30  34
BRANCH  31  36
ATOM     36  O   UNL     1       1.480   4.085  17.300  0.00  0.00    +0.000 OA
ATOM     37  H   UNL     1       0.655   4.420  17.689  0.00  0.00    +0.000 HD
ENDBRANCH  31  36
BRANCH  28  38
ATOM     38  C   UNL     1       4.351   1.649  21.549  0.00  0.00    +0.000 C 
BRANCH  38  39
ATOM     39  O   UNL     1       5.532   1.099  20.975  0.00  0.00    +0.000 OA
ATOM     40  H   UNL     1       5.349   1.087  20.019  0.00  0.00    +0.000 HD
ENDBRANCH  38  39
ENDBRANCH  28  38
ENDBRANCH  25  26
ENDBRANCH   5  25
TORSDOF 13
ENDMDL
MODEL 2
REMARK VINA RESULT:      -8.8      0.869      1.515
REMARK  Name = 
REMARK  15 active torsions:
REMARK  status: ('A' for Active; 'I' for Inactive)
REMARK    1  A    between atoms: C_1  and  C_2
REMARK    2  A    between atoms: C_2  and  C_3
REMARK    3  A    between atoms: C_2  and  C_4
REMARK    4  A    between atoms: C_6  and  O_7
REMARK    5  A    between atoms: C_8  and  C_9
REMARK    6  A    between atoms: C_9  and  C_11
REMARK    7  A    between atoms: C_11  and  C_12
REMARK    8  A    between atoms: C_12  and  C_13
REMARK    9  A    between atoms: C_22  and  O_23
REMARK   10  A    between atoms: O_23  and  C_24
REMARK   11  A    between atoms: C_26  and  C_27
REMARK   12  A    between atoms: C_27  and  O_28
REMARK   13  A    between atoms: C_29  and  O_30
REMARK   14  A    between atoms: C_31  and  O_32
REMARK   15  A    between atoms: C_33  and  O_34
REMARK                            x       y       z     vdW  Elec       q    Type
REMARK                         _______ _______ _______ _____ _____    ______ ____
ROOT
ATOM      1  C   UNL     1       6.279   4.547  14.441  0.00  0.00    +0.000 A 
ATOM      2  C   UNL     1       6.793   5.668  15.091  0.00  0.00    +0.000 A 
ATOM      3  C   UNL     1       6.222   6.126  16.284  0.00  0.00    +0.000 A 
ATOM      4  C   UNL     1       5.080   5.527  16.845  0.00  0.00    +0.000 A 
ATOM      5  C   UNL     1       4.540   4.408  16.183  0.00  0.00    +0.000 A 
ATOM      6  C   UNL     1       5.148   3.929  14.999  0.00  0.00    +0.000 A 
ENDROOT
BRANCH   1   8
ATOM      7  C   UNL     1       5.840   3.313  12.325  0.00  0.00    +0.000 C 
ATOM      8  C   UNL     1       6.912   4.000  13.171  0.00  0.00    +0.000 C 
ATOM      9  C   UNL     1       7.650   5.047  12.318  0.00  0.00    +0.000 C 
ENDBRANCH   1   8
BRANCH   3  10
ATOM     10  O   UNL     1       6.891   7.133  16.924  0.00  0.00    +0.000 OA
ATOM     11  H   UNL     1       6.296   7.614  17.520  0.00  0.00    +0.000 HD
ENDBRANCH   3  10
BRANCH   4  12
ATOM     12  C   UNL     1       4.556   5.985  18.172  0.00  0.00    +0.000 C 
ATOM     13  O   UNL     1       5.140   5.657  19.204  0.00  0.00    +0.000 OA
BRANCH  12  14
ATOM     14  C   UNL     1       3.267   6.794  18.262  0.00  0.00    +0.000 C 
BRANCH  14  15
ATOM     15  C   UNL     1       2.657   6.678  19.658  0.00  0.00    +0.000 C 
BRANCH  15  16
ATOM     16  C   UNL     1       1.762   7.856  19.962  0.00  0.00    +0.000 A 
ATOM     17  C   UNL     1       1.154   7.971  21.223  0.00  0.00    +0.000 A 
ATOM     18  C   UNL     1       0.337   9.059  21.548  0.00  0.00    +0.000 A 
ATOM     19  C   UNL     1       0.162  10.018  20.554  0.00  0.00    +0.000 A 
ATOM     20  O   UNL     1      -0.596  11.145  20.667  0.00  0.00    +0.000 OA
ATOM     21  C   UNL     1      -0.498  11.806  19.483  0.00  0.00    +0.000 A 
ATOM     22  C   UNL     1       0.319  11.120  18.611  0.00  0.00    +0.000 A 
ATOM     23  C   UNL     1       0.749   9.956  19.296  0.00  0.00    +0.000 A 
ATOM     24  C   UNL     1       1.573   8.859  18.991  0.00  0.00    +0.000 A 
ENDBRANCH  15  16
ENDBRANCH  14  15
ENDBRANCH  12  14
ENDBRANCH   4  12
BRANCH   5  25
ATOM     25  O   UNL     1       3.631   3.532  16.705  0.00  0.00    +0.000 OA
BRANCH  25  26
ATOM     26  C   UNL     1       3.277   3.521  18.102  0.00  0.00    +0.000 C 
ATOM     27  O   UNL     1       4.003   2.616  18.947  0.00  0.00    +0.000 OA
ATOM     28  C   UNL     1       3.562   2.678  20.319  0.00  0.00    +0.000 C 
ATOM     29  C   UNL     1       2.090   2.254  20.440  0.00  0.00    +0.000 C 
ATOM     30  C   UNL     1       1.230   3.188  19.586  0.00  0.00    +0.000 C 
ATOM     31  C   UNL     1       1.736   3.303  18.152  0.00  0.00    +0.000 C 
BRANCH  29  32
ATOM     32  O   UNL     1       1.692   2.331  21.817  0.00  0.00    +0.000 OA
ATOM     33  H   UNL     1       2.221   3.022  22.256  0.00  0.00    +0.000 HD
ENDBRANCH  29  32
BRANCH  30  34
ATOM     34  O   UNL     1      -0.137   2.742  19.627  0.00  0.00    +0.000 OA
ATOM     35  H   UNL     1      -0.147   1.789  19.411  0.00  0.00    +0.000 HD
ENDBRANCH  30  34
BRANCH  31  36
ATOM     36  O   UNL     1       1.033   4.362  17.467  0.00  0.00    +0.000 OA
ATOM     37  H   UNL     1       1.560   4.658  16.706  0.00  0.00    +0.000 HD
ENDBRANCH  31  36
BRANCH  28  38
ATOM     38  C   UNL     1       4.469   1.781  21.178  0.00  0.00    +0.000 C 
BRANCH  38  39
ATOM     39  O   UNL     1       5.450   1.140  20.371  0.00  0.00    +0.000 OA
ATOM     40  H   UNL     1       6.215   1.035  20.964  0.00  0.00    +0.000 HD
ENDBRANCH  38  39
ENDBRANCH  28  38
ENDBRANCH  25  26
ENDBRANCH   5  25
TORSDOF 13
ENDMDL
MODEL 3
REMARK VINA RESULT:      -8.8      0.731      1.259
REMARK  Name = 
REMARK  15 active torsions:
REMARK  status: ('A' for Active; 'I' for Inactive)
REMARK    1  A    between atoms: C_1  and  C_2
REMARK    2  A    between atoms: C_2  and  C_3
REMARK    3  A    between atoms: C_2  and  C_4
REMARK    4  A    between atoms: C_6  and  O_7
REMARK    5  A    between atoms: C_8  and  C_9
REMARK    6  A    between atoms: C_9  and  C_11
REMARK    7  A    between atoms: C_11  and  C_12
REMARK    8  A    between atoms: C_12  and  C_13
REMARK    9  A    between atoms: C_22  and  O_23
REMARK   10  A    between atoms: O_23  and  C_24
REMARK   11  A    between atoms: C_26  and  C_27
REMARK   12  A    between atoms: C_27  and  O_28
REMARK   13  A    between atoms: C_29  and  O_30
REMARK   14  A    between atoms: C_31  and  O_32
REMARK   15  A    between atoms: C_33  and  O_34
REMARK                            x       y       z     vdW  Elec       q    Type
REMARK                         _______ _______ _______ _____ _____    ______ ____
ROOT
ATOM      1  C   UNL     1       6.214   3.989  14.017  0.00  0.00    +0.000 A 
ATOM      2  C   UNL     1       6.917   5.069  14.547  0.00  0.00    +0.000 A 
ATOM      3  C   UNL     1       6.827   5.381  15.908  0.00  0.00    +0.000 A 
ATOM      4  C   UNL     1       5.985   4.672  16.784  0.00  0.00    +0.000 A 
ATOM      5  C   UNL     1       5.253   3.593  16.253  0.00  0.00    +0.000 A 
ATOM      6  C   UNL     1       5.381   3.261  14.884  0.00  0.00    +0.000 A 
ENDROOT
BRANCH   1   8
ATOM      7  C   UNL     1       4.942   3.565  11.919  0.00  0.00    +0.000 C 
ATOM      8  C   UNL     1       6.334   3.599  12.552  0.00  0.00    +0.000 C 
ATOM      9  C   UNL     1       7.256   4.506  11.718  0.00  0.00    +0.000 C 
ENDBRANCH   1   8
BRANCH   3  10
ATOM     10  O   UNL     1       7.672   6.357  16.359  0.00  0.00    +0.000 OA
ATOM     11  H   UNL     1       8.595   6.127  16.165  0.00  0.00    +0.000 HD
ENDBRANCH   3  10
BRANCH   4  12
ATOM     12  C   UNL     1       5.989   4.973  18.252  0.00  0.00    +0.000 C 
ATOM     13  O   UNL     1       6.938   4.612  18.946  0.00  0.00    +0.000 OA
BRANCH  12  14
ATOM     14  C   UNL     1       4.798   5.662  18.907  0.00  0.00    +0.000 C 
BRANCH  14  15
ATOM     15  C   UNL     1       3.965   6.404  17.861  0.00  0.00    +0.000 C 
BRANCH  15  16
ATOM     16  C   UNL     1       2.931   7.290  18.516  0.00  0.00    +0.000 A 
ATOM     17  C   UNL     1       2.476   6.999  19.813  0.00  0.00    +0.000 A 
ATOM     18  C   UNL     1       1.536   7.810  20.458  0.00  0.00    +0.000 A 
ATOM     19  C   UNL     1       1.082   8.917  19.747  0.00  0.00    +0.000 A 
ATOM     20  O   UNL     1       0.167   9.823  20.193  0.00  0.00    +0.000 OA
ATOM     21  C   UNL     1       0.005  10.739  19.202  0.00  0.00    +0.000 A 
ATOM     22  C   UNL     1       0.809  10.437  18.125  0.00  0.00    +0.000 A 
ATOM     23  C   UNL     1       1.509   9.252  18.468  0.00  0.00    +0.000 A 
ATOM     24  C   UNL     1       2.459   8.430  17.838  0.00  0.00    +0.000 A 
ENDBRANCH  15  16
ENDBRANCH  14  15
ENDBRANCH  12  14
ENDBRANCH   4  12
BRANCH   5  25
ATOM     25  O   UNL     1       4.618   2.625  16.977  0.00  0.00    +0.000 OA
BRANCH  25  26
ATOM     26  C   UNL     1       3.813   2.923  18.134  0.00  0.00    +0.000 C 
ATOM     27  O   UNL     1       4.140   2.228  19.347  0.00  0.00    +0.000 OA
ATOM     28  C   UNL     1       3.267   2.593  20.437  0.00  0.00    +0.000 C 
ATOM     29  C   UNL     1       1.813   2.204  20.126  0.00  0.00    +0.000 C 
ATOM     30  C   UNL     1       1.366   2.926  18.852  0.00  0.00    +0.000 C 
ATOM     31  C   UNL     1       2.333   2.720  17.692  0.00  0.00    +0.000 C 
BRANCH  29  32
ATOM     32  O   UNL     1       0.980   2.585  21.231  0.00  0.00    +0.000 OA
ATOM     33  H   UNL     1       0.107   2.164  21.123  0.00  0.00    +0.000 HD
ENDBRANCH  29  32
BRANCH  30  34
ATOM     34  O   UNL     1       0.036   2.498  18.510  0.00  0.00    +0.000 OA
ATOM     35  H   UNL     1      -0.404   2.200  19.330  0.00  0.00    +0.000 HD
ENDBRANCH  30  34
BRANCH  31  36
ATOM     36  O   UNL     1       1.986   3.600  16.602  0.00  0.00    +0.000 OA
ATOM     37  H   UNL     1       1.236   4.159  16.867  0.00  0.00    +0.000 HD
ENDBRANCH  31  36
BRANCH  28  38
ATOM     38  C   UNL     1       3.759   1.910  21.723  0.00  0.00    +0.000 C 
BRANCH  38  39
ATOM     39  O   UNL     1       5.128   1.539  21.603  0.00  0.00    +0.000 OA
ATOM     40  H   UNL     1       5.468   1.581  22.514  0.00  0.00    +0.000 HD
ENDBRANCH  38  39
ENDBRANCH  28  38
ENDBRANCH  25  26
ENDBRANCH   5  25
TORSDOF 13
ENDMDL
MODEL 4
REMARK VINA RESULT:      -8.6      0.887      1.095
REMARK  Name = 
REMARK  15 active torsions:
REMARK  status: ('A' for Active; 'I' for Inactive)
REMARK    1  A    between atoms: C_1  and  C_2
REMARK    2  A    between atoms: C_2  and  C_3
REMARK    3  A    between atoms: C_2  and  C_4
REMARK    4  A    between atoms: C_6  and  O_7
REMARK    5  A    between atoms: C_8  and  C_9
REMARK    6  A    between atoms: C_9  and  C_11
REMARK    7  A    between atoms: C_11  and  C_12
REMARK    8  A    between atoms: C_12  and  C_13
REMARK    9  A    between atoms: C_22  and  O_23
REMARK   10  A    between atoms: O_23  and  C_24
REMARK   11  A    between atoms: C_26  and  C_27
REMARK   12  A    between atoms: C_27  and  O_28
REMARK   13  A    between atoms: C_29  and  O_30
REMARK   14  A    between atoms: C_31  and  O_32
REMARK   15  A    between atoms: C_33  and  O_34
REMARK                            x       y       z     vdW  Elec       q    Type
REMARK                         _______ _______ _______ _____ _____    ______ ____
ROOT
ATOM      1  C   UNL     1       6.343   4.708  14.549  0.00  0.00    +0.000 A 
ATOM      2  C   UNL     1       6.723   5.888  15.186  0.00  0.00    +0.000 A 
ATOM      3  C   UNL     1       6.035   6.344  16.316  0.00  0.00    +0.000 A 
ATOM      4  C   UNL     1       4.903   5.679  16.821  0.00  0.00    +0.000 A 
ATOM      5  C   UNL     1       4.498   4.498  16.171  0.00  0.00    +0.000 A 
ATOM      6  C   UNL     1       5.224   4.025  15.053  0.00  0.00    +0.000 A 
ENDROOT
BRANCH   1   8
ATOM      7  C   UNL     1       6.141   3.413  12.434  0.00  0.00    +0.000 C 
ATOM      8  C   UNL     1       7.105   4.167  13.350  0.00  0.00    +0.000 C 
ATOM      9  C   UNL     1       7.864   5.229  12.536  0.00  0.00    +0.000 C 
ENDBRANCH   1   8
BRANCH   3  10
ATOM     10  O   UNL     1       6.578   7.422  16.958  0.00  0.00    +0.000 OA
ATOM     11  H   UNL     1       5.907   8.107  17.106  0.00  0.00    +0.000 HD
ENDBRANCH   3  10
BRANCH   4  12
ATOM     12  C   UNL     1       4.252   6.142  18.089  0.00  0.00    +0.000 C 
ATOM     13  O   UNL     1       4.860   6.051  19.155  0.00  0.00    +0.000 OA
BRANCH  12  14
ATOM     14  C   UNL     1       2.819   6.662  18.082  0.00  0.00    +0.000 C 
BRANCH  14  15
ATOM     15  C   UNL     1       2.797   8.173  17.851  0.00  0.00    +0.000 C 
BRANCH  15  16
ATOM     16  C   UNL     1       1.827   8.854  18.787  0.00  0.00    +0.000 A 
ATOM     17  C   UNL     1       0.972   9.859  18.304  0.00  0.00    +0.000 A 
ATOM     18  C   UNL     1       0.045  10.495  19.137  0.00  0.00    +0.000 A 
ATOM     19  C   UNL     1       0.017  10.077  20.464  0.00  0.00    +0.000 A 
ATOM     20  O   UNL     1      -0.804  10.571  21.433  0.00  0.00    +0.000 OA
ATOM     21  C   UNL     1      -0.516   9.896  22.576  0.00  0.00    +0.000 A 
ATOM     22  C   UNL     1       0.478   8.968  22.355  0.00  0.00    +0.000 A 
ATOM     23  C   UNL     1       0.833   9.081  20.987  0.00  0.00    +0.000 A 
ATOM     24  C   UNL     1       1.753   8.447  20.133  0.00  0.00    +0.000 A 
ENDBRANCH  15  16
ENDBRANCH  14  15
ENDBRANCH  12  14
ENDBRANCH   4  12
BRANCH   5  25
ATOM     25  O   UNL     1       3.622   3.574  16.665  0.00  0.00    +0.000 OA
BRANCH  25  26
ATOM     26  C   UNL     1       3.247   3.525  18.056  0.00  0.00    +0.000 C 
ATOM     27  O   UNL     1       4.033   2.681  18.910  0.00  0.00    +0.000 OA
ATOM     28  C   UNL     1       3.565   2.699  20.275  0.00  0.00    +0.000 C 
ATOM     29  C   UNL     1       2.133   2.149  20.368  0.00  0.00    +0.000 C 
ATOM     30  C   UNL     1       1.210   3.011  19.503  0.00  0.00    +0.000 C 
ATOM     31  C   UNL     1       1.729   3.176  18.078  0.00  0.00    +0.000 C 
BRANCH  29  32
ATOM     32  O   UNL     1       1.706   2.185  21.738  0.00  0.00    +0.000 OA
ATOM     33  H   UNL     1       0.832   1.759  21.804  0.00  0.00    +0.000 HD
ENDBRANCH  29  32
BRANCH  30  34
ATOM     34  O   UNL     1      -0.113   2.449  19.519  0.00  0.00    +0.000 OA
ATOM     35  H   UNL     1      -0.508   2.637  20.393  0.00  0.00    +0.000 HD
ENDBRANCH  30  34
BRANCH  31  36
ATOM     36  O   UNL     1       0.950   4.175  17.386  0.00  0.00    +0.000 OA
ATOM     37  H   UNL     1       0.062   4.217  17.777  0.00  0.00    +0.000 HD
ENDBRANCH  31  36
BRANCH  28  38
ATOM     38  C   UNL     1       4.530   1.878  21.146  0.00  0.00    +0.000 C 
BRANCH  38  39
ATOM     39  O   UNL     1       5.398   1.094  20.334  0.00  0.00    +0.000 OA
ATOM     40  H   UNL     1       6.284   1.454  20.515  0.00  0.00    +0.000 HD
ENDBRANCH  38  39
ENDBRANCH  28  38
ENDBRANCH  25  26
ENDBRANCH   5  25
TORSDOF 13
ENDMDL
MODEL 5
REMARK VINA RESULT:      -8.5      1.148      2.515
REMARK  Name = 
REMARK  15 active torsions:
REMARK  status: ('A' for Active; 'I' for Inactive)
REMARK    1  A    between atoms: C_1  and  C_2
REMARK    2  A    between atoms: C_2  and  C_3
REMARK    3  A    between atoms: C_2  and  C_4
REMARK    4  A    between atoms: C_6  and  O_7
REMARK    5  A    between atoms: C_8  and  C_9
REMARK    6  A    between atoms: C_9  and  C_11
REMARK    7  A    between atoms: C_11  and  C_12
REMARK    8  A    between atoms: C_12  and  C_13
REMARK    9  A    between atoms: C_22  and  O_23
REMARK   10  A    between atoms: O_23  and  C_24
REMARK   11  A    between atoms: C_26  and  C_27
REMARK   12  A    between atoms: C_27  and  O_28
REMARK   13  A    between atoms: C_29  and  O_30
REMARK   14  A    between atoms: C_31  and  O_32
REMARK   15  A    between atoms: C_33  and  O_34
REMARK                            x       y       z     vdW  Elec       q    Type
REMARK                         _______ _______ _______ _____ _____    ______ ____
ROOT
ATOM      1  C   UNL     1       5.907   4.113  14.293  0.00  0.00    +0.000 A 
ATOM      2  C   UNL     1       5.851   5.491  14.497  0.00  0.00    +0.000 A 
ATOM      3  C   UNL     1       5.502   6.013  15.747  0.00  0.00    +0.000 A 
ATOM      4  C   UNL     1       5.134   5.190  16.826  0.00  0.00    +0.000 A 
ATOM      5  C   UNL     1       5.166   3.797  16.623  0.00  0.00    +0.000 A 
ATOM      6  C   UNL     1       5.557   3.278  15.367  0.00  0.00    +0.000 A 
ENDROOT
BRANCH   1   8
ATOM      7  C   UNL     1       5.092   3.240  12.109  0.00  0.00    +0.000 C 
ATOM      8  C   UNL     1       6.332   3.520  12.958  0.00  0.00    +0.000 C 
ATOM      9  C   UNL     1       7.320   4.385  12.155  0.00  0.00    +0.000 C 
ENDBRANCH   1   8
BRANCH   3  10
ATOM     10  O   UNL     1       5.627   7.368  15.889  0.00  0.00    +0.000 OA
ATOM     11  H   UNL     1       6.554   7.638  15.793  0.00  0.00    +0.000 HD
ENDBRANCH   3  10
BRANCH   4  12
ATOM     12  C   UNL     1       4.861   5.782  18.175  0.00  0.00    +0.000 C 
ATOM     13  O   UNL     1       5.771   5.871  18.998  0.00  0.00    +0.000 OA
BRANCH  12  14
ATOM     14  C   UNL     1       3.451   6.212  18.564  0.00  0.00    +0.000 C 
BRANCH  14  15
ATOM     15  C   UNL     1       3.090   7.538  17.895  0.00  0.00    +0.000 C 
BRANCH  15  16
ATOM     16  C   UNL     1       2.074   8.302  18.711  0.00  0.00    +0.000 A 
ATOM     17  C   UNL     1       1.889   7.996  20.070  0.00  0.00    +0.000 A 
ATOM     18  C   UNL     1       0.973   8.697  20.861  0.00  0.00    +0.000 A 
ATOM     19  C   UNL     1       0.260   9.712  20.230  0.00  0.00    +0.000 A 
ATOM     20  O   UNL     1      -0.678  10.504  20.819  0.00  0.00    +0.000 OA
ATOM     21  C   UNL     1      -1.128  11.360  19.864  0.00  0.00    +0.000 A 
ATOM     22  C   UNL     1      -0.486  11.132  18.667  0.00  0.00    +0.000 A 
ATOM     23  C   UNL     1       0.414  10.060  18.894  0.00  0.00    +0.000 A 
ATOM     24  C   UNL     1       1.345   9.349  18.116  0.00  0.00    +0.000 A 
ENDBRANCH  15  16
ENDBRANCH  14  15
ENDBRANCH  12  14
ENDBRANCH   4  12
BRANCH   5  25
ATOM     25  O   UNL     1       5.123   2.846  17.601  0.00  0.00    +0.000 OA
BRANCH  25  26
ATOM     26  C   UNL     1       3.904   2.482  18.278  0.00  0.00    +0.000 C 
ATOM     27  O   UNL     1       2.711   3.175  17.881  0.00  0.00    +0.000 OA
ATOM     28  C   UNL     1       1.555   2.741  18.628  0.00  0.00    +0.000 C 
ATOM     29  C   UNL     1       1.724   3.049  20.124  0.00  0.00    +0.000 C 
ATOM     30  C   UNL     1       2.968   2.324  20.645  0.00  0.00    +0.000 C 
ATOM     31  C   UNL     1       4.206   2.605  19.801  0.00  0.00    +0.000 C 
BRANCH  29  32
ATOM     32  O   UNL     1       0.556   2.603  20.829  0.00  0.00    +0.000 OA
ATOM     33  H   UNL     1       0.749   1.738  21.236  0.00  0.00    +0.000 HD
ENDBRANCH  29  32
BRANCH  30  34
ATOM     34  O   UNL     1       3.179   2.679  22.023  0.00  0.00    +0.000 OA
ATOM     35  H   UNL     1       2.307   2.871  22.420  0.00  0.00    +0.000 HD
ENDBRANCH  30  34
BRANCH  31  36
ATOM     36  O   UNL     1       5.279   1.724  20.196  0.00  0.00    +0.000 OA
ATOM     37  H   UNL     1       6.129   2.181  20.081  0.00  0.00    +0.000 HD
ENDBRANCH  31  36
BRANCH  28  38
ATOM     38  C   UNL     1       0.304   3.431  18.060  0.00  0.00    +0.000 C 
BRANCH  38  39
ATOM     39  O   UNL     1       0.663   4.379  17.061  0.00  0.00    +0.000 OA
ATOM     40  H   UNL     1       1.322   4.948  17.497  0.00  0.00    +0.000 HD
ENDBRANCH  38  39
ENDBRANCH  28  38
ENDBRANCH  25  26
ENDBRANCH   5  25
TORSDOF 13
ENDMDL
MODEL 6
REMARK VINA RESULT:      -8.4      0.903      1.347
REMARK  Name = 
REMARK  15 active torsions:
REMARK  status: ('A' for Active; 'I' for Inactive)
REMARK    1  A    between atoms: C_1  and  C_2
REMARK    2  A    between atoms: C_2  and  C_3
REMARK    3  A    between atoms: C_2  and  C_4
REMARK    4  A    between atoms: C_6  and  O_7
REMARK    5  A    between atoms: C_8  and  C_9
REMARK    6  A    between atoms: C_9  and  C_11
REMARK    7  A    between atoms: C_11  and  C_12
REMARK    8  A    between atoms: C_12  and  C_13
REMARK    9  A    between atoms: C_22  and  O_23
REMARK   10  A    between atoms: O_23  and  C_24
REMARK   11  A    between atoms: C_26  and  C_27
REMARK   12  A    between atoms: C_27  and  O_28
REMARK   13  A    between atoms: C_29  and  O_30
REMARK   14  A    between atoms: C_31  and  O_32
REMARK   15  A    between atoms: C_33  and  O_34
REMARK                            x       y       z     vdW  Elec       q    Type
REMARK                         _______ _______ _______ _____ _____    ______ ____
ROOT
ATOM      1  C   UNL     1       5.967   4.053  14.038  0.00  0.00    +0.000 A 
ATOM      2  C   UNL     1       6.882   4.967  14.558  0.00  0.00    +0.000 A 
ATOM      3  C   UNL     1       6.659   5.573  15.799  0.00  0.00    +0.000 A 
ATOM      4  C   UNL     1       5.489   5.344  16.545  0.00  0.00    +0.000 A 
ATOM      5  C   UNL     1       4.547   4.440  16.017  0.00  0.00    +0.000 A 
ATOM      6  C   UNL     1       4.800   3.803  14.779  0.00  0.00    +0.000 A 
ENDROOT
BRANCH   1   8
ATOM      7  C   UNL     1       4.896   3.258  11.936  0.00  0.00    +0.000 C 
ATOM      8  C   UNL     1       6.209   3.344  12.715  0.00  0.00    +0.000 C 
ATOM      9  C   UNL     1       7.292   3.987  11.829  0.00  0.00    +0.000 C 
ENDBRANCH   1   8
BRANCH   3  10
ATOM     10  O   UNL     1       7.686   6.331  16.291  0.00  0.00    +0.000 OA
ATOM     11  H   UNL     1       7.936   6.032  17.180  0.00  0.00    +0.000 HD
ENDBRANCH   3  10
BRANCH   4  12
ATOM     12  C   UNL     1       5.331   5.935  17.912  0.00  0.00    +0.000 C 
ATOM     13  O   UNL     1       5.648   5.276  18.902  0.00  0.00    +0.000 OA
BRANCH  12  14
ATOM     14  C   UNL     1       4.718   7.318  18.095  0.00  0.00    +0.000 C 
BRANCH  14  15
ATOM     15  C   UNL     1       3.321   7.372  17.477  0.00  0.00    +0.000 C 
BRANCH  15  16
ATOM     16  C   UNL     1       2.350   8.089  18.385  0.00  0.00    +0.000 A 
ATOM     17  C   UNL     1       2.226   7.699  19.729  0.00  0.00    +0.000 A 
ATOM     18  C   UNL     1       1.353   8.354  20.605  0.00  0.00    +0.000 A 
ATOM     19  C   UNL     1       0.619   9.410  20.072  0.00  0.00    +0.000 A 
ATOM     20  O   UNL     1      -0.284  10.169  20.752  0.00  0.00    +0.000 OA
ATOM     21  C   UNL     1      -0.771  11.085  19.873  0.00  0.00    +0.000 A 
ATOM     22  C   UNL     1      -0.188  10.928  18.636  0.00  0.00    +0.000 A 
ATOM     23  C   UNL     1       0.714   9.840  18.753  0.00  0.00    +0.000 A 
ATOM     24  C   UNL     1       1.602   9.174  17.890  0.00  0.00    +0.000 A 
ENDBRANCH  15  16
ENDBRANCH  14  15
ENDBRANCH  12  14
ENDBRANCH   4  12
BRANCH   5  25
ATOM     25  O   UNL     1       3.509   3.877  16.702  0.00  0.00    +0.000 OA
BRANCH  25  26
ATOM     26  C   UNL     1       3.542   3.667  18.127  0.00  0.00    +0.000 C 
ATOM     27  O   UNL     1       4.246   2.507  18.595  0.00  0.00    +0.000 OA
ATOM     28  C   UNL     1       4.207   2.388  20.033  0.00  0.00    +0.000 C 
ATOM     29  C   UNL     1       2.763   2.213  20.528  0.00  0.00    +0.000 C 
ATOM     30  C   UNL     1       1.937   3.428  20.095  0.00  0.00    +0.000 C 
ATOM     31  C   UNL     1       2.059   3.717  18.602  0.00  0.00    +0.000 C 
BRANCH  29  32
ATOM     32  O   UNL     1       2.768   2.101  21.959  0.00  0.00    +0.000 OA
ATOM     33  H   UNL     1       3.074   1.208  22.200  0.00  0.00    +0.000 HD
ENDBRANCH  29  32
BRANCH  30  34
ATOM     34  O   UNL     1       0.565   3.228  20.480  0.00  0.00    +0.000 OA
ATOM     35  H   UNL     1       0.552   2.588  21.218  0.00  0.00    +0.000 HD
ENDBRANCH  30  34
BRANCH  31  36
ATOM     36  O   UNL     1       1.454   4.992  18.299  0.00  0.00    +0.000 OA
ATOM     37  H   UNL     1       0.512   4.862  18.102  0.00  0.00    +0.000 HD
ENDBRANCH  31  36
BRANCH  28  38
ATOM     38  C   UNL     1       5.085   1.202  20.462  0.00  0.00    +0.000 C 
BRANCH  38  39
ATOM     39  O   UNL     1       5.555   1.380  21.794  0.00  0.00    +0.000 OA
ATOM     40  H   UNL     1       4.847   1.884  22.232  0.00  0.00    +0.000 HD
ENDBRANCH  38  39
ENDBRANCH  28  38
ENDBRANCH  25  26
ENDBRANCH   5  25
TORSDOF 13
ENDMDL
MODEL 7
REMARK VINA RESULT:      -8.3      3.690      4.967
REMARK  Name = 
REMARK  15 active torsions:
REMARK  status: ('A' for Active; 'I' for Inactive)
REMARK    1  A    between atoms: C_1  and  C_2
REMARK    2  A    between atoms: C_2  and  C_3
REMARK    3  A    between atoms: C_2  and  C_4
REMARK    4  A    between atoms: C_6  and  O_7
REMARK    5  A    between atoms: C_8  and  C_9
REMARK    6  A    between atoms: C_9  and  C_11
REMARK    7  A    between atoms: C_11  and  C_12
REMARK    8  A    between atoms: C_12  and  C_13
REMARK    9  A    between atoms: C_22  and  O_23
REMARK   10  A    between atoms: O_23  and  C_24
REMARK   11  A    between atoms: C_26  and  C_27
REMARK   12  A    between atoms: C_27  and  O_28
REMARK   13  A    between atoms: C_29  and  O_30
REMARK   14  A    between atoms: C_31  and  O_32
REMARK   15  A    between atoms: C_33  and  O_34
REMARK                            x       y       z     vdW  Elec       q    Type
REMARK                         _______ _______ _______ _____ _____    ______ ____
ROOT
ATOM      1  C   UNL     1       5.757   3.555  13.479  0.00  0.00    +0.000 A 
ATOM      2  C   UNL     1       6.808   4.469  13.443  0.00  0.00    +0.000 A 
ATOM      3  C   UNL     1       7.262   5.083  14.615  0.00  0.00    +0.000 A 
ATOM      4  C   UNL     1       6.649   4.861  15.861  0.00  0.00    +0.000 A 
ATOM      5  C   UNL     1       5.571   3.957  15.905  0.00  0.00    +0.000 A 
ATOM      6  C   UNL     1       5.145   3.312  14.720  0.00  0.00    +0.000 A 
ENDROOT
BRANCH   1   8
ATOM      7  C   UNL     1       4.325   3.749  11.452  0.00  0.00    +0.000 C 
ATOM      8  C   UNL     1       5.278   2.837  12.227  0.00  0.00    +0.000 C 
ATOM      9  C   UNL     1       6.401   2.354  11.293  0.00  0.00    +0.000 C 
ENDBRANCH   1   8
BRANCH   3  10
ATOM     10  O   UNL     1       8.395   5.841  14.498  0.00  0.00    +0.000 OA
ATOM     11  H   UNL     1       9.186   5.299  14.645  0.00  0.00    +0.000 HD
ENDBRANCH   3  10
BRANCH   4  12
ATOM     12  C   UNL     1       7.224   5.461  17.108  0.00  0.00    +0.000 C 
ATOM     13  O   UNL     1       7.685   4.727  17.982  0.00  0.00    +0.000 OA
BRANCH  12  14
ATOM     14  C   UNL     1       7.182   6.967  17.337  0.00  0.00    +0.000 C 
BRANCH  14  15
ATOM     15  C   UNL     1       8.145   7.367  18.455  0.00  0.00    +0.000 C 
BRANCH  15  16
ATOM     16  C   UNL     1       8.445   8.847  18.413  0.00  0.00    +0.000 A 
ATOM     17  C   UNL     1       7.805   9.668  17.469  0.00  0.00    +0.000 A 
ATOM     18  C   UNL     1       8.041  11.046  17.415  0.00  0.00    +0.000 A 
ATOM     19  C   UNL     1       8.941  11.555  18.347  0.00  0.00    +0.000 A 
ATOM     20  O   UNL     1       9.311  12.862  18.458  0.00  0.00    +0.000 OA
ATOM     21  C   UNL     1      10.197  12.935  19.485  0.00  0.00    +0.000 A 
ATOM     22  C   UNL     1      10.399  11.691  20.042  0.00  0.00    +0.000 A 
ATOM     23  C   UNL     1       9.591  10.788  19.306  0.00  0.00    +0.000 A 
ATOM     24  C   UNL     1       9.335   9.406  19.350  0.00  0.00    +0.000 A 
ENDBRANCH  15  16
ENDBRANCH  14  15
ENDBRANCH  12  14
ENDBRANCH   4  12
BRANCH   5  25
ATOM     25  O   UNL     1       5.040   3.400  17.033  0.00  0.00    +0.000 OA
BRANCH  25  26
ATOM     26  C   UNL     1       3.806   3.860  17.619  0.00  0.00    +0.000 C 
ATOM     27  O   UNL     1       3.803   5.188  18.164  0.00  0.00    +0.000 OA
ATOM     28  C   UNL     1       2.525   5.541  18.732  0.00  0.00    +0.000 C 
ATOM     29  C   UNL     1       2.178   4.618  19.911  0.00  0.00    +0.000 C 
ATOM     30  C   UNL     1       2.132   3.171  19.415  0.00  0.00    +0.000 C 
ATOM     31  C   UNL     1       3.392   2.772  18.654  0.00  0.00    +0.000 C 
BRANCH  29  32
ATOM     32  O   UNL     1       0.902   5.001  20.446  0.00  0.00    +0.000 OA
ATOM     33  H   UNL     1       0.209   4.759  19.804  0.00  0.00    +0.000 HD
ENDBRANCH  29  32
BRANCH  30  34
ATOM     34  O   UNL     1       1.893   2.296  20.531  0.00  0.00    +0.000 OA
ATOM     35  H   UNL     1       2.660   2.361  21.133  0.00  0.00    +0.000 HD
ENDBRANCH  30  34
BRANCH  31  36
ATOM     36  O   UNL     1       3.196   1.491  18.019  0.00  0.00    +0.000 OA
ATOM     37  H   UNL     1       3.881   0.873  18.324  0.00  0.00    +0.000 HD
ENDBRANCH  31  36
BRANCH  28  38
ATOM     38  C   UNL     1       2.562   7.013  19.175  0.00  0.00    +0.000 C 
BRANCH  38  39
ATOM     39  O   UNL     1       2.784   7.868  18.059  0.00  0.00    +0.000 OA
ATOM     40  H   UNL     1       3.601   8.346  18.283  0.00  0.00    +0.000 HD
ENDBRANCH  38  39
ENDBRANCH  28  38
ENDBRANCH  25  26
ENDBRANCH   5  25
TORSDOF 13
ENDMDL
MODEL 8
REMARK VINA RESULT:      -8.2      0.990      2.535
REMARK  Name = 
REMARK  15 active torsions:
REMARK  status: ('A' for Active; 'I' for Inactive)
REMARK    1  A    between atoms: C_1  and  C_2
REMARK    2  A    between atoms: C_2  and  C_3
REMARK    3  A    between atoms: C_2  and  C_4
REMARK    4  A    between atoms: C_6  and  O_7
REMARK    5  A    between atoms: C_8  and  C_9
REMARK    6  A    between atoms: C_9  and  C_11
REMARK    7  A    between atoms: C_11  and  C_12
REMARK    8  A    between atoms: C_12  and  C_13
REMARK    9  A    between atoms: C_22  and  O_23
REMARK   10  A    between atoms: O_23  and  C_24
REMARK   11  A    between atoms: C_26  and  C_27
REMARK   12  A    between atoms: C_27  and  O_28
REMARK   13  A    between atoms: C_29  and  O_30
REMARK   14  A    between atoms: C_31  and  O_32
REMARK   15  A    between atoms: C_33  and  O_34
REMARK                            x       y       z     vdW  Elec       q    Type
REMARK                         _______ _______ _______ _____ _____    ______ ____
ROOT
ATOM      1  C   UNL     1       5.911   4.647  14.486  0.00  0.00    +0.000 A 
ATOM      2  C   UNL     1       6.244   5.883  15.038  0.00  0.00    +0.000 A 
ATOM      3  C   UNL     1       6.167   6.092  16.419  0.00  0.00    +0.000 A 
ATOM      4  C   UNL     1       5.697   5.102  17.301  0.00  0.00    +0.000 A 
ATOM      5  C   UNL     1       5.337   3.857  16.750  0.00  0.00    +0.000 A 
ATOM      6  C   UNL     1       5.455   3.643  15.357  0.00  0.00    +0.000 A 
ENDROOT
BRANCH   1   8
ATOM      7  C   UNL     1       7.460   4.692  12.538  0.00  0.00    +0.000 C 
ATOM      8  C   UNL     1       6.034   4.379  12.994  0.00  0.00    +0.000 C 
ATOM      9  C   UNL     1       5.658   2.951  12.563  0.00  0.00    +0.000 C 
ENDBRANCH   1   8
BRANCH   3  10
ATOM     10  O   UNL     1       6.661   7.282  16.877  0.00  0.00    +0.000 OA
ATOM     11  H   UNL     1       7.620   7.332  16.734  0.00  0.00    +0.000 HD
ENDBRANCH   3  10
BRANCH   4  12
ATOM     12  C   UNL     1       5.720   5.330  18.782  0.00  0.00    +0.000 C 
ATOM     13  O   UNL     1       6.724   5.032  19.429  0.00  0.00    +0.000 OA
BRANCH  12  14
ATOM     14  C   UNL     1       4.489   5.862  19.506  0.00  0.00    +0.000 C 
BRANCH  14  15
ATOM     15  C   UNL     1       3.411   6.270  18.503  0.00  0.00    +0.000 C 
BRANCH  15  16
ATOM     16  C   UNL     1       2.478   7.301  19.095  0.00  0.00    +0.000 A 
ATOM     17  C   UNL     1       1.984   7.135  20.399  0.00  0.00    +0.000 A 
ATOM     18  C   UNL     1       1.136   8.079  20.988  0.00  0.00    +0.000 A 
ATOM     19  C   UNL     1       0.813   9.189  20.211  0.00  0.00    +0.000 A 
ATOM     20  O   UNL     1       0.002  10.214  20.595  0.00  0.00    +0.000 OA
ATOM     21  C   UNL     1      -0.050  11.087  19.554  0.00  0.00    +0.000 A 
ATOM     22  C   UNL     1       0.723  10.638  18.506  0.00  0.00    +0.000 A 
ATOM     23  C   UNL     1       1.284   9.403  18.922  0.00  0.00    +0.000 A 
ATOM     24  C   UNL     1       2.141   8.447  18.350  0.00  0.00    +0.000 A 
ENDBRANCH  15  16
ENDBRANCH  14  15
ENDBRANCH  12  14
ENDBRANCH   4  12
BRANCH   5  25
ATOM     25  O   UNL     1       5.135   2.702  17.450  0.00  0.00    +0.000 OA
BRANCH  25  26
ATOM     26  C   UNL     1       3.902   2.417  18.139  0.00  0.00    +0.000 C 
ATOM     27  O   UNL     1       2.766   3.224  17.795  0.00  0.00    +0.000 OA
ATOM     28  C   UNL     1       1.591   2.862  18.551  0.00  0.00    +0.000 C 
ATOM     29  C   UNL     1       1.814   3.094  20.053  0.00  0.00    +0.000 C 
ATOM     30  C   UNL     1       3.000   2.245  20.519  0.00  0.00    +0.000 C 
ATOM     31  C   UNL     1       4.242   2.453  19.659  0.00  0.00    +0.000 C 
BRANCH  29  32
ATOM     32  O   UNL     1       0.626   2.721  20.767  0.00  0.00    +0.000 OA
ATOM     33  H   UNL     1       0.439   3.401  21.439  0.00  0.00    +0.000 HD
ENDBRANCH  29  32
BRANCH  30  34
ATOM     34  O   UNL     1       3.267   2.526  21.904  0.00  0.00    +0.000 OA
ATOM     35  H   UNL     1       4.006   1.953  22.189  0.00  0.00    +0.000 HD
ENDBRANCH  30  34
BRANCH  31  36
ATOM     36  O   UNL     1       5.242   1.469  19.997  0.00  0.00    +0.000 OA
ATOM     37  H   UNL     1       5.877   1.857  20.621  0.00  0.00    +0.000 HD
ENDBRANCH  31  36
BRANCH  28  38
ATOM     38  C   UNL     1       0.393   3.678  18.037  0.00  0.00    +0.000 C 
BRANCH  38  39
ATOM     39  O   UNL     1       0.803   4.585  17.019  0.00  0.00    +0.000 OA
ATOM     40  H   UNL     1       1.358   4.046  16.429  0.00  0.00    +0.000 HD
ENDBRANCH  38  39
ENDBRANCH  28  38
ENDBRANCH  25  26
ENDBRANCH   5  25
TORSDOF 13
ENDMDL
MODEL 9
REMARK VINA RESULT:      -8.1      3.548     10.701
REMARK  Name = 
REMARK  15 active torsions:
REMARK  status: ('A' for Active; 'I' for Inactive)
REMARK    1  A    between atoms: C_1  and  C_2
REMARK    2  A    between atoms: C_2  and  C_3
REMARK    3  A    between atoms: C_2  and  C_4
REMARK    4  A    between atoms: C_6  and  O_7
REMARK    5  A    between atoms: C_8  and  C_9
REMARK    6  A    between atoms: C_9  and  C_11
REMARK    7  A    between atoms: C_11  and  C_12
REMARK    8  A    between atoms: C_12  and  C_13
REMARK    9  A    between atoms: C_22  and  O_23
REMARK   10  A    between atoms: O_23  and  C_24
REMARK   11  A    between atoms: C_26  and  C_27
REMARK   12  A    between atoms: C_27  and  O_28
REMARK   13  A    between atoms: C_29  and  O_30
REMARK   14  A    between atoms: C_31  and  O_32
REMARK   15  A    between atoms: C_33  and  O_34
REMARK                            x       y       z     vdW  Elec       q    Type
REMARK                         _______ _______ _______ _____ _____    ______ ____
ROOT
ATOM      1  C   UNL     1      -2.188  12.112  22.473  0.00  0.00    +0.000 A 
ATOM      2  C   UNL     1      -1.692  11.194  23.396  0.00  0.00    +0.000 A 
ATOM      3  C   UNL     1      -0.690  10.286  23.034  0.00  0.00    +0.000 A 
ATOM      4  C   UNL     1      -0.186  10.212  21.724  0.00  0.00    +0.000 A 
ATOM      5  C   UNL     1      -0.697  11.121  20.777  0.00  0.00    +0.000 A 
ATOM      6  C   UNL     1      -1.682  12.061  21.163  0.00  0.00    +0.000 A 
ENDROOT
BRANCH   1   8
ATOM      7  C   UNL     1      -2.551  14.412  23.354  0.00  0.00    +0.000 C 
ATOM      8  C   UNL     1      -3.240  13.141  22.855  0.00  0.00    +0.000 C 
ATOM      9  C   UNL     1      -4.229  13.499  21.731  0.00  0.00    +0.000 C 
ENDBRANCH   1   8
BRANCH   3  10
ATOM     10  O   UNL     1      -0.163   9.536  24.049  0.00  0.00    +0.000 OA
ATOM     11  H   UNL     1       0.422  10.075  24.605  0.00  0.00    +0.000 HD
ENDBRANCH   3  10
BRANCH   4  12
ATOM     12  C   UNL     1       0.953   9.295  21.398  0.00  0.00    +0.000 C 
ATOM     13  O   UNL     1       1.994   9.360  22.051  0.00  0.00    +0.000 OA
BRANCH  12  14
ATOM     14  C   UNL     1       0.862   8.330  20.222  0.00  0.00    +0.000 C 
BRANCH  14  15
ATOM     15  C   UNL     1       2.236   7.742  19.903  0.00  0.00    +0.000 C 
BRANCH  15  16
ATOM     16  C   UNL     1       2.157   6.246  19.707  0.00  0.00    +0.000 A 
ATOM     17  C   UNL     1       1.655   5.429  20.733  0.00  0.00    +0.000 A 
ATOM     18  C   UNL     1       1.546   4.042  20.579  0.00  0.00    +0.000 A 
ATOM     19  C   UNL     1       1.960   3.522  19.357  0.00  0.00    +0.000 A 
ATOM     20  O   UNL     1       1.942   2.204  19.010  0.00  0.00    +0.000 OA
ATOM     21  C   UNL     1       2.423   2.123  17.742  0.00  0.00    +0.000 A 
ATOM     22  C   UNL     1       2.747   3.374  17.265  0.00  0.00    +0.000 A 
ATOM     23  C   UNL     1       2.454   4.289  18.308  0.00  0.00    +0.000 A 
ATOM     24  C   UNL     1       2.549   5.681  18.479  0.00  0.00    +0.000 A 
ENDBRANCH  15  16
ENDBRANCH  14  15
ENDBRANCH  12  14
ENDBRANCH   4  12
BRANCH   5  25
ATOM     25  O   UNL     1      -0.149  11.397  19.557  0.00  0.00    +0.000 OA
BRANCH  25  26
ATOM     26  C   UNL     1       0.814  12.451  19.359  0.00  0.00    +0.000 C 
ATOM     27  O   UNL     1       1.690  12.743  20.458  0.00  0.00    +0.000 OA
ATOM     28  C   UNL     1       2.604  13.818  20.156  0.00  0.00    +0.000 C 
ATOM     29  C   UNL     1       1.841  15.124  19.887  0.00  0.00    +0.000 C 
ATOM     30  C   UNL     1       0.894  14.914  18.702  0.00  0.00    +0.000 C 
ATOM     31  C   UNL     1       0.002  13.689  18.876  0.00  0.00    +0.000 C 
BRANCH  29  32
ATOM     32  O   UNL     1       2.784  16.165  19.590  0.00  0.00    +0.000 OA
ATOM     33  H   UNL     1       3.341  16.315  20.376  0.00  0.00    +0.000 HD
ENDBRANCH  29  32
BRANCH  30  34
ATOM     34  O   UNL     1       0.116  16.107  18.502  0.00  0.00    +0.000 OA
ATOM     35  H   UNL     1      -0.613  16.102  19.153  0.00  0.00    +0.000 HD
ENDBRANCH  30  34
BRANCH  31  36
ATOM     36  O   UNL     1      -0.695  13.411  17.643  0.00  0.00    +0.000 OA
ATOM     37  H   UNL     1      -0.051  13.161  16.960  0.00  0.00    +0.000 HD
ENDBRANCH  31  36
BRANCH  28  38
ATOM     38  C   UNL     1       3.587  13.984  21.327  0.00  0.00    +0.000 C 
BRANCH  38  39
ATOM     39  O   UNL     1       2.996  14.743  22.376  0.00  0.00    +0.000 OA
ATOM     40  H   UNL     1       2.176  14.263  22.584  0.00  0.00    +0.000 HD
ENDBRANCH  38  39
ENDBRANCH  28  38
ENDBRANCH  25  26
ENDBRANCH   5  25
TORSDOF 13
ENDMDL
