MODEL 1
REMARK VINA RESULT:      -7.3      0.000      0.000
REMARK  Name = 
REMARK  11 active torsions:
REMARK  status: ('A' for Active; 'I' for Inactive)
REMARK    1  A    between atoms: C_1  and  C_2
REMARK    2  A    between atoms: C_2  and  N_3
REMARK    3  A    between atoms: N_3  and  C_4
REMARK    4  A    between atoms: N_3  and  C_6
REMARK    5  A    between atoms: C_4  and  C_5
REMARK    6  A    between atoms: C_11  and  C_12
REMARK    7  A    between atoms: C_17  and  N_18
REMARK    8  A    between atoms: N_18  and  C_19
REMARK    9  A    between atoms: N_18  and  C_21
REMARK   10  A    between atoms: C_19  and  C_20
REMARK   11  A    between atoms: C_21  and  C_22
REMARK                            x       y       z     vdW  Elec       q    Type
REMARK                         _______ _______ _______ _____ _____    ______ ____
ROOT
ATOM      1  C   UNL     1       4.500   5.700  17.812  0.00  0.00    +0.000 A 
ATOM      2  C   UNL     1       3.761   5.261  18.932  0.00  0.00    +0.000 A 
ATOM      3  C   UNL     1       2.756   6.033  19.535  0.00  0.00    +0.000 A 
ATOM      4  C   UNL     1       2.455   7.289  19.031  0.00  0.00    +0.000 A 
ATOM      5  C   UNL     1       1.393   8.111  19.579  0.00  0.00    +0.000 A 
ATOM      6  C   UNL     1       1.163   9.341  19.091  0.00  0.00    +0.000 A 
ATOM      7  C   UNL     1       2.012   9.898  17.999  0.00  0.00    +0.000 A 
ATOM      8  O   UNL     1       1.933  11.072  17.652  0.00  0.00    +0.000 OA
ATOM      9  O   UNL     1       2.949   9.041  17.429  0.00  0.00    +0.000 OA
ATOM     10  C   UNL     1       3.187   7.757  17.954  0.00  0.00    +0.000 A 
ATOM     11  C   UNL     1       4.191   6.990  17.352  0.00  0.00    +0.000 A 
ENDROOT
BRANCH   6  12
ATOM     12  C   UNL     1       0.106  10.186  19.633  0.00  0.00    +0.000 A 
ATOM     13  C   UNL     1       0.207  10.699  20.868  0.00  0.00    +0.000 A 
ATOM     14  C   UNL     1      -0.836  11.551  21.404  0.00  0.00    +0.000 A 
ATOM     15  C   UNL     1      -0.791  12.023  22.705  0.00  0.00    +0.000 A 
ATOM     16  C   UNL     1      -1.833  12.822  23.192  0.00  0.00    +0.000 A 
ATOM     17  C   UNL     1      -2.939  13.187  22.400  0.00  0.00    +0.000 A 
ATOM     18  C   UNL     1      -2.940  12.727  21.072  0.00  0.00    +0.000 A 
ATOM     19  C   UNL     1      -1.908  11.907  20.597  0.00  0.00    +0.000 A 
ATOM     20  O   UNL     1      -2.005  11.403  19.285  0.00  0.00    +0.000 OA
ATOM     21  C   UNL     1      -1.088  10.478  18.785  0.00  0.00    +0.000 A 
ATOM     22  O   UNL     1      -1.277   9.902  17.717  0.00  0.00    +0.000 OA
BRANCH  17  23
ATOM     23  N   UNL     1      -4.002  13.919  22.923  0.00  0.00    +0.000 N 
BRANCH  23  24
ATOM     24  C   UNL     1      -5.229  13.225  23.338  0.00  0.00    +0.000 C 
ATOM     25  C   UNL     1      -5.017  12.460  24.636  0.00  0.00    +0.000 C 
ENDBRANCH  23  24
BRANCH  23  26
ATOM     26  C   UNL     1      -4.106  15.366  22.697  0.00  0.00    +0.000 C 
ATOM     27  C   UNL     1      -4.523  16.091  23.971  0.00  0.00    +0.000 C 
ENDBRANCH  23  26
ENDBRANCH  17  23
ENDBRANCH   6  12
BRANCH   1  28
ATOM     28  N   UNL     1       5.466   4.887  17.198  0.00  0.00    +0.000 N 
BRANCH  28  30
ATOM     29  C   UNL     1       7.553   5.851  18.120  0.00  0.00    +0.000 C 
ATOM     30  C   UNL     1       6.732   4.589  17.879  0.00  0.00    +0.000 C 
ENDBRANCH  28  30
BRANCH  28  31
ATOM     31  C   UNL     1       5.110   4.230  15.927  0.00  0.00    +0.000 C 
ATOM     32  C   UNL     1       6.142   4.263  14.813  0.00  0.00    +0.000 C 
ENDBRANCH  28  31
ENDBRANCH   1  28
TORSDOF 7
ENDMDL
MODEL 2
REMARK VINA RESULT:      -7.2      0.462      1.090
REMARK  Name = 
REMARK  11 active torsions:
REMARK  status: ('A' for Active; 'I' for Inactive)
REMARK    1  A    between atoms: C_1  and  C_2
REMARK    2  A    between atoms: C_2  and  N_3
REMARK    3  A    between atoms: N_3  and  C_4
REMARK    4  A    between atoms: N_3  and  C_6
REMARK    5  A    between atoms: C_4  and  C_5
REMARK    6  A    between atoms: C_11  and  C_12
REMARK    7  A    between atoms: C_17  and  N_18
REMARK    8  A    between atoms: N_18  and  C_19
REMARK    9  A    between atoms: N_18  and  C_21
REMARK   10  A    between atoms: C_19  and  C_20
REMARK   11  A    between atoms: C_21  and  C_22
REMARK                            x       y       z     vdW  Elec       q    Type
REMARK                         _______ _______ _______ _____ _____    ______ ____
ROOT
ATOM      1  C   UNL     1       4.549   5.666  17.684  0.00  0.00    +0.000 A 
ATOM      2  C   UNL     1       3.761   5.184  18.752  0.00  0.00    +0.000 A 
ATOM      3  C   UNL     1       2.745   5.943  19.355  0.00  0.00    +0.000 A 
ATOM      4  C   UNL     1       2.484   7.228  18.904  0.00  0.00    +0.000 A 
ATOM      5  C   UNL     1       1.415   8.039  19.454  0.00  0.00    +0.000 A 
ATOM      6  C   UNL     1       1.222   9.296  19.021  0.00  0.00    +0.000 A 
ATOM      7  C   UNL     1       2.122   9.892  17.991  0.00  0.00    +0.000 A 
ATOM      8  O   UNL     1       2.074  11.083  17.701  0.00  0.00    +0.000 OA
ATOM      9  O   UNL     1       3.066   9.049  17.413  0.00  0.00    +0.000 OA
ATOM     10  C   UNL     1       3.264   7.736  17.881  0.00  0.00    +0.000 A 
ATOM     11  C   UNL     1       4.277   6.983  17.279  0.00  0.00    +0.000 A 
ENDROOT
BRANCH   6  12
ATOM     12  C   UNL     1       0.159  10.131  19.564  0.00  0.00    +0.000 A 
ATOM     13  C   UNL     1       0.242  10.618  20.812  0.00  0.00    +0.000 A 
ATOM     14  C   UNL     1      -0.807  11.461  21.350  0.00  0.00    +0.000 A 
ATOM     15  C   UNL     1      -0.780  11.905  22.662  0.00  0.00    +0.000 A 
ATOM     16  C   UNL     1      -1.829  12.695  23.150  0.00  0.00    +0.000 A 
ATOM     17  C   UNL     1      -2.922  13.078  22.350  0.00  0.00    +0.000 A 
ATOM     18  C   UNL     1      -2.904  12.646  21.013  0.00  0.00    +0.000 A 
ATOM     19  C   UNL     1      -1.867  11.835  20.536  0.00  0.00    +0.000 A 
ATOM     20  O   UNL     1      -1.946  11.358  19.212  0.00  0.00    +0.000 OA
ATOM     21  C   UNL     1      -1.023  10.442  18.706  0.00  0.00    +0.000 A 
ATOM     22  O   UNL     1      -1.197   9.890  17.623  0.00  0.00    +0.000 OA
BRANCH  17  23
ATOM     23  N   UNL     1      -3.992  13.801  22.873  0.00  0.00    +0.000 N 
BRANCH  23  24
ATOM     24  C   UNL     1      -3.804  14.600  24.091  0.00  0.00    +0.000 C 
ATOM     25  C   UNL     1      -3.542  16.061  23.757  0.00  0.00    +0.000 C 
ENDBRANCH  23  24
BRANCH  23  26
ATOM     26  C   UNL     1      -5.376  13.476  22.504  0.00  0.00    +0.000 C 
ATOM     27  C   UNL     1      -6.192  13.083  23.729  0.00  0.00    +0.000 C 
ENDBRANCH  23  26
ENDBRANCH  17  23
ENDBRANCH   6  12
BRANCH   1  28
ATOM     28  N   UNL     1       5.525   4.869  17.066  0.00  0.00    +0.000 N 
BRANCH  28  30
ATOM     29  C   UNL     1       7.414   5.888  18.302  0.00  0.00    +0.000 C 
ATOM     30  C   UNL     1       6.808   4.610  17.732  0.00  0.00    +0.000 C 
ENDBRANCH  28  30
BRANCH  28  31
ATOM     31  C   UNL     1       5.166   4.185  15.810  0.00  0.00    +0.000 C 
ATOM     32  C   UNL     1       6.190   4.208  14.688  0.00  0.00    +0.000 C 
ENDBRANCH  28  31
ENDBRANCH   1  28
TORSDOF 7
ENDMDL
MODEL 3
REMARK VINA RESULT:      -7.2      1.794      2.577
REMARK  Name = 
REMARK  11 active torsions:
REMARK  status: ('A' for Active; 'I' for Inactive)
REMARK    1  A    between atoms: C_1  and  C_2
REMARK    2  A    between atoms: C_2  and  N_3
REMARK    3  A    between atoms: N_3  and  C_4
REMARK    4  A    between atoms: N_3  and  C_6
REMARK    5  A    between atoms: C_4  and  C_5
REMARK    6  A    between atoms: C_11  and  C_12
REMARK    7  A    between atoms: C_17  and  N_18
REMARK    8  A    between atoms: N_18  and  C_19
REMARK    9  A    between atoms: N_18  and  C_21
REMARK   10  A    between atoms: C_19  and  C_20
REMARK   11  A    between atoms: C_21  and  C_22
REMARK                            x       y       z     vdW  Elec       q    Type
REMARK                         _______ _______ _______ _____ _____    ______ ____
ROOT
ATOM      1  C   UNL     1       3.242   5.338  18.856  0.00  0.00    +0.000 A 
ATOM      2  C   UNL     1       2.641   4.970  20.079  0.00  0.00    +0.000 A 
ATOM      3  C   UNL     1       1.835   5.842  20.827  0.00  0.00    +0.000 A 
ATOM      4  C   UNL     1       1.603   7.130  20.371  0.00  0.00    +0.000 A 
ATOM      5  C   UNL     1       0.739   8.059  21.074  0.00  0.00    +0.000 A 
ATOM      6  C   UNL     1       0.576   9.313  20.622  0.00  0.00    +0.000 A 
ATOM      7  C   UNL     1       1.303   9.786  19.408  0.00  0.00    +0.000 A 
ATOM      8  O   UNL     1       1.304  10.966  19.073  0.00  0.00    +0.000 OA
ATOM      9  O   UNL     1       2.038   8.837  18.703  0.00  0.00    +0.000 OA
ATOM     10  C   UNL     1       2.208   7.528  19.191  0.00  0.00    +0.000 A 
ATOM     11  C   UNL     1       3.013   6.661  18.444  0.00  0.00    +0.000 A 
ENDROOT
BRANCH   6  12
ATOM     12  C   UNL     1      -0.282  10.264  21.317  0.00  0.00    +0.000 A 
ATOM     13  C   UNL     1      -1.074  11.100  20.630  0.00  0.00    +0.000 A 
ATOM     14  C   UNL     1      -1.939  12.037  21.319  0.00  0.00    +0.000 A 
ATOM     15  C   UNL     1      -2.702  12.964  20.629  0.00  0.00    +0.000 A 
ATOM     16  C   UNL     1      -3.503  13.870  21.335  0.00  0.00    +0.000 A 
ATOM     17  C   UNL     1      -3.583  13.872  22.741  0.00  0.00    +0.000 A 
ATOM     18  C   UNL     1      -2.829  12.895  23.414  0.00  0.00    +0.000 A 
ATOM     19  C   UNL     1      -2.009  12.008  22.705  0.00  0.00    +0.000 A 
ATOM     20  O   UNL     1      -1.208  11.109  23.436  0.00  0.00    +0.000 OA
ATOM     21  C   UNL     1      -0.270  10.286  22.811  0.00  0.00    +0.000 A 
ATOM     22  O   UNL     1       0.551   9.643  23.459  0.00  0.00    +0.000 OA
BRANCH  17  23
ATOM     23  N   UNL     1      -4.327  14.828  23.429  0.00  0.00    +0.000 N 
BRANCH  23  24
ATOM     24  C   UNL     1      -3.691  15.614  24.495  0.00  0.00    +0.000 C 
ATOM     25  C   UNL     1      -4.591  16.754  24.949  0.00  0.00    +0.000 C 
ENDBRANCH  23  24
BRANCH  23  26
ATOM     26  C   UNL     1      -5.794  14.794  23.418  0.00  0.00    +0.000 C 
ATOM     27  C   UNL     1      -6.314  13.421  23.825  0.00  0.00    +0.000 C 
ENDBRANCH  23  26
ENDBRANCH  17  23
ENDBRANCH   6  12
BRANCH   1  28
ATOM     28  N   UNL     1       4.004   4.431  18.102  0.00  0.00    +0.000 N 
BRANCH  28  30
ATOM     29  C   UNL     1       6.306   5.336  17.986  0.00  0.00    +0.000 C 
ATOM     30  C   UNL     1       5.413   4.184  18.434  0.00  0.00    +0.000 C 
ENDBRANCH  28  30
BRANCH  28  31
ATOM     31  C   UNL     1       3.311   3.631  17.075  0.00  0.00    +0.000 C 
ATOM     32  C   UNL     1       2.583   2.382  17.539  0.00  0.00    +0.000 C 
ENDBRANCH  28  31
ENDBRANCH   1  28
TORSDOF 7
ENDMDL
MODEL 4
REMARK VINA RESULT:      -7.2      0.510      1.262
REMARK  Name = 
REMARK  11 active torsions:
REMARK  status: ('A' for Active; 'I' for Inactive)
REMARK    1  A    between atoms: C_1  and  C_2
REMARK    2  A    between atoms: C_2  and  N_3
REMARK    3  A    between atoms: N_3  and  C_4
REMARK    4  A    between atoms: N_3  and  C_6
REMARK    5  A    between atoms: C_4  and  C_5
REMARK    6  A    between atoms: C_11  and  C_12
REMARK    7  A    between atoms: C_17  and  N_18
REMARK    8  A    between atoms: N_18  and  C_19
REMARK    9  A    between atoms: N_18  and  C_21
REMARK   10  A    between atoms: C_19  and  C_20
REMARK   11  A    between atoms: C_21  and  C_22
REMARK                            x       y       z     vdW  Elec       q    Type
REMARK                         _______ _______ _______ _____ _____    ______ ____
ROOT
ATOM      1  C   UNL     1       4.233   5.689  18.127  0.00  0.00    +0.000 A 
ATOM      2  C   UNL     1       3.499   5.322  19.276  0.00  0.00    +0.000 A 
ATOM      3  C   UNL     1       2.521   6.147  19.854  0.00  0.00    +0.000 A 
ATOM      4  C   UNL     1       2.246   7.386  19.295  0.00  0.00    +0.000 A 
ATOM      5  C   UNL     1       1.213   8.260  19.818  0.00  0.00    +0.000 A 
ATOM      6  C   UNL     1       1.007   9.471  19.276  0.00  0.00    +0.000 A 
ATOM      7  C   UNL     1       1.856   9.955  18.148  0.00  0.00    +0.000 A 
ATOM      8  O   UNL     1       1.802  11.113  17.748  0.00  0.00    +0.000 OA
ATOM      9  O   UNL     1       2.763   9.048  17.607  0.00  0.00    +0.000 OA
ATOM     10  C   UNL     1       2.975   7.785  18.189  0.00  0.00    +0.000 A 
ATOM     11  C   UNL     1       3.950   6.965  17.611  0.00  0.00    +0.000 A 
ENDROOT
BRANCH   6  12
ATOM     12  C   UNL     1      -0.020  10.367  19.790  0.00  0.00    +0.000 A 
ATOM     13  C   UNL     1       0.108  10.933  21.000  0.00  0.00    +0.000 A 
ATOM     14  C   UNL     1      -0.905  11.836  21.508  0.00  0.00    +0.000 A 
ATOM     15  C   UNL     1      -0.832  12.364  22.786  0.00  0.00    +0.000 A 
ATOM     16  C   UNL     1      -1.847  13.211  23.248  0.00  0.00    +0.000 A 
ATOM     17  C   UNL     1      -2.952  13.570  22.452  0.00  0.00    +0.000 A 
ATOM     18  C   UNL     1      -2.981  13.051  21.147  0.00  0.00    +0.000 A 
ATOM     19  C   UNL     1      -1.977  12.184  20.698  0.00  0.00    +0.000 A 
ATOM     20  O   UNL     1      -2.104  11.623  19.411  0.00  0.00    +0.000 OA
ATOM     21  C   UNL     1      -1.217  10.653  18.943  0.00  0.00    +0.000 A 
ATOM     22  O   UNL     1      -1.434  10.035  17.904  0.00  0.00    +0.000 OA
BRANCH  17  23
ATOM     23  N   UNL     1      -3.990  14.353  22.954  0.00  0.00    +0.000 N 
BRANCH  23  24
ATOM     24  C   UNL     1      -5.374  14.073  22.548  0.00  0.00    +0.000 C 
ATOM     25  C   UNL     1      -5.956  12.913  23.342  0.00  0.00    +0.000 C 
ENDBRANCH  23  24
BRANCH  23  26
ATOM     26  C   UNL     1      -3.725  15.677  23.531  0.00  0.00    +0.000 C 
ATOM     27  C   UNL     1      -4.991  16.274  24.134  0.00  0.00    +0.000 C 
ENDBRANCH  23  26
ENDBRANCH  17  23
ENDBRANCH   6  12
BRANCH   1  28
ATOM     28  N   UNL     1       5.170   4.824  17.540  0.00  0.00    +0.000 N 
BRANCH  28  30
ATOM     29  C   UNL     1       5.623   4.745  15.106  0.00  0.00    +0.000 C 
ATOM     30  C   UNL     1       4.862   4.136  16.279  0.00  0.00    +0.000 C 
ENDBRANCH  28  30
BRANCH  28  31
ATOM     31  C   UNL     1       6.513   4.747  18.143  0.00  0.00    +0.000 C 
ATOM     32  C   UNL     1       7.358   6.009  18.125  0.00  0.00    +0.000 C 
ENDBRANCH  28  31
ENDBRANCH   1  28
TORSDOF 7
ENDMDL
MODEL 5
REMARK VINA RESULT:      -7.2      0.492     10.690
REMARK  Name = 
REMARK  11 active torsions:
REMARK  status: ('A' for Active; 'I' for Inactive)
REMARK    1  A    between atoms: C_1  and  C_2
REMARK    2  A    between atoms: C_2  and  N_3
REMARK    3  A    between atoms: N_3  and  C_4
REMARK    4  A    between atoms: N_3  and  C_6
REMARK    5  A    between atoms: C_4  and  C_5
REMARK    6  A    between atoms: C_11  and  C_12
REMARK    7  A    between atoms: C_17  and  N_18
REMARK    8  A    between atoms: N_18  and  C_19
REMARK    9  A    between atoms: N_18  and  C_21
REMARK   10  A    between atoms: C_19  and  C_20
REMARK   11  A    between atoms: C_21  and  C_22
REMARK                            x       y       z     vdW  Elec       q    Type
REMARK                         _______ _______ _______ _____ _____    ______ ____
ROOT
ATOM      1  C   UNL     1      -2.863  12.868  22.466  0.00  0.00    +0.000 A 
ATOM      2  C   UNL     1      -1.853  12.337  23.298  0.00  0.00    +0.000 A 
ATOM      3  C   UNL     1      -0.828  11.506  22.820  0.00  0.00    +0.000 A 
ATOM      4  C   UNL     1      -0.780  11.172  21.475  0.00  0.00    +0.000 A 
ATOM      5  C   UNL     1       0.282  10.360  20.915  0.00  0.00    +0.000 A 
ATOM      6  C   UNL     1       0.268  10.022  19.615  0.00  0.00    +0.000 A 
ATOM      7  C   UNL     1      -0.856  10.447  18.730  0.00  0.00    +0.000 A 
ATOM      8  O   UNL     1      -0.980  10.014  17.589  0.00  0.00    +0.000 OA
ATOM      9  O   UNL     1      -1.798  11.311  19.278  0.00  0.00    +0.000 OA
ATOM     10  C   UNL     1      -1.777  11.652  20.644  0.00  0.00    +0.000 A 
ATOM     11  C   UNL     1      -2.801  12.480  21.117  0.00  0.00    +0.000 A 
ENDROOT
BRANCH   6  12
ATOM     12  C   UNL     1       1.322   9.200  19.034  0.00  0.00    +0.000 A 
ATOM     13  C   UNL     1       1.564   7.966  19.502  0.00  0.00    +0.000 A 
ATOM     14  C   UNL     1       2.602   7.142  18.916  0.00  0.00    +0.000 A 
ATOM     15  C   UNL     1       2.923   5.899  19.437  0.00  0.00    +0.000 A 
ATOM     16  C   UNL     1       3.952   5.147  18.857  0.00  0.00    +0.000 A 
ATOM     17  C   UNL     1       4.679   5.596  17.738  0.00  0.00    +0.000 A 
ATOM     18  C   UNL     1       4.306   6.842  17.206  0.00  0.00    +0.000 A 
ATOM     19  C   UNL     1       3.294   7.603  17.805  0.00  0.00    +0.000 A 
ATOM     20  O   UNL     1       3.023   8.884  17.282  0.00  0.00    +0.000 OA
ATOM     21  C   UNL     1       2.123   9.753  17.901  0.00  0.00    +0.000 A 
ATOM     22  O   UNL     1       2.027  10.927  17.555  0.00  0.00    +0.000 OA
BRANCH  17  23
ATOM     23  N   UNL     1       5.748   4.868  17.221  0.00  0.00    +0.000 N 
BRANCH  23  24
ATOM     24  C   UNL     1       5.505   3.855  16.185  0.00  0.00    +0.000 C 
ATOM     25  C   UNL     1       6.100   4.277  14.850  0.00  0.00    +0.000 C 
ENDBRANCH  23  24
BRANCH  23  26
ATOM     26  C   UNL     1       7.023   4.779  17.946  0.00  0.00    +0.000 C 
ATOM     27  C   UNL     1       7.602   6.164  18.207  0.00  0.00    +0.000 C 
ENDBRANCH  23  26
ENDBRANCH  17  23
ENDBRANCH   6  12
BRANCH   1  28
ATOM     28  N   UNL     1      -3.848  13.737  22.960  0.00  0.00    +0.000 N 
BRANCH  28  30
ATOM     29  C   UNL     1      -6.261  14.146  23.347  0.00  0.00    +0.000 C 
ATOM     30  C   UNL     1      -5.080  13.205  23.559  0.00  0.00    +0.000 C 
ENDBRANCH  28  30
BRANCH  28  31
ATOM     31  C   UNL     1      -3.545  15.180  22.994  0.00  0.00    +0.000 C 
ATOM     32  C   UNL     1      -2.959  15.738  24.279  0.00  0.00    +0.000 C 
ENDBRANCH  28  31
ENDBRANCH   1  28
TORSDOF 7
ENDMDL
MODEL 6
REMARK VINA RESULT:      -7.1      1.820      2.586
REMARK  Name = 
REMARK  11 active torsions:
REMARK  status: ('A' for Active; 'I' for Inactive)
REMARK    1  A    between atoms: C_1  and  C_2
REMARK    2  A    between atoms: C_2  and  N_3
REMARK    3  A    between atoms: N_3  and  C_4
REMARK    4  A    between atoms: N_3  and  C_6
REMARK    5  A    between atoms: C_4  and  C_5
REMARK    6  A    between atoms: C_11  and  C_12
REMARK    7  A    between atoms: C_17  and  N_18
REMARK    8  A    between atoms: N_18  and  C_19
REMARK    9  A    between atoms: N_18  and  C_21
REMARK   10  A    between atoms: C_19  and  C_20
REMARK   11  A    between atoms: C_21  and  C_22
REMARK                            x       y       z     vdW  Elec       q    Type
REMARK                         _______ _______ _______ _____ _____    ______ ____
ROOT
ATOM      1  C   UNL     1       3.514   4.930  18.787  0.00  0.00    +0.000 A 
ATOM      2  C   UNL     1       3.001   4.646  20.071  0.00  0.00    +0.000 A 
ATOM      3  C   UNL     1       2.238   5.564  20.810  0.00  0.00    +0.000 A 
ATOM      4  C   UNL     1       1.964   6.816  20.282  0.00  0.00    +0.000 A 
ATOM      5  C   UNL     1       1.140   7.787  20.976  0.00  0.00    +0.000 A 
ATOM      6  C   UNL     1       0.934   9.006  20.451  0.00  0.00    +0.000 A 
ATOM      7  C   UNL     1       1.573   9.396  19.160  0.00  0.00    +0.000 A 
ATOM      8  O   UNL     1       1.540  10.550  18.744  0.00  0.00    +0.000 OA
ATOM      9  O   UNL     1       2.267   8.404  18.474  0.00  0.00    +0.000 OA
ATOM     10  C   UNL     1       2.483   7.133  19.039  0.00  0.00    +0.000 A 
ATOM     11  C   UNL     1       3.244   6.220  18.300  0.00  0.00    +0.000 A 
ENDROOT
BRANCH   6  12
ATOM     12  C   UNL     1       0.116   9.998  21.135  0.00  0.00    +0.000 A 
ATOM     13  C   UNL     1      -0.768  10.743  20.454  0.00  0.00    +0.000 A 
ATOM     14  C   UNL     1      -1.593  11.721  21.135  0.00  0.00    +0.000 A 
ATOM     15  C   UNL     1      -2.452  12.556  20.440  0.00  0.00    +0.000 A 
ATOM     16  C   UNL     1      -3.212  13.506  21.134  0.00  0.00    +0.000 A 
ATOM     17  C   UNL     1      -3.152  13.645  22.534  0.00  0.00    +0.000 A 
ATOM     18  C   UNL     1      -2.302  12.759  23.218  0.00  0.00    +0.000 A 
ATOM     19  C   UNL     1      -1.526  11.828  22.517  0.00  0.00    +0.000 A 
ATOM     20  O   UNL     1      -0.625  11.025  23.246  0.00  0.00    +0.000 OA
ATOM     21  C   UNL     1       0.274  10.168  22.611  0.00  0.00    +0.000 A 
ATOM     22  O   UNL     1       1.177   9.613  23.231  0.00  0.00    +0.000 OA
BRANCH  17  23
ATOM     23  N   UNL     1      -3.858  14.645  23.200  0.00  0.00    +0.000 N 
BRANCH  23  24
ATOM     24  C   UNL     1      -3.535  14.955  24.599  0.00  0.00    +0.000 C 
ATOM     25  C   UNL     1      -2.916  16.339  24.728  0.00  0.00    +0.000 C 
ENDBRANCH  23  24
BRANCH  23  26
ATOM     26  C   UNL     1      -5.161  15.108  22.705  0.00  0.00    +0.000 C 
ATOM     27  C   UNL     1      -6.280  14.719  23.663  0.00  0.00    +0.000 C 
ENDBRANCH  23  26
ENDBRANCH  17  23
ENDBRANCH   6  12
BRANCH   1  28
ATOM     28  N   UNL     1       4.231   3.976  18.048  0.00  0.00    +0.000 N 
BRANCH  28  30
ATOM     29  C   UNL     1       2.283   2.527  17.556  0.00  0.00    +0.000 C 
ATOM     30  C   UNL     1       3.753   2.590  17.956  0.00  0.00    +0.000 C 
ENDBRANCH  28  30
BRANCH  28  31
ATOM     31  C   UNL     1       5.384   4.440  17.254  0.00  0.00    +0.000 C 
ATOM     32  C   UNL     1       5.358   4.161  15.761  0.00  0.00    +0.000 C 
ENDBRANCH  28  31
ENDBRANCH   1  28
TORSDOF 7
ENDMDL
MODEL 7
REMARK VINA RESULT:      -7.1      1.865      2.642
REMARK  Name = 
REMARK  11 active torsions:
REMARK  status: ('A' for Active; 'I' for Inactive)
REMARK    1  A    between atoms: C_1  and  C_2
REMARK    2  A    between atoms: C_2  and  N_3
REMARK    3  A    between atoms: N_3  and  C_4
REMARK    4  A    between atoms: N_3  and  C_6
REMARK    5  A    between atoms: C_4  and  C_5
REMARK    6  A    between atoms: C_11  and  C_12
REMARK    7  A    between atoms: C_17  and  N_18
REMARK    8  A    between atoms: N_18  and  C_19
REMARK    9  A    between atoms: N_18  and  C_21
REMARK   10  A    between atoms: C_19  and  C_20
REMARK   11  A    between atoms: C_21  and  C_22
REMARK                            x       y       z     vdW  Elec       q    Type
REMARK                         _______ _______ _______ _____ _____    ______ ____
ROOT
ATOM      1  C   UNL     1       3.224   5.214  18.826  0.00  0.00    +0.000 A 
ATOM      2  C   UNL     1       2.628   4.847  20.052  0.00  0.00    +0.000 A 
ATOM      3  C   UNL     1       1.833   5.724  20.808  0.00  0.00    +0.000 A 
ATOM      4  C   UNL     1       1.608   7.015  20.355  0.00  0.00    +0.000 A 
ATOM      5  C   UNL     1       0.756   7.948  21.067  0.00  0.00    +0.000 A 
ATOM      6  C   UNL     1       0.599   9.205  20.619  0.00  0.00    +0.000 A 
ATOM      7  C   UNL     1       1.322   9.675  19.402  0.00  0.00    +0.000 A 
ATOM      8  O   UNL     1       1.330  10.856  19.069  0.00  0.00    +0.000 OA
ATOM      9  O   UNL     1       2.045   8.722  18.690  0.00  0.00    +0.000 OA
ATOM     10  C   UNL     1       2.208   7.411  19.173  0.00  0.00    +0.000 A 
ATOM     11  C   UNL     1       3.002   6.540  18.418  0.00  0.00    +0.000 A 
ENDROOT
BRANCH   6  12
ATOM     12  C   UNL     1      -0.247  10.160  21.322  0.00  0.00    +0.000 A 
ATOM     13  C   UNL     1      -1.090  10.955  20.646  0.00  0.00    +0.000 A 
ATOM     14  C   UNL     1      -1.943  11.897  21.344  0.00  0.00    +0.000 A 
ATOM     15  C   UNL     1      -2.758  12.783  20.660  0.00  0.00    +0.000 A 
ATOM     16  C   UNL     1      -3.546  13.694  21.373  0.00  0.00    +0.000 A 
ATOM     17  C   UNL     1      -3.560  13.743  22.780  0.00  0.00    +0.000 A 
ATOM     18  C   UNL     1      -2.753  12.807  23.449  0.00  0.00    +0.000 A 
ATOM     19  C   UNL     1      -1.947  11.914  22.732  0.00  0.00    +0.000 A 
ATOM     20  O   UNL     1      -1.091  11.058  23.454  0.00  0.00    +0.000 OA
ATOM     21  C   UNL     1      -0.166  10.234  22.812  0.00  0.00    +0.000 A 
ATOM     22  O   UNL     1       0.699   9.632  23.441  0.00  0.00    +0.000 OA
BRANCH  17  23
ATOM     23  N   UNL     1      -4.293  14.706  23.471  0.00  0.00    +0.000 N 
BRANCH  23  24
ATOM     24  C   UNL     1      -5.567  15.185  22.918  0.00  0.00    +0.000 C 
ATOM     25  C   UNL     1      -6.750  14.507  23.592  0.00  0.00    +0.000 C 
ENDBRANCH  23  24
BRANCH  23  26
ATOM     26  C   UNL     1      -3.659  15.546  24.495  0.00  0.00    +0.000 C 
ATOM     27  C   UNL     1      -2.897  16.703  23.860  0.00  0.00    +0.000 C 
ENDBRANCH  23  26
ENDBRANCH  17  23
ENDBRANCH   6  12
BRANCH   1  28
ATOM     28  N   UNL     1       3.973   4.303  18.065  0.00  0.00    +0.000 N 
BRANCH  28  30
ATOM     29  C   UNL     1       3.683   1.847  18.207  0.00  0.00    +0.000 C 
ATOM     30  C   UNL     1       3.330   3.129  17.460  0.00  0.00    +0.000 C 
ENDBRANCH  28  30
BRANCH  28  31
ATOM     31  C   UNL     1       5.379   4.639  17.771  0.00  0.00    +0.000 C 
ATOM     32  C   UNL     1       6.248   5.076  18.937  0.00  0.00    +0.000 C 
ENDBRANCH  28  31
ENDBRANCH   1  28
TORSDOF 7
ENDMDL
MODEL 8
REMARK VINA RESULT:      -7.1      1.803     10.826
REMARK  Name = 
REMARK  11 active torsions:
REMARK  status: ('A' for Active; 'I' for Inactive)
REMARK    1  A    between atoms: C_1  and  C_2
REMARK    2  A    between atoms: C_2  and  N_3
REMARK    3  A    between atoms: N_3  and  C_4
REMARK    4  A    between atoms: N_3  and  C_6
REMARK    5  A    between atoms: C_4  and  C_5
REMARK    6  A    between atoms: C_11  and  C_12
REMARK    7  A    between atoms: C_17  and  N_18
REMARK    8  A    between atoms: N_18  and  C_19
REMARK    9  A    between atoms: N_18  and  C_21
REMARK   10  A    between atoms: C_19  and  C_20
REMARK   11  A    between atoms: C_21  and  C_22
REMARK                            x       y       z     vdW  Elec       q    Type
REMARK                         _______ _______ _______ _____ _____    ______ ____
ROOT
ATOM      1  C   UNL     1      -3.149  13.737  22.542  0.00  0.00    +0.000 A 
ATOM      2  C   UNL     1      -3.214  13.633  21.136  0.00  0.00    +0.000 A 
ATOM      3  C   UNL     1      -2.438  12.723  20.401  0.00  0.00    +0.000 A 
ATOM      4  C   UNL     1      -1.557  11.878  21.059  0.00  0.00    +0.000 A 
ATOM      5  C   UNL     1      -0.767  10.884  20.359  0.00  0.00    +0.000 A 
ATOM      6  C   UNL     1       0.109  10.115  21.027  0.00  0.00    +0.000 A 
ATOM      7  C   UNL     1       0.309  10.290  22.495  0.00  0.00    +0.000 A 
ATOM      8  O   UNL     1       1.215   9.722  23.097  0.00  0.00    +0.000 OA
ATOM      9  O   UNL     1      -0.541  11.178  23.147  0.00  0.00    +0.000 OA
ATOM     10  C   UNL     1      -1.449  11.984  22.434  0.00  0.00    +0.000 A 
ATOM     11  C   UNL     1      -2.221  12.890  23.170  0.00  0.00    +0.000 A 
ENDROOT
BRANCH   6  12
ATOM     12  C   UNL     1       0.917   9.115  20.342  0.00  0.00    +0.000 A 
ATOM     13  C   UNL     1       1.039   7.875  20.840  0.00  0.00    +0.000 A 
ATOM     14  C   UNL     1       1.831   6.874  20.153  0.00  0.00    +0.000 A 
ATOM     15  C   UNL     1       2.036   5.615  20.691  0.00  0.00    +0.000 A 
ATOM     16  C   UNL     1       2.831   4.687  20.007  0.00  0.00    +0.000 A 
ATOM     17  C   UNL     1       3.431   4.975  18.766  0.00  0.00    +0.000 A 
ATOM     18  C   UNL     1       3.174   6.246  18.224  0.00  0.00    +0.000 A 
ATOM     19  C   UNL     1       2.399   7.180  18.924  0.00  0.00    +0.000 A 
ATOM     20  O   UNL     1       2.248   8.469  18.374  0.00  0.00    +0.000 OA
ATOM     21  C   UNL     1       1.604   9.492  19.070  0.00  0.00    +0.000 A 
ATOM     22  O   UNL     1       1.635  10.654  18.674  0.00  0.00    +0.000 OA
BRANCH  17  23
ATOM     23  N   UNL     1       4.279   4.067  18.137  0.00  0.00    +0.000 N 
BRANCH  23  24
ATOM     24  C   UNL     1       5.657   4.462  17.813  0.00  0.00    +0.000 C 
ATOM     25  C   UNL     1       6.364   5.039  19.030  0.00  0.00    +0.000 C 
ENDBRANCH  23  24
BRANCH  23  26
ATOM     26  C   UNL     1       3.742   2.900  17.425  0.00  0.00    +0.000 C 
ATOM     27  C   UNL     1       3.637   1.694  18.350  0.00  0.00    +0.000 C 
ENDBRANCH  23  26
ENDBRANCH  17  23
ENDBRANCH   6  12
BRANCH   1  28
ATOM     28  N   UNL     1      -3.972  14.621  23.258  0.00  0.00    +0.000 N 
BRANCH  28  30
ATOM     29  C   UNL     1      -6.353  15.178  23.657  0.00  0.00    +0.000 C 
ATOM     30  C   UNL     1      -5.204  15.147  22.655  0.00  0.00    +0.000 C 
ENDBRANCH  28  30
BRANCH  28  31
ATOM     31  C   UNL     1      -3.643  14.883  24.671  0.00  0.00    +0.000 C 
ATOM     32  C   UNL     1      -2.948  16.195  24.992  0.00  0.00    +0.000 C 
ENDBRANCH  28  31
ENDBRANCH   1  28
TORSDOF 7
ENDMDL
MODEL 9
REMARK VINA RESULT:      -7.0      1.819     10.775
REMARK  Name = 
REMARK  11 active torsions:
REMARK  status: ('A' for Active; 'I' for Inactive)
REMARK    1  A    between atoms: C_1  and  C_2
REMARK    2  A    between atoms: C_2  and  N_3
REMARK    3  A    between atoms: N_3  and  C_4
REMARK    4  A    between atoms: N_3  and  C_6
REMARK    5  A    between atoms: C_4  and  C_5
REMARK    6  A    between atoms: C_11  and  C_12
REMARK    7  A    between atoms: C_17  and  N_18
REMARK    8  A    between atoms: N_18  and  C_19
REMARK    9  A    between atoms: N_18  and  C_21
REMARK   10  A    between atoms: C_19  and  C_20
REMARK   11  A    between atoms: C_21  and  C_22
REMARK                            x       y       z     vdW  Elec       q    Type
REMARK                         _______ _______ _______ _____ _____    ______ ____
ROOT
ATOM      1  C   UNL     1      -3.248  13.805  22.715  0.00  0.00    +0.000 A 
ATOM      2  C   UNL     1      -3.287  13.747  21.304  0.00  0.00    +0.000 A 
ATOM      3  C   UNL     1      -2.510  12.851  20.554  0.00  0.00    +0.000 A 
ATOM      4  C   UNL     1      -1.652  11.974  21.200  0.00  0.00    +0.000 A 
ATOM      5  C   UNL     1      -0.861  10.993  20.482  0.00  0.00    +0.000 A 
ATOM      6  C   UNL     1      -0.009  10.191  21.141  0.00  0.00    +0.000 A 
ATOM      7  C   UNL     1       0.166  10.315  22.617  0.00  0.00    +0.000 A 
ATOM      8  O   UNL     1       1.054   9.716  23.216  0.00  0.00    +0.000 OA
ATOM      9  O   UNL     1      -0.684  11.193  23.282  0.00  0.00    +0.000 OA
ATOM     10  C   UNL     1      -1.568  12.034  22.580  0.00  0.00    +0.000 A 
ATOM     11  C   UNL     1      -2.342  12.926  23.331  0.00  0.00    +0.000 A 
ENDROOT
BRANCH   6  12
ATOM     12  C   UNL     1       0.800   9.204  20.438  0.00  0.00    +0.000 A 
ATOM     13  C   UNL     1       0.939   7.961  20.926  0.00  0.00    +0.000 A 
ATOM     14  C   UNL     1       1.731   6.972  20.221  0.00  0.00    +0.000 A 
ATOM     15  C   UNL     1       1.955   5.712  20.749  0.00  0.00    +0.000 A 
ATOM     16  C   UNL     1       2.749   4.796  20.047  0.00  0.00    +0.000 A 
ATOM     17  C   UNL     1       3.329   5.097  18.801  0.00  0.00    +0.000 A 
ATOM     18  C   UNL     1       3.054   6.370  18.271  0.00  0.00    +0.000 A 
ATOM     19  C   UNL     1       2.280   7.291  18.987  0.00  0.00    +0.000 A 
ATOM     20  O   UNL     1       2.110   8.583  18.448  0.00  0.00    +0.000 OA
ATOM     21  C   UNL     1       1.465   9.595  19.160  0.00  0.00    +0.000 A 
ATOM     22  O   UNL     1       1.481  10.760  18.771  0.00  0.00    +0.000 OA
BRANCH  17  23
ATOM     23  N   UNL     1       4.177   4.201  18.154  0.00  0.00    +0.000 N 
BRANCH  23  24
ATOM     24  C   UNL     1       4.018   2.758  18.377  0.00  0.00    +0.000 C 
ATOM     25  C   UNL     1       2.796   2.220  17.648  0.00  0.00    +0.000 C 
ENDBRANCH  23  24
BRANCH  23  26
ATOM     26  C   UNL     1       5.461   4.645  17.595  0.00  0.00    +0.000 C 
ATOM     27  C   UNL     1       6.434   5.035  18.700  0.00  0.00    +0.000 C 
ENDBRANCH  23  26
ENDBRANCH  17  23
ENDBRANCH   6  12
BRANCH   1  28
ATOM     28  N   UNL     1      -4.073  14.676  23.444  0.00  0.00    +0.000 N 
BRANCH  28  30
ATOM     29  C   UNL     1      -6.162  15.916  23.925  0.00  0.00    +0.000 C 
ATOM     30  C   UNL     1      -5.492  14.827  23.094  0.00  0.00    +0.000 C 
ENDBRANCH  28  30
BRANCH  28  31
ATOM     31  C   UNL     1      -3.512  15.313  24.650  0.00  0.00    +0.000 C 
ATOM     32  C   UNL     1      -2.518  16.442  24.443  0.00  0.00    +0.000 C 
ENDBRANCH  28  31
ENDBRANCH   1  28
TORSDOF 7
ENDMDL
