MODEL 1
REMARK VINA RESULT:      -8.0      0.000      0.000
REMARK  Name = 
REMARK  6 active torsions:
REMARK  status: ('A' for Active; 'I' for Inactive)
REMARK    1  A    between atoms: C_1  and  O_2
REMARK    2  A    between atoms: O_2  and  C_3
REMARK    3  A    between atoms: C_3  and  C_5
REMARK    4  A    between atoms: C_6  and  N_7
REMARK    5  A    between atoms: C_13  and  C_14
REMARK    6  A    between atoms: C_23  and  C_24
REMARK                            x       y       z     vdW  Elec       q    Type
REMARK                         _______ _______ _______ _____ _____    ______ ____
ROOT
ATOM      1  C   UNL     1       4.310   4.997  18.156  0.00  0.00    +0.000 A 
ATOM      2  C   UNL     1       3.063   5.498  18.533  0.00  0.00    +0.000 A 
ATOM      3  C   UNL     1       3.120   6.927  18.414  0.00  0.00    +0.000 A 
ATOM      4  C   UNL     1       4.388   7.231  17.959  0.00  0.00    +0.000 A 
ATOM      5  N   UNL     1       5.111   6.074  17.765  0.00  0.00    +0.000 N 
ATOM      6  C   UNL     1       6.414   5.997  17.221  0.00  0.00    +0.000 C 
ATOM      7  C   UNL     1       7.244   7.242  17.334  0.00  0.00    +0.000 C 
ATOM      8  O   UNL     1       6.788   4.973  16.662  0.00  0.00    +0.000 OA
ENDROOT
BRANCH   3   9
ATOM      9  C   UNL     1       2.174   7.990  18.757  0.00  0.00    +0.000 A 
ATOM     10  C   UNL     1       1.628   8.803  17.755  0.00  0.00    +0.000 A 
ATOM     11  C   UNL     1       0.738   9.834  18.069  0.00  0.00    +0.000 A 
ATOM     12  C   UNL     1       0.342  10.023  19.389  0.00  0.00    +0.000 A 
ATOM     13 CL   UNL     1      -0.783  11.266  19.773  0.00  0.00    +0.000 Cl
ATOM     14  C   UNL     1       0.843   9.206  20.398  0.00  0.00    +0.000 A 
ATOM     15  C   UNL     1       1.766   8.201  20.084  0.00  0.00    +0.000 A 
ENDBRANCH   3   9
BRANCH   2  16
ATOM     16  N   UNL     1       1.986   4.759  18.940  0.00  0.00    +0.000 N 
ATOM     17  C   UNL     1       1.442   4.787  20.308  0.00  0.00    +0.000 C 
ATOM     18  C   UNL     1       1.265   3.352  20.830  0.00  0.00    +0.000 C 
ATOM     19  O   UNL     1       0.410   2.590  19.957  0.00  0.00    +0.000 OA
ATOM     20  C   UNL     1       0.997   2.516  18.646  0.00  0.00    +0.000 C 
ATOM     21  C   UNL     1       1.194   3.911  18.033  0.00  0.00    +0.000 C 
ENDBRANCH   2  16
BRANCH   1  22
ATOM     22  C   UNL     1       4.777   3.627  18.139  0.00  0.00    +0.000 C 
ATOM     23  O   UNL     1       4.640   2.829  17.220  0.00  0.00    +0.000 OA
BRANCH  22  25
ATOM     24  C   UNL     1       4.553   2.305  20.084  0.00  0.00    +0.000 C 
ATOM     25  O   UNL     1       5.280   3.306  19.368  0.00  0.00    +0.000 OA
ENDBRANCH  22  25
ENDBRANCH   1  22
TORSDOF 4
ENDMDL
MODEL 2
REMARK VINA RESULT:      -7.5      0.735      1.364
REMARK  Name = 
REMARK  6 active torsions:
REMARK  status: ('A' for Active; 'I' for Inactive)
REMARK    1  A    between atoms: C_1  and  O_2
REMARK    2  A    between atoms: O_2  and  C_3
REMARK    3  A    between atoms: C_3  and  C_5
REMARK    4  A    between atoms: C_6  and  N_7
REMARK    5  A    between atoms: C_13  and  C_14
REMARK    6  A    between atoms: C_23  and  C_24
REMARK                            x       y       z     vdW  Elec       q    Type
REMARK                         _______ _______ _______ _____ _____    ______ ____
ROOT
ATOM      1  C   UNL     1       4.276   4.965  18.457  0.00  0.00    +0.000 A 
ATOM      2  C   UNL     1       3.085   5.500  18.951  0.00  0.00    +0.000 A 
ATOM      3  C   UNL     1       3.038   6.880  18.560  0.00  0.00    +0.000 A 
ATOM      4  C   UNL     1       4.191   7.120  17.837  0.00  0.00    +0.000 A 
ATOM      5  N   UNL     1       4.935   5.964  17.736  0.00  0.00    +0.000 N 
ATOM      6  C   UNL     1       6.128   5.814  16.992  0.00  0.00    +0.000 C 
ATOM      7  C   UNL     1       6.893   7.077  16.721  0.00  0.00    +0.000 C 
ATOM      8  O   UNL     1       6.460   4.710  16.576  0.00  0.00    +0.000 OA
ENDROOT
BRANCH   3   9
ATOM      9  C   UNL     1       2.105   7.966  18.861  0.00  0.00    +0.000 A 
ATOM     10  C   UNL     1       1.696   8.203  20.180  0.00  0.00    +0.000 A 
ATOM     11  C   UNL     1       0.791   9.225  20.480  0.00  0.00    +0.000 A 
ATOM     12  C   UNL     1       0.331  10.058  19.465  0.00  0.00    +0.000 A 
ATOM     13 CL   UNL     1      -0.752  11.341  19.839  0.00  0.00    +0.000 Cl
ATOM     14  C   UNL     1       0.751   9.865  18.153  0.00  0.00    +0.000 A 
ATOM     15  C   UNL     1       1.625   8.814  17.850  0.00  0.00    +0.000 A 
ENDBRANCH   3   9
BRANCH   2  16
ATOM     16  N   UNL     1       2.138   4.829  19.674  0.00  0.00    +0.000 N 
ATOM     17  C   UNL     1       2.101   4.793  21.146  0.00  0.00    +0.000 C 
ATOM     18  C   UNL     1       1.955   3.342  21.631  0.00  0.00    +0.000 C 
ATOM     19  O   UNL     1       0.774   2.732  21.077  0.00  0.00    +0.000 OA
ATOM     20  C   UNL     1       0.865   2.713  19.643  0.00  0.00    +0.000 C 
ATOM     21  C   UNL     1       0.994   4.130  19.063  0.00  0.00    +0.000 C 
ENDBRANCH   2  16
BRANCH   1  22
ATOM     22  C   UNL     1       4.811   3.629  18.613  0.00  0.00    +0.000 C 
ATOM     23  O   UNL     1       5.692   3.291  19.393  0.00  0.00    +0.000 OA
BRANCH  22  25
ATOM     24  C   UNL     1       3.715   1.591  18.137  0.00  0.00    +0.000 C 
ATOM     25  O   UNL     1       4.276   2.814  17.655  0.00  0.00    +0.000 OA
ENDBRANCH  22  25
ENDBRANCH   1  22
TORSDOF 4
ENDMDL
MODEL 3
REMARK VINA RESULT:      -7.0      1.390      4.260
REMARK  Name = 
REMARK  6 active torsions:
REMARK  status: ('A' for Active; 'I' for Inactive)
REMARK    1  A    between atoms: C_1  and  O_2
REMARK    2  A    between atoms: O_2  and  C_3
REMARK    3  A    between atoms: C_3  and  C_5
REMARK    4  A    between atoms: C_6  and  N_7
REMARK    5  A    between atoms: C_13  and  C_14
REMARK    6  A    between atoms: C_23  and  C_24
REMARK                            x       y       z     vdW  Elec       q    Type
REMARK                         _______ _______ _______ _____ _____    ______ ____
ROOT
ATOM      1  C   UNL     1       3.749   4.167  19.460  0.00  0.00    +0.000 A 
ATOM      2  C   UNL     1       3.755   5.461  18.935  0.00  0.00    +0.000 A 
ATOM      3  C   UNL     1       2.697   6.190  19.572  0.00  0.00    +0.000 A 
ATOM      4  C   UNL     1       2.104   5.317  20.464  0.00  0.00    +0.000 A 
ATOM      5  N   UNL     1       2.749   4.099  20.434  0.00  0.00    +0.000 N 
ATOM      6  C   UNL     1       2.471   2.999  21.277  0.00  0.00    +0.000 C 
ATOM      7  C   UNL     1       1.095   2.964  21.876  0.00  0.00    +0.000 C 
ATOM      8  O   UNL     1       3.342   2.169  21.513  0.00  0.00    +0.000 OA
ENDROOT
BRANCH   3   9
ATOM      9  C   UNL     1       2.156   7.534  19.371  0.00  0.00    +0.000 A 
ATOM     10  C   UNL     1       2.234   8.148  18.114  0.00  0.00    +0.000 A 
ATOM     11  C   UNL     1       1.738   9.440  17.912  0.00  0.00    +0.000 A 
ATOM     12  C   UNL     1       1.106  10.107  18.956  0.00  0.00    +0.000 A 
ATOM     13 CL   UNL     1       0.461  11.680  18.698  0.00  0.00    +0.000 Cl
ATOM     14  C   UNL     1       0.985   9.503  20.204  0.00  0.00    +0.000 A 
ATOM     15  C   UNL     1       1.519   8.227  20.414  0.00  0.00    +0.000 A 
ENDBRANCH   3   9
BRANCH   2  16
ATOM     16  N   UNL     1       4.615   5.941  17.986  0.00  0.00    +0.000 N 
ATOM     17  C   UNL     1       4.383   5.829  16.536  0.00  0.00    +0.000 C 
ATOM     18  C   UNL     1       5.638   5.269  15.847  0.00  0.00    +0.000 C 
ATOM     19  O   UNL     1       6.785   6.097  16.117  0.00  0.00    +0.000 OA
ATOM     20  C   UNL     1       7.035   6.132  17.532  0.00  0.00    +0.000 C 
ATOM     21  C   UNL     1       5.836   6.701  18.307  0.00  0.00    +0.000 C 
ENDBRANCH   2  16
BRANCH   1  22
ATOM     22  C   UNL     1       4.589   3.039  19.120  0.00  0.00    +0.000 C 
ATOM     23  O   UNL     1       5.553   2.639  19.760  0.00  0.00    +0.000 OA
BRANCH  22  25
ATOM     24  C   UNL     1       2.943   1.935  17.833  0.00  0.00    +0.000 C 
ATOM     25  O   UNL     1       4.228   2.560  17.892  0.00  0.00    +0.000 OA
ENDBRANCH  22  25
ENDBRANCH   1  22
TORSDOF 4
ENDMDL
MODEL 4
REMARK VINA RESULT:      -7.0      0.687      1.163
REMARK  Name = 
REMARK  6 active torsions:
REMARK  status: ('A' for Active; 'I' for Inactive)
REMARK    1  A    between atoms: C_1  and  O_2
REMARK    2  A    between atoms: O_2  and  C_3
REMARK    3  A    between atoms: C_3  and  C_5
REMARK    4  A    between atoms: C_6  and  N_7
REMARK    5  A    between atoms: C_13  and  C_14
REMARK    6  A    between atoms: C_23  and  C_24
REMARK                            x       y       z     vdW  Elec       q    Type
REMARK                         _______ _______ _______ _____ _____    ______ ____
ROOT
ATOM      1  C   UNL     1       4.501   5.409  18.211  0.00  0.00    +0.000 A 
ATOM      2  C   UNL     1       3.205   5.798  18.552  0.00  0.00    +0.000 A 
ATOM      3  C   UNL     1       3.130   7.224  18.407  0.00  0.00    +0.000 A 
ATOM      4  C   UNL     1       4.374   7.637  17.971  0.00  0.00    +0.000 A 
ATOM      5  N   UNL     1       5.206   6.549  17.814  0.00  0.00    +0.000 N 
ATOM      6  C   UNL     1       6.522   6.585  17.298  0.00  0.00    +0.000 C 
ATOM      7  C   UNL     1       7.230   7.904  17.403  0.00  0.00    +0.000 C 
ATOM      8  O   UNL     1       7.002   5.590  16.767  0.00  0.00    +0.000 OA
ENDROOT
BRANCH   3   9
ATOM      9  C   UNL     1       2.082   8.200  18.709  0.00  0.00    +0.000 A 
ATOM     10  C   UNL     1       1.471   8.925  17.678  0.00  0.00    +0.000 A 
ATOM     11  C   UNL     1       0.482   9.873  17.953  0.00  0.00    +0.000 A 
ATOM     12  C   UNL     1       0.055  10.063  19.264  0.00  0.00    +0.000 A 
ATOM     13 CL   UNL     1      -1.189  11.202  19.600  0.00  0.00    +0.000 Cl
ATOM     14  C   UNL     1       0.623   9.330  20.301  0.00  0.00    +0.000 A 
ATOM     15  C   UNL     1       1.642   8.411  20.026  0.00  0.00    +0.000 A 
ENDBRANCH   3   9
BRANCH   2  16
ATOM     16  N   UNL     1       2.193   4.970  18.953  0.00  0.00    +0.000 N 
ATOM     17  C   UNL     1       1.736   4.846  20.347  0.00  0.00    +0.000 C 
ATOM     18  C   UNL     1       1.662   3.363  20.744  0.00  0.00    +0.000 C 
ATOM     19  O   UNL     1       0.791   2.637  19.857  0.00  0.00    +0.000 OA
ATOM     20  C   UNL     1       1.297   2.711  18.513  0.00  0.00    +0.000 C 
ATOM     21  C   UNL     1       1.387   4.163  18.020  0.00  0.00    +0.000 C 
ENDBRANCH   2  16
BRANCH   1  22
ATOM     22  C   UNL     1       5.094   4.089  18.230  0.00  0.00    +0.000 C 
ATOM     23  O   UNL     1       6.018   3.724  18.946  0.00  0.00    +0.000 OA
BRANCH  22  25
ATOM     24  C   UNL     1       5.087   3.588  15.922  0.00  0.00    +0.000 C 
ATOM     25  O   UNL     1       4.555   3.337  17.225  0.00  0.00    +0.000 OA
ENDBRANCH  22  25
ENDBRANCH   1  22
TORSDOF 4
ENDMDL
MODEL 5
REMARK VINA RESULT:      -6.9      0.938      1.688
REMARK  Name = 
REMARK  6 active torsions:
REMARK  status: ('A' for Active; 'I' for Inactive)
REMARK    1  A    between atoms: C_1  and  O_2
REMARK    2  A    between atoms: O_2  and  C_3
REMARK    3  A    between atoms: C_3  and  C_5
REMARK    4  A    between atoms: C_6  and  N_7
REMARK    5  A    between atoms: C_13  and  C_14
REMARK    6  A    between atoms: C_23  and  C_24
REMARK                            x       y       z     vdW  Elec       q    Type
REMARK                         _______ _______ _______ _____ _____    ______ ____
ROOT
ATOM      1  C   UNL     1       4.873   5.536  17.984  0.00  0.00    +0.000 A 
ATOM      2  C   UNL     1       3.554   5.817  18.346  0.00  0.00    +0.000 A 
ATOM      3  C   UNL     1       3.387   7.241  18.287  0.00  0.00    +0.000 A 
ATOM      4  C   UNL     1       4.600   7.761  17.880  0.00  0.00    +0.000 A 
ATOM      5  N   UNL     1       5.501   6.741  17.659  0.00  0.00    +0.000 N 
ATOM      6  C   UNL     1       6.811   6.895  17.150  0.00  0.00    +0.000 C 
ATOM      7  C   UNL     1       7.431   8.249  17.336  0.00  0.00    +0.000 C 
ATOM      8  O   UNL     1       7.354   5.968  16.560  0.00  0.00    +0.000 OA
ENDROOT
BRANCH   3   9
ATOM      9  C   UNL     1       2.277   8.126  18.646  0.00  0.00    +0.000 A 
ATOM     10  C   UNL     1       1.844   8.216  19.975  0.00  0.00    +0.000 A 
ATOM     11  C   UNL     1       0.773   9.042  20.328  0.00  0.00    +0.000 A 
ATOM     12  C   UNL     1       0.163   9.832  19.359  0.00  0.00    +0.000 A 
ATOM     13 CL   UNL     1      -1.128  10.879  19.800  0.00  0.00    +0.000 Cl
ATOM     14  C   UNL     1       0.599   9.786  18.038  0.00  0.00    +0.000 A 
ATOM     15  C   UNL     1       1.644   8.926  17.680  0.00  0.00    +0.000 A 
ENDBRANCH   3   9
BRANCH   2  16
ATOM     16  N   UNL     1       2.600   4.901  18.693  0.00  0.00    +0.000 N 
ATOM     17  C   UNL     1       2.226   4.591  20.083  0.00  0.00    +0.000 C 
ATOM     18  C   UNL     1       2.233   3.070  20.300  0.00  0.00    +0.000 C 
ATOM     19  O   UNL     1       1.343   2.415  19.376  0.00  0.00    +0.000 OA
ATOM     20  C   UNL     1       1.771   2.672  18.028  0.00  0.00    +0.000 C 
ATOM     21  C   UNL     1       1.776   4.175  17.710  0.00  0.00    +0.000 C 
ENDBRANCH   2  16
BRANCH   1  22
ATOM     22  C   UNL     1       5.551   4.258  17.925  0.00  0.00    +0.000 C 
ATOM     23  O   UNL     1       6.506   3.916  18.611  0.00  0.00    +0.000 OA
BRANCH  22  25
ATOM     24  C   UNL     1       5.763   3.654  15.651  0.00  0.00    +0.000 C 
ATOM     25  O   UNL     1       5.050   3.529  16.883  0.00  0.00    +0.000 OA
ENDBRANCH  22  25
ENDBRANCH   1  22
TORSDOF 4
ENDMDL
MODEL 6
REMARK VINA RESULT:      -6.8      1.576      4.399
REMARK  Name = 
REMARK  6 active torsions:
REMARK  status: ('A' for Active; 'I' for Inactive)
REMARK    1  A    between atoms: C_1  and  O_2
REMARK    2  A    between atoms: O_2  and  C_3
REMARK    3  A    between atoms: C_3  and  C_5
REMARK    4  A    between atoms: C_6  and  N_7
REMARK    5  A    between atoms: C_13  and  C_14
REMARK    6  A    between atoms: C_23  and  C_24
REMARK                            x       y       z     vdW  Elec       q    Type
REMARK                         _______ _______ _______ _____ _____    ______ ____
ROOT
ATOM      1  C   UNL     1       3.729   3.724  19.737  0.00  0.00    +0.000 A 
ATOM      2  C   UNL     1       3.825   4.979  19.132  0.00  0.00    +0.000 A 
ATOM      3  C   UNL     1       2.785   5.802  19.680  0.00  0.00    +0.000 A 
ATOM      4  C   UNL     1       2.114   5.021  20.601  0.00  0.00    +0.000 A 
ATOM      5  N   UNL     1       2.692   3.771  20.673  0.00  0.00    +0.000 N 
ATOM      6  C   UNL     1       2.325   2.743  21.571  0.00  0.00    +0.000 C 
ATOM      7  C   UNL     1       0.928   2.819  22.116  0.00  0.00    +0.000 C 
ATOM      8  O   UNL     1       3.140   1.887  21.893  0.00  0.00    +0.000 OA
ENDROOT
BRANCH   3   9
ATOM      9  C   UNL     1       2.326   7.157  19.374  0.00  0.00    +0.000 A 
ATOM     10  C   UNL     1       1.709   7.936  20.361  0.00  0.00    +0.000 A 
ATOM     11  C   UNL     1       1.248   9.225  20.077  0.00  0.00    +0.000 A 
ATOM     12  C   UNL     1       1.454   9.767  18.813  0.00  0.00    +0.000 A 
ATOM     13 CL   UNL     1       0.923  11.368  18.474  0.00  0.00    +0.000 Cl
ATOM     14  C   UNL     1       2.096   9.025  17.826  0.00  0.00    +0.000 A 
ATOM     15  C   UNL     1       2.518   7.720  18.101  0.00  0.00    +0.000 A 
ENDBRANCH   3   9
BRANCH   2  16
ATOM     16  N   UNL     1       4.743   5.351  18.189  0.00  0.00    +0.000 N 
ATOM     17  C   UNL     1       6.077   5.887  18.510  0.00  0.00    +0.000 C 
ATOM     18  C   UNL     1       6.328   7.177  17.712  0.00  0.00    +0.000 C 
ATOM     19  O   UNL     1       6.201   6.939  16.298  0.00  0.00    +0.000 OA
ATOM     20  C   UNL     1       4.869   6.487  16.000  0.00  0.00    +0.000 C 
ATOM     21  C   UNL     1       4.534   5.183  16.741  0.00  0.00    +0.000 C 
ENDBRANCH   2  16
BRANCH   1  22
ATOM     22  C   UNL     1       4.518   2.534  19.501  0.00  0.00    +0.000 C 
ATOM     23  O   UNL     1       5.382   2.083  20.242  0.00  0.00    +0.000 OA
BRANCH  22  25
ATOM     24  C   UNL     1       2.876   1.752  17.992  0.00  0.00    +0.000 C 
ATOM     25  O   UNL     1       4.249   2.054  18.250  0.00  0.00    +0.000 OA
ENDBRANCH  22  25
ENDBRANCH   1  22
TORSDOF 4
ENDMDL
MODEL 7
REMARK VINA RESULT:      -6.6      0.705      1.215
REMARK  Name = 
REMARK  6 active torsions:
REMARK  status: ('A' for Active; 'I' for Inactive)
REMARK    1  A    between atoms: C_1  and  O_2
REMARK    2  A    between atoms: O_2  and  C_3
REMARK    3  A    between atoms: C_3  and  C_5
REMARK    4  A    between atoms: C_6  and  N_7
REMARK    5  A    between atoms: C_13  and  C_14
REMARK    6  A    between atoms: C_23  and  C_24
REMARK                            x       y       z     vdW  Elec       q    Type
REMARK                         _______ _______ _______ _____ _____    ______ ____
ROOT
ATOM      1  C   UNL     1       4.366   5.381  17.945  0.00  0.00    +0.000 A 
ATOM      2  C   UNL     1       3.102   5.770  18.393  0.00  0.00    +0.000 A 
ATOM      3  C   UNL     1       3.038   7.201  18.310  0.00  0.00    +0.000 A 
ATOM      4  C   UNL     1       4.254   7.618  17.803  0.00  0.00    +0.000 A 
ATOM      5  N   UNL     1       5.058   6.528  17.545  0.00  0.00    +0.000 N 
ATOM      6  C   UNL     1       6.334   6.570  16.939  0.00  0.00    +0.000 C 
ATOM      7  C   UNL     1       7.066   7.876  17.045  0.00  0.00    +0.000 C 
ATOM      8  O   UNL     1       6.761   5.592  16.336  0.00  0.00    +0.000 OA
ENDROOT
BRANCH   3   9
ATOM      9  C   UNL     1       2.028   8.176  18.724  0.00  0.00    +0.000 A 
ATOM     10  C   UNL     1       1.685   8.310  20.075  0.00  0.00    +0.000 A 
ATOM     11  C   UNL     1       0.708   9.223  20.483  0.00  0.00    +0.000 A 
ATOM     12  C   UNL     1       0.106  10.053  19.543  0.00  0.00    +0.000 A 
ATOM     13 CL   UNL     1      -1.068  11.204  20.049  0.00  0.00    +0.000 Cl
ATOM     14  C   UNL     1       0.455   9.963  18.199  0.00  0.00    +0.000 A 
ATOM     15  C   UNL     1       1.403   9.018  17.789  0.00  0.00    +0.000 A 
ENDBRANCH   3   9
BRANCH   2  16
ATOM     16  N   UNL     1       2.110   4.937  18.831  0.00  0.00    +0.000 N 
ATOM     17  C   UNL     1       1.660   4.861  20.231  0.00  0.00    +0.000 C 
ATOM     18  C   UNL     1       1.619   3.394  20.688  0.00  0.00    +0.000 C 
ATOM     19  O   UNL     1       0.761   2.614  19.835  0.00  0.00    +0.000 OA
ATOM     20  C   UNL     1       1.261   2.644  18.487  0.00  0.00    +0.000 C 
ATOM     21  C   UNL     1       1.318   4.077  17.935  0.00  0.00    +0.000 C 
ENDBRANCH   2  16
BRANCH   1  22
ATOM     22  C   UNL     1       4.940   4.054  17.870  0.00  0.00    +0.000 C 
ATOM     23  O   UNL     1       4.848   3.281  16.925  0.00  0.00    +0.000 OA
BRANCH  22  25
ATOM     24  C   UNL     1       6.427   4.683  19.595  0.00  0.00    +0.000 C 
ATOM     25  O   UNL     1       5.493   3.733  19.078  0.00  0.00    +0.000 OA
ENDBRANCH  22  25
ENDBRANCH   1  22
TORSDOF 4
ENDMDL
MODEL 8
REMARK VINA RESULT:      -6.3      1.677      2.751
REMARK  Name = 
REMARK  6 active torsions:
REMARK  status: ('A' for Active; 'I' for Inactive)
REMARK    1  A    between atoms: C_1  and  O_2
REMARK    2  A    between atoms: O_2  and  C_3
REMARK    3  A    between atoms: C_3  and  C_5
REMARK    4  A    between atoms: C_6  and  N_7
REMARK    5  A    between atoms: C_13  and  C_14
REMARK    6  A    between atoms: C_23  and  C_24
REMARK                            x       y       z     vdW  Elec       q    Type
REMARK                         _______ _______ _______ _____ _____    ______ ____
ROOT
ATOM      1  C   UNL     1       5.814   5.238  17.405  0.00  0.00    +0.000 A 
ATOM      2  C   UNL     1       4.548   5.100  17.978  0.00  0.00    +0.000 A 
ATOM      3  C   UNL     1       4.148   6.394  18.452  0.00  0.00    +0.000 A 
ATOM      4  C   UNL     1       5.176   7.261  18.137  0.00  0.00    +0.000 A 
ATOM      5  N   UNL     1       6.178   6.586  17.473  0.00  0.00    +0.000 N 
ATOM      6  C   UNL     1       7.340   7.170  16.920  0.00  0.00    +0.000 C 
ATOM      7  C   UNL     1       7.759   8.482  17.516  0.00  0.00    +0.000 C 
ATOM      8  O   UNL     1       7.917   6.628  15.984  0.00  0.00    +0.000 OA
ENDROOT
BRANCH   3   9
ATOM      9  C   UNL     1       2.989   6.856  19.217  0.00  0.00    +0.000 A 
ATOM     10  C   UNL     1       2.468   6.075  20.256  0.00  0.00    +0.000 A 
ATOM     11  C   UNL     1       1.350   6.495  20.982  0.00  0.00    +0.000 A 
ATOM     12  C   UNL     1       0.777   7.733  20.710  0.00  0.00    +0.000 A 
ATOM     13 CL   UNL     1      -0.574   8.269  21.629  0.00  0.00    +0.000 Cl
ATOM     14  C   UNL     1       1.299   8.543  19.706  0.00  0.00    +0.000 A 
ATOM     15  C   UNL     1       2.392   8.101  18.953  0.00  0.00    +0.000 A 
ENDBRANCH   3   9
BRANCH   2  16
ATOM     16  N   UNL     1       3.825   3.943  18.068  0.00  0.00    +0.000 N 
ATOM     17  C   UNL     1       2.668   3.629  17.213  0.00  0.00    +0.000 C 
ATOM     18  C   UNL     1       1.485   3.172  18.080  0.00  0.00    +0.000 C 
ATOM     19  O   UNL     1       1.847   2.034  18.885  0.00  0.00    +0.000 OA
ATOM     20  C   UNL     1       2.930   2.386  19.762  0.00  0.00    +0.000 C 
ATOM     21  C   UNL     1       4.171   2.838  18.979  0.00  0.00    +0.000 C 
ENDBRANCH   2  16
BRANCH   1  22
ATOM     22  C   UNL     1       6.667   4.224  16.821  0.00  0.00    +0.000 C 
ATOM     23  O   UNL     1       7.845   4.028  17.094  0.00  0.00    +0.000 OA
BRANCH  22  25
ATOM     24  C   UNL     1       6.334   4.037  14.490  0.00  0.00    +0.000 C 
ATOM     25  O   UNL     1       5.997   3.599  15.808  0.00  0.00    +0.000 OA
ENDBRANCH  22  25
ENDBRANCH   1  22
TORSDOF 4
ENDMDL
MODEL 9
REMARK VINA RESULT:      -6.1      1.199      2.161
REMARK  Name = 
REMARK  6 active torsions:
REMARK  status: ('A' for Active; 'I' for Inactive)
REMARK    1  A    between atoms: C_1  and  O_2
REMARK    2  A    between atoms: O_2  and  C_3
REMARK    3  A    between atoms: C_3  and  C_5
REMARK    4  A    between atoms: C_6  and  N_7
REMARK    5  A    between atoms: C_13  and  C_14
REMARK    6  A    between atoms: C_23  and  C_24
REMARK                            x       y       z     vdW  Elec       q    Type
REMARK                         _______ _______ _______ _____ _____    ______ ____
ROOT
ATOM      1  C   UNL     1       5.410   5.568  17.841  0.00  0.00    +0.000 A 
ATOM      2  C   UNL     1       4.073   5.725  18.211  0.00  0.00    +0.000 A 
ATOM      3  C   UNL     1       3.788   7.131  18.212  0.00  0.00    +0.000 A 
ATOM      4  C   UNL     1       4.954   7.766  17.830  0.00  0.00    +0.000 A 
ATOM      5  N   UNL     1       5.936   6.835  17.569  0.00  0.00    +0.000 N 
ATOM      6  C   UNL     1       7.228   7.117  17.070  0.00  0.00    +0.000 C 
ATOM      7  C   UNL     1       7.735   8.508  17.315  0.00  0.00    +0.000 C 
ATOM      8  O   UNL     1       7.846   6.264  16.443  0.00  0.00    +0.000 OA
ENDROOT
BRANCH   3   9
ATOM      9  C   UNL     1       2.610   7.905  18.604  0.00  0.00    +0.000 A 
ATOM     10  C   UNL     1       2.107   7.818  19.908  0.00  0.00    +0.000 A 
ATOM     11  C   UNL     1       0.971   8.537  20.292  0.00  0.00    +0.000 A 
ATOM     12  C   UNL     1       0.362   9.397  19.384  0.00  0.00    +0.000 A 
ATOM     13 CL   UNL     1      -1.012  10.313  19.866  0.00  0.00    +0.000 Cl
ATOM     14  C   UNL     1       0.864   9.528  18.093  0.00  0.00    +0.000 A 
ATOM     15  C   UNL     1       1.976   8.775  17.700  0.00  0.00    +0.000 A 
ENDBRANCH   3   9
BRANCH   2  16
ATOM     16  N   UNL     1       3.198   4.719  18.516  0.00  0.00    +0.000 N 
ATOM     17  C   UNL     1       2.442   3.955  17.508  0.00  0.00    +0.000 C 
ATOM     18  C   UNL     1       0.954   3.912  17.893  0.00  0.00    +0.000 C 
ATOM     19  O   UNL     1       0.779   3.340  19.203  0.00  0.00    +0.000 OA
ATOM     20  C   UNL     1       1.465   4.143  20.178  0.00  0.00    +0.000 C 
ATOM     21  C   UNL     1       2.971   4.227  19.886  0.00  0.00    +0.000 C 
ENDBRANCH   2  16
BRANCH   1  22
ATOM     22  C   UNL     1       6.191   4.355  17.729  0.00  0.00    +0.000 C 
ATOM     23  O   UNL     1       7.234   4.111  18.324  0.00  0.00    +0.000 OA
BRANCH  22  25
ATOM     24  C   UNL     1       6.059   3.896  15.416  0.00  0.00    +0.000 C 
ATOM     25  O   UNL     1       5.661   3.565  16.748  0.00  0.00    +0.000 OA
ENDBRANCH  22  25
ENDBRANCH   1  22
TORSDOF 4
ENDMDL
