MODEL 1
REMARK VINA RESULT:      -6.6      0.000      0.000
REMARK  Name = 
REMARK  6 active torsions:
REMARK  status: ('A' for Active; 'I' for Inactive)
REMARK    1  A    between atoms: C_1  and  S_2
REMARK    2  A    between atoms: S_2  and  C_5
REMARK    3  A    between atoms: C_5  and  C_6
REMARK    4  A    between atoms: C_6  and  N_7
REMARK    5  A    between atoms: C_10  and  O_11
REMARK    6  A    between atoms: O_11  and  C_12
REMARK                            x       y       z     vdW  Elec       q    Type
REMARK                         _______ _______ _______ _____ _____    ______ ____
ROOT
ATOM      1  N   UNL     1       3.819   5.672  19.232  0.00  0.00    +0.000 NA
ATOM      2  C   UNL     1       4.932   4.733  19.426  0.00  0.00    +0.000 C 
ATOM      3  C   UNL     1       6.223   5.316  18.875  0.00  0.00    +0.000 C 
ATOM      4  C   UNL     1       6.118   5.549  17.368  0.00  0.00    +0.000 C 
ATOM      5  C   UNL     1       4.928   6.489  17.133  0.00  0.00    +0.000 C 
ATOM      6  C   UNL     1       3.644   5.963  17.792  0.00  0.00    +0.000 C 
ENDROOT
BRANCH   1   7
ATOM      7  C   UNL     1       2.554   5.143  19.799  0.00  0.00    +0.000 C 
BRANCH   7   8
ATOM      8  C   UNL     1       1.667   4.473  18.752  0.00  0.00    +0.000 C 
BRANCH   8  10
ATOM      9  C   UNL     1       2.794   2.114  17.838  0.00  0.00    +0.000 C 
ATOM     10  S   UNL     1       1.587   2.712  18.996  0.00  0.00    +0.000 S 
ATOM     11  O   UNL     1       0.287   2.254  18.545  0.00  0.00    +0.000 OA
ATOM     12  O   UNL     1       2.063   2.410  20.333  0.00  0.00    +0.000 OA
ENDBRANCH   8  10
ENDBRANCH   7   8
ENDBRANCH   1   7
BRANCH   4  13
ATOM     13  O   UNL     1       5.862   4.337  16.637  0.00  0.00    +0.000 OA
BRANCH  13  14
ATOM     14  C   UNL     1       6.182   4.287  15.309  0.00  0.00    +0.000 A 
ATOM     15  C   UNL     1       5.473   3.589  14.330  0.00  0.00    +0.000 A 
ATOM     16  C   UNL     1       5.854   3.667  12.986  0.00  0.00    +0.000 A 
ATOM     17  C   UNL     1       6.957   4.423  12.632  0.00  0.00    +0.000 A 
ATOM     18  F   UNL     1       7.324   4.490  11.344  0.00  0.00    +0.000 F 
ATOM     19  C   UNL     1       7.689   5.110  13.591  0.00  0.00    +0.000 A 
ATOM     20  C   UNL     1       7.292   5.049  14.933  0.00  0.00    +0.000 A 
ENDBRANCH  13  14
ENDBRANCH   4  13
TORSDOF 5
ENDMDL
MODEL 2
REMARK VINA RESULT:      -6.5      4.122      6.990
REMARK  Name = 
REMARK  6 active torsions:
REMARK  status: ('A' for Active; 'I' for Inactive)
REMARK    1  A    between atoms: C_1  and  S_2
REMARK    2  A    between atoms: S_2  and  C_5
REMARK    3  A    between atoms: C_5  and  C_6
REMARK    4  A    between atoms: C_6  and  N_7
REMARK    5  A    between atoms: C_10  and  O_11
REMARK    6  A    between atoms: O_11  and  C_12
REMARK                            x       y       z     vdW  Elec       q    Type
REMARK                         _______ _______ _______ _____ _____    ______ ____
ROOT
ATOM      1  N   UNL     1       6.707   5.535  15.690  0.00  0.00    +0.000 NA
ATOM      2  C   UNL     1       5.302   5.953  15.590  0.00  0.00    +0.000 C 
ATOM      3  C   UNL     1       4.868   6.672  16.858  0.00  0.00    +0.000 C 
ATOM      4  C   UNL     1       4.954   5.743  18.069  0.00  0.00    +0.000 C 
ATOM      5  C   UNL     1       6.405   5.251  18.166  0.00  0.00    +0.000 C 
ATOM      6  C   UNL     1       6.888   4.631  16.846  0.00  0.00    +0.000 C 
ENDROOT
BRANCH   1   7
ATOM      7  C   UNL     1       7.166   4.867  14.447  0.00  0.00    +0.000 C 
BRANCH   7   8
ATOM      8  C   UNL     1       6.241   3.736  14.003  0.00  0.00    +0.000 C 
BRANCH   8  10
ATOM      9  C   UNL     1       4.644   3.661  11.742  0.00  0.00    +0.000 C 
ATOM     10  S   UNL     1       6.335   3.467  12.246  0.00  0.00    +0.000 S 
ATOM     11  O   UNL     1       6.701   2.081  12.023  0.00  0.00    +0.000 OA
ATOM     12  O   UNL     1       7.104   4.547  11.656  0.00  0.00    +0.000 OA
ENDBRANCH   8  10
ENDBRANCH   7   8
ENDBRANCH   1   7
BRANCH   4  13
ATOM     13  O   UNL     1       4.113   4.584  17.938  0.00  0.00    +0.000 OA
BRANCH  13  14
ATOM     14  C   UNL     1       3.331   4.214  18.997  0.00  0.00    +0.000 A 
ATOM     15  C   UNL     1       2.152   4.845  19.394  0.00  0.00    +0.000 A 
ATOM     16  C   UNL     1       1.395   4.335  20.454  0.00  0.00    +0.000 A 
ATOM     17  C   UNL     1       1.834   3.209  21.127  0.00  0.00    +0.000 A 
ATOM     18  F   UNL     1       1.109   2.726  22.146  0.00  0.00    +0.000 F 
ATOM     19  C   UNL     1       3.014   2.575  20.762  0.00  0.00    +0.000 A 
ATOM     20  C   UNL     1       3.759   3.075  19.685  0.00  0.00    +0.000 A 
ENDBRANCH  13  14
ENDBRANCH   4  13
TORSDOF 5
ENDMDL
MODEL 3
REMARK VINA RESULT:      -6.4      4.118      6.953
REMARK  Name = 
REMARK  6 active torsions:
REMARK  status: ('A' for Active; 'I' for Inactive)
REMARK    1  A    between atoms: C_1  and  S_2
REMARK    2  A    between atoms: S_2  and  C_5
REMARK    3  A    between atoms: C_5  and  C_6
REMARK    4  A    between atoms: C_6  and  N_7
REMARK    5  A    between atoms: C_10  and  O_11
REMARK    6  A    between atoms: O_11  and  C_12
REMARK                            x       y       z     vdW  Elec       q    Type
REMARK                         _______ _______ _______ _____ _____    ______ ____
ROOT
ATOM      1  N   UNL     1       6.633   5.459  15.642  0.00  0.00    +0.000 NA
ATOM      2  C   UNL     1       5.262   5.985  15.649  0.00  0.00    +0.000 C 
ATOM      3  C   UNL     1       4.925   6.576  17.010  0.00  0.00    +0.000 C 
ATOM      4  C   UNL     1       4.980   5.505  18.099  0.00  0.00    +0.000 C 
ATOM      5  C   UNL     1       6.391   4.903  18.078  0.00  0.00    +0.000 C 
ATOM      6  C   UNL     1       6.783   4.412  16.675  0.00  0.00    +0.000 C 
ENDROOT
BRANCH   1   7
ATOM      7  C   UNL     1       7.000   4.914  14.311  0.00  0.00    +0.000 C 
BRANCH   7   8
ATOM      8  C   UNL     1       6.193   3.673  13.934  0.00  0.00    +0.000 C 
BRANCH   8  10
ATOM      9  C   UNL     1       6.363   1.809  11.894  0.00  0.00    +0.000 C 
ATOM     10  S   UNL     1       6.009   3.526  12.170  0.00  0.00    +0.000 S 
ATOM     11  O   UNL     1       7.064   4.296  11.541  0.00  0.00    +0.000 OA
ATOM     12  O   UNL     1       4.616   3.754  11.833  0.00  0.00    +0.000 OA
ENDBRANCH   8  10
ENDBRANCH   7   8
ENDBRANCH   1   7
BRANCH   4  13
ATOM     13  O   UNL     1       4.049   4.433  17.868  0.00  0.00    +0.000 OA
BRANCH  13  14
ATOM     14  C   UNL     1       3.209   4.059  18.879  0.00  0.00    +0.000 A 
ATOM     15  C   UNL     1       1.883   4.471  19.026  0.00  0.00    +0.000 A 
ATOM     16  C   UNL     1       1.094   3.967  20.065  0.00  0.00    +0.000 A 
ATOM     17  C   UNL     1       1.642   3.074  20.968  0.00  0.00    +0.000 A 
ATOM     18  F   UNL     1       0.885   2.598  21.966  0.00  0.00    +0.000 F 
ATOM     19  C   UNL     1       2.963   2.665  20.853  0.00  0.00    +0.000 A 
ATOM     20  C   UNL     1       3.745   3.152  19.798  0.00  0.00    +0.000 A 
ENDBRANCH  13  14
ENDBRANCH   4  13
TORSDOF 5
ENDMDL
MODEL 4
REMARK VINA RESULT:      -6.4      4.109      6.889
REMARK  Name = 
REMARK  6 active torsions:
REMARK  status: ('A' for Active; 'I' for Inactive)
REMARK    1  A    between atoms: C_1  and  S_2
REMARK    2  A    between atoms: S_2  and  C_5
REMARK    3  A    between atoms: C_5  and  C_6
REMARK    4  A    between atoms: C_6  and  N_7
REMARK    5  A    between atoms: C_10  and  O_11
REMARK    6  A    between atoms: O_11  and  C_12
REMARK                            x       y       z     vdW  Elec       q    Type
REMARK                         _______ _______ _______ _____ _____    ______ ____
ROOT
ATOM      1  N   UNL     1       3.934   3.545  17.774  0.00  0.00    +0.000 NA
ATOM      2  C   UNL     1       4.389   3.854  19.136  0.00  0.00    +0.000 C 
ATOM      3  C   UNL     1       3.201   3.990  20.076  0.00  0.00    +0.000 C 
ATOM      4  C   UNL     1       2.298   5.148  19.652  0.00  0.00    +0.000 C 
ATOM      5  C   UNL     1       1.849   4.874  18.211  0.00  0.00    +0.000 C 
ATOM      6  C   UNL     1       3.043   4.617  17.278  0.00  0.00    +0.000 C 
ENDROOT
BRANCH   1   7
ATOM      7  C   UNL     1       5.078   3.368  16.845  0.00  0.00    +0.000 C 
BRANCH   7   8
ATOM      8  C   UNL     1       6.081   4.517  16.910  0.00  0.00    +0.000 C 
BRANCH   8  10
ATOM      9  C   UNL     1       5.664   4.063  14.210  0.00  0.00    +0.000 C 
ATOM     10  S   UNL     1       6.283   5.299  15.324  0.00  0.00    +0.000 S 
ATOM     11  O   UNL     1       7.703   5.443  15.071  0.00  0.00    +0.000 OA
ATOM     12  O   UNL     1       5.393   6.444  15.259  0.00  0.00    +0.000 OA
ENDBRANCH   8  10
ENDBRANCH   7   8
ENDBRANCH   1   7
BRANCH   4  13
ATOM     13  O   UNL     1       2.982   6.413  19.659  0.00  0.00    +0.000 OA
BRANCH  13  14
ATOM     14  C   UNL     1       2.254   7.557  19.480  0.00  0.00    +0.000 A 
ATOM     15  C   UNL     1       2.155   8.276  18.288  0.00  0.00    +0.000 A 
ATOM     16  C   UNL     1       1.322   9.397  18.203  0.00  0.00    +0.000 A 
ATOM     17  C   UNL     1       0.612   9.807  19.316  0.00  0.00    +0.000 A 
ATOM     18  F   UNL     1      -0.181  10.885  19.232  0.00  0.00    +0.000 F 
ATOM     19  C   UNL     1       0.709   9.118  20.517  0.00  0.00    +0.000 A 
ATOM     20  C   UNL     1       1.526   7.982  20.595  0.00  0.00    +0.000 A 
ENDBRANCH  13  14
ENDBRANCH   4  13
TORSDOF 5
ENDMDL
MODEL 5
REMARK VINA RESULT:      -6.4      4.140      6.980
REMARK  Name = 
REMARK  6 active torsions:
REMARK  status: ('A' for Active; 'I' for Inactive)
REMARK    1  A    between atoms: C_1  and  S_2
REMARK    2  A    between atoms: S_2  and  C_5
REMARK    3  A    between atoms: C_5  and  C_6
REMARK    4  A    between atoms: C_6  and  N_7
REMARK    5  A    between atoms: C_10  and  O_11
REMARK    6  A    between atoms: O_11  and  C_12
REMARK                            x       y       z     vdW  Elec       q    Type
REMARK                         _______ _______ _______ _____ _____    ______ ____
ROOT
ATOM      1  N   UNL     1       3.913   3.593  17.926  0.00  0.00    +0.000 NA
ATOM      2  C   UNL     1       4.345   3.884  19.299  0.00  0.00    +0.000 C 
ATOM      3  C   UNL     1       3.145   3.956  20.231  0.00  0.00    +0.000 C 
ATOM      4  C   UNL     1       2.206   5.092  19.827  0.00  0.00    +0.000 C 
ATOM      5  C   UNL     1       1.779   4.838  18.375  0.00  0.00    +0.000 C 
ATOM      6  C   UNL     1       2.990   4.645  17.448  0.00  0.00    +0.000 C 
ENDROOT
BRANCH   1   7
ATOM      7  C   UNL     1       5.070   3.478  17.004  0.00  0.00    +0.000 C 
BRANCH   7   8
ATOM      8  C   UNL     1       5.230   4.694  16.095  0.00  0.00    +0.000 C 
BRANCH   8  10
ATOM      9  C   UNL     1       7.505   4.614  17.671  0.00  0.00    +0.000 C 
ATOM     10  S   UNL     1       6.871   5.374  16.197  0.00  0.00    +0.000 S 
ATOM     11  O   UNL     1       6.754   6.796  16.455  0.00  0.00    +0.000 OA
ATOM     12  O   UNL     1       7.645   4.880  15.073  0.00  0.00    +0.000 OA
ENDBRANCH   8  10
ENDBRANCH   7   8
ENDBRANCH   1   7
BRANCH   4  13
ATOM     13  O   UNL     1       2.845   6.380  19.870  0.00  0.00    +0.000 OA
BRANCH  13  14
ATOM     14  C   UNL     1       2.070   7.504  19.802  0.00  0.00    +0.000 A 
ATOM     15  C   UNL     1       1.327   8.041  20.855  0.00  0.00    +0.000 A 
ATOM     16  C   UNL     1       0.623   9.238  20.689  0.00  0.00    +0.000 A 
ATOM     17  C   UNL     1       0.647   9.880  19.464  0.00  0.00    +0.000 A 
ATOM     18  F   UNL     1      -0.034  11.025  19.306  0.00  0.00    +0.000 F 
ATOM     19  C   UNL     1       1.363   9.355  18.397  0.00  0.00    +0.000 A 
ATOM     20  C   UNL     1       2.086   8.168  18.572  0.00  0.00    +0.000 A 
ENDBRANCH  13  14
ENDBRANCH   4  13
TORSDOF 5
ENDMDL
MODEL 6
REMARK VINA RESULT:      -6.3      4.171      7.042
REMARK  Name = 
REMARK  6 active torsions:
REMARK  status: ('A' for Active; 'I' for Inactive)
REMARK    1  A    between atoms: C_1  and  S_2
REMARK    2  A    between atoms: S_2  and  C_5
REMARK    3  A    between atoms: C_5  and  C_6
REMARK    4  A    between atoms: C_6  and  N_7
REMARK    5  A    between atoms: C_10  and  O_11
REMARK    6  A    between atoms: O_11  and  C_12
REMARK                            x       y       z     vdW  Elec       q    Type
REMARK                         _______ _______ _______ _____ _____    ______ ____
ROOT
ATOM      1  N   UNL     1       6.646   5.474  15.751  0.00  0.00    +0.000 NA
ATOM      2  C   UNL     1       5.191   5.681  15.754  0.00  0.00    +0.000 C 
ATOM      3  C   UNL     1       4.743   6.303  17.067  0.00  0.00    +0.000 C 
ATOM      4  C   UNL     1       5.047   5.374  18.243  0.00  0.00    +0.000 C 
ATOM      5  C   UNL     1       6.557   5.101  18.232  0.00  0.00    +0.000 C 
ATOM      6  C   UNL     1       7.036   4.584  16.867  0.00  0.00    +0.000 C 
ENDROOT
BRANCH   1   7
ATOM      7  C   UNL     1       7.113   4.905  14.463  0.00  0.00    +0.000 C 
BRANCH   7   8
ATOM      8  C   UNL     1       6.270   3.721  13.995  0.00  0.00    +0.000 C 
BRANCH   8  10
ATOM      9  C   UNL     1       4.685   3.690  11.724  0.00  0.00    +0.000 C 
ATOM     10  S   UNL     1       6.376   3.500  12.232  0.00  0.00    +0.000 S 
ATOM     11  O   UNL     1       6.758   2.126  11.973  0.00  0.00    +0.000 OA
ATOM     12  O   UNL     1       7.135   4.604  11.675  0.00  0.00    +0.000 OA
ENDBRANCH   8  10
ENDBRANCH   7   8
ENDBRANCH   1   7
BRANCH   4  13
ATOM     13  O   UNL     1       4.377   4.105  18.132  0.00  0.00    +0.000 OA
BRANCH  13  14
ATOM     14  C   UNL     1       3.557   3.702  19.149  0.00  0.00    +0.000 A 
ATOM     15  C   UNL     1       3.880   2.755  20.123  0.00  0.00    +0.000 A 
ATOM     16  C   UNL     1       2.985   2.471  21.160  0.00  0.00    +0.000 A 
ATOM     17  C   UNL     1       1.763   3.117  21.205  0.00  0.00    +0.000 A 
ATOM     18  F   UNL     1       0.906   2.838  22.197  0.00  0.00    +0.000 F 
ATOM     19  C   UNL     1       1.413   4.048  20.237  0.00  0.00    +0.000 A 
ATOM     20  C   UNL     1       2.320   4.349  19.212  0.00  0.00    +0.000 A 
ENDBRANCH  13  14
ENDBRANCH   4  13
TORSDOF 5
ENDMDL
MODEL 7
REMARK VINA RESULT:      -6.3      4.371      7.089
REMARK  Name = 
REMARK  6 active torsions:
REMARK  status: ('A' for Active; 'I' for Inactive)
REMARK    1  A    between atoms: C_1  and  S_2
REMARK    2  A    between atoms: S_2  and  C_5
REMARK    3  A    between atoms: C_5  and  C_6
REMARK    4  A    between atoms: C_6  and  N_7
REMARK    5  A    between atoms: C_10  and  O_11
REMARK    6  A    between atoms: O_11  and  C_12
REMARK                            x       y       z     vdW  Elec       q    Type
REMARK                         _______ _______ _______ _____ _____    ______ ____
ROOT
ATOM      1  N   UNL     1       4.155   3.750  17.841  0.00  0.00    +0.000 NA
ATOM      2  C   UNL     1       4.761   4.669  18.814  0.00  0.00    +0.000 C 
ATOM      3  C   UNL     1       3.801   4.938  19.962  0.00  0.00    +0.000 C 
ATOM      4  C   UNL     1       2.529   5.623  19.460  0.00  0.00    +0.000 C 
ATOM      5  C   UNL     1       1.902   4.704  18.403  0.00  0.00    +0.000 C 
ATOM      6  C   UNL     1       2.906   4.331  17.301  0.00  0.00    +0.000 C 
ENDROOT
BRANCH   1   7
ATOM      7  C   UNL     1       5.090   3.439  16.731  0.00  0.00    +0.000 C 
BRANCH   7   8
ATOM      8  C   UNL     1       6.302   4.366  16.695  0.00  0.00    +0.000 C 
BRANCH   8  10
ATOM      9  C   UNL     1       5.837   4.042  13.985  0.00  0.00    +0.000 C 
ATOM     10  S   UNL     1       6.402   5.252  15.155  0.00  0.00    +0.000 S 
ATOM     11  O   UNL     1       7.801   5.510  14.875  0.00  0.00    +0.000 OA
ATOM     12  O   UNL     1       5.434   6.333  15.182  0.00  0.00    +0.000 OA
ENDBRANCH   8  10
ENDBRANCH   7   8
ENDBRANCH   1   7
BRANCH   4  13
ATOM     13  O   UNL     1       2.794   6.889  18.831  0.00  0.00    +0.000 OA
BRANCH  13  14
ATOM     14  C   UNL     1       2.021   7.966  19.167  0.00  0.00    +0.000 A 
ATOM     15  C   UNL     1       1.504   8.228  20.436  0.00  0.00    +0.000 A 
ATOM     16  C   UNL     1       0.782   9.402  20.680  0.00  0.00    +0.000 A 
ATOM     17  C   UNL     1       0.562  10.295  19.648  0.00  0.00    +0.000 A 
ATOM     18  F   UNL     1      -0.135  11.416  19.884  0.00  0.00    +0.000 F 
ATOM     19  C   UNL     1       1.051  10.047  18.373  0.00  0.00    +0.000 A 
ATOM     20  C   UNL     1       1.793   8.882  18.136  0.00  0.00    +0.000 A 
ENDBRANCH  13  14
ENDBRANCH   4  13
TORSDOF 5
ENDMDL
MODEL 8
REMARK VINA RESULT:      -6.3      0.467      1.174
REMARK  Name = 
REMARK  6 active torsions:
REMARK  status: ('A' for Active; 'I' for Inactive)
REMARK    1  A    between atoms: C_1  and  S_2
REMARK    2  A    between atoms: S_2  and  C_5
REMARK    3  A    between atoms: C_5  and  C_6
REMARK    4  A    between atoms: C_6  and  N_7
REMARK    5  A    between atoms: C_10  and  O_11
REMARK    6  A    between atoms: O_11  and  C_12
REMARK                            x       y       z     vdW  Elec       q    Type
REMARK                         _______ _______ _______ _____ _____    ______ ____
ROOT
ATOM      1  N   UNL     1       3.909   5.590  19.470  0.00  0.00    +0.000 NA
ATOM      2  C   UNL     1       5.014   4.661  19.196  0.00  0.00    +0.000 C 
ATOM      3  C   UNL     1       6.148   5.378  18.480  0.00  0.00    +0.000 C 
ATOM      4  C   UNL     1       5.687   5.908  17.122  0.00  0.00    +0.000 C 
ATOM      5  C   UNL     1       4.498   6.844  17.376  0.00  0.00    +0.000 C 
ATOM      6  C   UNL     1       3.399   6.161  18.204  0.00  0.00    +0.000 C 
ENDROOT
BRANCH   1   7
ATOM      7  C   UNL     1       2.806   4.924  20.206  0.00  0.00    +0.000 C 
BRANCH   7   8
ATOM      8  C   UNL     1       1.660   4.491  19.295  0.00  0.00    +0.000 C 
BRANCH   8  10
ATOM      9  C   UNL     1       2.631   2.447  17.698  0.00  0.00    +0.000 C 
ATOM     10  S   UNL     1       1.599   2.721  19.117  0.00  0.00    +0.000 S 
ATOM     11  O   UNL     1       0.246   2.352  18.751  0.00  0.00    +0.000 OA
ATOM     12  O   UNL     1       2.252   2.121  20.266  0.00  0.00    +0.000 OA
ENDBRANCH   8  10
ENDBRANCH   7   8
ENDBRANCH   1   7
BRANCH   4  13
ATOM     13  O   UNL     1       5.234   4.862  16.244  0.00  0.00    +0.000 OA
BRANCH  13  14
ATOM     14  C   UNL     1       5.853   4.701  15.036  0.00  0.00    +0.000 A 
ATOM     15  C   UNL     1       7.059   5.292  14.658  0.00  0.00    +0.000 A 
ATOM     16  C   UNL     1       7.635   4.999  13.417  0.00  0.00    +0.000 A 
ATOM     17  C   UNL     1       6.990   4.135  12.551  0.00  0.00    +0.000 A 
ATOM     18  F   UNL     1       7.542   3.861  11.361  0.00  0.00    +0.000 F 
ATOM     19  C   UNL     1       5.780   3.549  12.898  0.00  0.00    +0.000 A 
ATOM     20  C   UNL     1       5.216   3.826  14.150  0.00  0.00    +0.000 A 
ENDBRANCH  13  14
ENDBRANCH   4  13
TORSDOF 5
ENDMDL
MODEL 9
REMARK VINA RESULT:      -6.3      4.923      7.316
REMARK  Name = 
REMARK  6 active torsions:
REMARK  status: ('A' for Active; 'I' for Inactive)
REMARK    1  A    between atoms: C_1  and  S_2
REMARK    2  A    between atoms: S_2  and  C_5
REMARK    3  A    between atoms: C_5  and  C_6
REMARK    4  A    between atoms: C_6  and  N_7
REMARK    5  A    between atoms: C_10  and  O_11
REMARK    6  A    between atoms: O_11  and  C_12
REMARK                            x       y       z     vdW  Elec       q    Type
REMARK                         _______ _______ _______ _____ _____    ______ ____
ROOT
ATOM      1  N   UNL     1       7.543   7.387  17.307  0.00  0.00    +0.000 NA
ATOM      2  C   UNL     1       7.776   6.605  18.528  0.00  0.00    +0.000 C 
ATOM      3  C   UNL     1       7.733   5.115  18.224  0.00  0.00    +0.000 C 
ATOM      4  C   UNL     1       6.355   4.703  17.708  0.00  0.00    +0.000 C 
ATOM      5  C   UNL     1       6.065   5.544  16.458  0.00  0.00    +0.000 C 
ATOM      6  C   UNL     1       6.224   7.048  16.729  0.00  0.00    +0.000 C 
ENDROOT
BRANCH   1   7
ATOM      7  C   UNL     1       7.620   8.845  17.570  0.00  0.00    +0.000 C 
BRANCH   7   8
ATOM      8  C   UNL     1       8.748   9.218  18.530  0.00  0.00    +0.000 C 
BRANCH   8  10
ATOM      9  C   UNL     1       9.368  11.471  20.015  0.00  0.00    +0.000 C 
ATOM     10  S   UNL     1       9.239  10.917  18.333  0.00  0.00    +0.000 S 
ATOM     11  O   UNL     1       8.138  11.635  17.720  0.00  0.00    +0.000 OA
ATOM     12  O   UNL     1      10.567  10.947  17.749  0.00  0.00    +0.000 OA
ENDBRANCH   8  10
ENDBRANCH   7   8
ENDBRANCH   1   7
BRANCH   4  13
ATOM     13  O   UNL     1       5.307   4.965  18.658  0.00  0.00    +0.000 OA
BRANCH  13  14
ATOM     14  C   UNL     1       4.153   4.236  18.585  0.00  0.00    +0.000 A 
ATOM     15  C   UNL     1       4.050   2.860  18.797  0.00  0.00    +0.000 A 
ATOM     16  C   UNL     1       2.801   2.229  18.765  0.00  0.00    +0.000 A 
ATOM     17  C   UNL     1       1.666   2.973  18.497  0.00  0.00    +0.000 A 
ATOM     18  F   UNL     1       0.473   2.364  18.462  0.00  0.00    +0.000 F 
ATOM     19  C   UNL     1       1.748   4.339  18.265  0.00  0.00    +0.000 A 
ATOM     20  C   UNL     1       2.996   4.973  18.321  0.00  0.00    +0.000 A 
ENDBRANCH  13  14
ENDBRANCH   4  13
TORSDOF 5
ENDMDL
