MODEL 1
REMARK VINA RESULT:      -6.7      0.000      0.000
REMARK  Name = 
REMARK  6 active torsions:
REMARK  status: ('A' for Active; 'I' for Inactive)
REMARK    1  A    between atoms: C_1  and  C_2
REMARK    2  A    between atoms: C_2  and  N_3
REMARK    3  A    between atoms: C_10  and  N_11
REMARK    4  A    between atoms: N_14  and  C_15
REMARK    5  A    between atoms: N_14  and  C_16
REMARK    6  A    between atoms: C_19  and  C_20
REMARK                            x       y       z     vdW  Elec       q    Type
REMARK                         _______ _______ _______ _____ _____    ______ ____
ROOT
ATOM      1  N   UNL     1       7.011   5.630  15.544  0.00  0.00    +0.000 NA
ATOM      2  C   UNL     1       5.705   6.208  15.190  0.00  0.00    +0.000 C 
ATOM      3  C   UNL     1       4.534   5.541  15.917  0.00  0.00    +0.000 C 
ATOM      4  C   UNL     1       4.716   5.554  17.450  0.00  0.00    +0.000 C 
ATOM      5  C   UNL     1       6.129   5.067  17.835  0.00  0.00    +0.000 C 
ATOM      6  C   UNL     1       7.225   5.728  16.992  0.00  0.00    +0.000 C 
ATOM      7  C   UNL     1       4.441   6.984  18.017  0.00  0.00    +0.000 C 
ATOM      8  C   UNL     1       3.324   6.900  19.079  0.00  0.00    +0.000 C 
ATOM      9  C   UNL     1       2.860   5.481  18.987  0.00  0.00    +0.000 A 
ATOM     10  C   UNL     1       1.812   4.906  19.701  0.00  0.00    +0.000 A 
ATOM     11  C   UNL     1       1.532   3.545  19.533  0.00  0.00    +0.000 A 
ATOM     12  C   UNL     1       0.411   2.892  20.287  0.00  0.00    +0.000 C 
ATOM     13  C   UNL     1       2.319   2.786  18.650  0.00  0.00    +0.000 A 
ATOM     14  C   UNL     1       3.374   3.371  17.941  0.00  0.00    +0.000 A 
ATOM     15  C   UNL     1       3.642   4.723  18.115  0.00  0.00    +0.000 A 
ENDROOT
BRANCH   8  16
ATOM     16  N   UNL     1       2.253   7.827  18.784  0.00  0.00    +0.000 N 
ATOM     17  C   UNL     1       1.598   8.458  19.803  0.00  0.00    +0.000 C 
ATOM     18  O   UNL     1       1.834   8.186  20.976  0.00  0.00    +0.000 OA
ATOM     19  N   UNL     1       0.643   9.387  19.425  0.00  0.00    +0.000 N 
ATOM     20  C   UNL     1       0.224   9.706  18.067  0.00  0.00    +0.000 C 
ATOM     21  C   UNL     1      -0.159   9.994  20.476  0.00  0.00    +0.000 C 
ATOM     22  H   UNL     1       2.347   8.317  17.913  0.00  0.00    +0.000 HD
ENDBRANCH   8  16
BRANCH   1  24
ATOM     23  C   UNL     1       6.511   4.081  13.613  0.00  0.00    +0.000 C 
ATOM     24  C   UNL     1       7.165   4.281  14.975  0.00  0.00    +0.000 C 
ENDBRANCH   1  24
TORSDOF 2
ENDMDL
MODEL 2
REMARK VINA RESULT:      -6.5      3.404      9.463
REMARK  Name = 
REMARK  6 active torsions:
REMARK  status: ('A' for Active; 'I' for Inactive)
REMARK    1  A    between atoms: C_1  and  C_2
REMARK    2  A    between atoms: C_2  and  N_3
REMARK    3  A    between atoms: C_10  and  N_11
REMARK    4  A    between atoms: N_14  and  C_15
REMARK    5  A    between atoms: N_14  and  C_16
REMARK    6  A    between atoms: C_19  and  C_20
REMARK                            x       y       z     vdW  Elec       q    Type
REMARK                         _______ _______ _______ _____ _____    ______ ____
ROOT
ATOM      1  N   UNL     1      -1.282  13.821  23.011  0.00  0.00    +0.000 NA
ATOM      2  C   UNL     1      -1.201  12.355  23.099  0.00  0.00    +0.000 C 
ATOM      3  C   UNL     1      -1.713  11.648  21.840  0.00  0.00    +0.000 C 
ATOM      4  C   UNL     1      -0.998  12.139  20.563  0.00  0.00    +0.000 C 
ATOM      5  C   UNL     1      -0.963  13.681  20.516  0.00  0.00    +0.000 C 
ATOM      6  C   UNL     1      -0.522  14.296  21.849  0.00  0.00    +0.000 C 
ATOM      7  C   UNL     1       0.444  11.542  20.486  0.00  0.00    +0.000 C 
ATOM      8  C   UNL     1       0.600  10.767  19.160  0.00  0.00    +0.000 C 
ATOM      9  C   UNL     1      -0.781  10.781  18.583  0.00  0.00    +0.000 A 
ATOM     10  C   UNL     1      -1.192  10.154  17.410  0.00  0.00    +0.000 A 
ATOM     11  C   UNL     1      -2.516  10.301  16.981  0.00  0.00    +0.000 A 
ATOM     12  C   UNL     1      -2.994   9.641  15.721  0.00  0.00    +0.000 C 
ATOM     13  C   UNL     1      -3.401  11.085  17.742  0.00  0.00    +0.000 A 
ATOM     14  C   UNL     1      -2.977  11.715  18.916  0.00  0.00    +0.000 A 
ATOM     15  C   UNL     1      -1.660  11.561  19.333  0.00  0.00    +0.000 A 
ENDROOT
BRANCH   8  16
ATOM     16  N   UNL     1       1.062   9.417  19.397  0.00  0.00    +0.000 N 
ATOM     17  C   UNL     1       1.924   8.826  18.516  0.00  0.00    +0.000 C 
ATOM     18  O   UNL     1       2.247   9.385  17.471  0.00  0.00    +0.000 OA
ATOM     19  N   UNL     1       2.374   7.565  18.864  0.00  0.00    +0.000 N 
ATOM     20  C   UNL     1       1.974   6.784  20.026  0.00  0.00    +0.000 C 
ATOM     21  C   UNL     1       3.199   6.855  17.899  0.00  0.00    +0.000 C 
ATOM     22  H   UNL     1       1.130   9.157  20.364  0.00  0.00    +0.000 HD
ENDBRANCH   8  16
BRANCH   1  24
ATOM     23  C   UNL     1      -2.853  15.787  23.213  0.00  0.00    +0.000 C 
ATOM     24  C   UNL     1      -2.679  14.280  23.080  0.00  0.00    +0.000 C 
ENDBRANCH   1  24
TORSDOF 2
ENDMDL
MODEL 3
REMARK VINA RESULT:      -6.0      1.223      1.494
REMARK  Name = 
REMARK  6 active torsions:
REMARK  status: ('A' for Active; 'I' for Inactive)
REMARK    1  A    between atoms: C_1  and  C_2
REMARK    2  A    between atoms: C_2  and  N_3
REMARK    3  A    between atoms: C_10  and  N_11
REMARK    4  A    between atoms: N_14  and  C_15
REMARK    5  A    between atoms: N_14  and  C_16
REMARK    6  A    between atoms: C_19  and  C_20
REMARK                            x       y       z     vdW  Elec       q    Type
REMARK                         _______ _______ _______ _____ _____    ______ ____
ROOT
ATOM      1  N   UNL     1       7.240   5.657  15.674  0.00  0.00    +0.000 NA
ATOM      2  C   UNL     1       6.037   6.502  15.716  0.00  0.00    +0.000 C 
ATOM      3  C   UNL     1       4.783   5.744  16.164  0.00  0.00    +0.000 C 
ATOM      4  C   UNL     1       4.981   5.044  17.526  0.00  0.00    +0.000 C 
ATOM      5  C   UNL     1       6.305   4.252  17.544  0.00  0.00    +0.000 C 
ATOM      6  C   UNL     1       7.482   5.067  16.996  0.00  0.00    +0.000 C 
ATOM      7  C   UNL     1       4.937   6.091  18.685  0.00  0.00    +0.000 C 
ATOM      8  C   UNL     1       3.832   5.691  19.685  0.00  0.00    +0.000 C 
ATOM      9  C   UNL     1       3.152   4.540  19.013  0.00  0.00    +0.000 A 
ATOM     10  C   UNL     1       2.035   3.853  19.481  0.00  0.00    +0.000 A 
ATOM     11  C   UNL     1       1.545   2.764  18.752  0.00  0.00    +0.000 A 
ATOM     12  C   UNL     1       0.344   1.999  19.226  0.00  0.00    +0.000 C 
ATOM     13  C   UNL     1       2.196   2.382  17.566  0.00  0.00    +0.000 A 
ATOM     14  C   UNL     1       3.321   3.075  17.107  0.00  0.00    +0.000 A 
ATOM     15  C   UNL     1       3.798   4.156  17.838  0.00  0.00    +0.000 A 
ENDROOT
BRANCH   8  16
ATOM     16  N   UNL     1       2.915   6.787  19.915  0.00  0.00    +0.000 N 
ATOM     17  C   UNL     1       2.529   7.582  18.873  0.00  0.00    +0.000 C 
ATOM     18  O   UNL     1       3.016   7.445  17.754  0.00  0.00    +0.000 OA
ATOM     19  N   UNL     1       1.590   8.554  19.169  0.00  0.00    +0.000 N 
ATOM     20  C   UNL     1       1.030   8.857  20.479  0.00  0.00    +0.000 C 
ATOM     21  C   UNL     1       1.241   9.496  18.117  0.00  0.00    +0.000 C 
ATOM     22  H   UNL     1       2.259   6.641  20.660  0.00  0.00    +0.000 HD
ENDBRANCH   8  16
BRANCH   1  24
ATOM     23  C   UNL     1       7.750   5.210  13.243  0.00  0.00    +0.000 C 
ATOM     24  C   UNL     1       7.177   4.700  14.559  0.00  0.00    +0.000 C 
ENDBRANCH   1  24
TORSDOF 2
ENDMDL
MODEL 4
REMARK VINA RESULT:      -5.9      5.111      9.203
REMARK  Name = 
REMARK  6 active torsions:
REMARK  status: ('A' for Active; 'I' for Inactive)
REMARK    1  A    between atoms: C_1  and  C_2
REMARK    2  A    between atoms: C_2  and  N_3
REMARK    3  A    between atoms: C_10  and  N_11
REMARK    4  A    between atoms: N_14  and  C_15
REMARK    5  A    between atoms: N_14  and  C_16
REMARK    6  A    between atoms: C_19  and  C_20
REMARK                            x       y       z     vdW  Elec       q    Type
REMARK                         _______ _______ _______ _____ _____    ______ ____
ROOT
ATOM      1  N   UNL     1       1.456  10.602  19.195  0.00  0.00    +0.000 NA
ATOM      2  C   UNL     1       1.123  12.033  19.121  0.00  0.00    +0.000 C 
ATOM      3  C   UNL     1      -0.300  12.296  18.619  0.00  0.00    +0.000 C 
ATOM      4  C   UNL     1      -1.361  11.552  19.458  0.00  0.00    +0.000 C 
ATOM      5  C   UNL     1      -0.965  10.074  19.653  0.00  0.00    +0.000 C 
ATOM      6  C   UNL     1       0.502   9.911  20.070  0.00  0.00    +0.000 C 
ATOM      7  C   UNL     1      -1.561  12.265  20.834  0.00  0.00    +0.000 C 
ATOM      8  C   UNL     1      -3.048  12.649  20.992  0.00  0.00    +0.000 C 
ATOM      9  C   UNL     1      -3.639  12.316  19.659  0.00  0.00    +0.000 A 
ATOM     10  C   UNL     1      -4.954  12.537  19.260  0.00  0.00    +0.000 A 
ATOM     11  C   UNL     1      -5.363  12.124  17.987  0.00  0.00    +0.000 A 
ATOM     12  C   UNL     1      -6.774  12.345  17.523  0.00  0.00    +0.000 C 
ATOM     13  C   UNL     1      -4.438  11.488  17.140  0.00  0.00    +0.000 A 
ATOM     14  C   UNL     1      -3.120  11.266  17.552  0.00  0.00    +0.000 A 
ATOM     15  C   UNL     1      -2.725  11.682  18.818  0.00  0.00    +0.000 A 
ENDROOT
BRANCH   8  16
ATOM     16  N   UNL     1      -3.192  14.056  21.298  0.00  0.00    +0.000 N 
ATOM     17  C   UNL     1      -3.881  14.444  22.413  0.00  0.00    +0.000 C 
ATOM     18  O   UNL     1      -4.465  13.625  23.117  0.00  0.00    +0.000 OA
ATOM     19  N   UNL     1      -3.900  15.804  22.670  0.00  0.00    +0.000 N 
ATOM     20  C   UNL     1      -3.325  16.857  21.844  0.00  0.00    +0.000 C 
ATOM     21  C   UNL     1      -4.720  16.269  23.778  0.00  0.00    +0.000 C 
ATOM     22  H   UNL     1      -2.432  14.636  20.993  0.00  0.00    +0.000 HD
ENDBRANCH   8  16
BRANCH   1  24
ATOM     23  C   UNL     1       2.146   8.598  17.823  0.00  0.00    +0.000 C 
ATOM     24  C   UNL     1       1.610  10.024  17.851  0.00  0.00    +0.000 C 
ENDBRANCH   1  24
TORSDOF 2
ENDMDL
MODEL 5
REMARK VINA RESULT:      -5.7      5.685     10.145
REMARK  Name = 
REMARK  6 active torsions:
REMARK  status: ('A' for Active; 'I' for Inactive)
REMARK    1  A    between atoms: C_1  and  C_2
REMARK    2  A    between atoms: C_2  and  N_3
REMARK    3  A    between atoms: C_10  and  N_11
REMARK    4  A    between atoms: N_14  and  C_15
REMARK    5  A    between atoms: N_14  and  C_16
REMARK    6  A    between atoms: C_19  and  C_20
REMARK                            x       y       z     vdW  Elec       q    Type
REMARK                         _______ _______ _______ _____ _____    ______ ____
ROOT
ATOM      1  N   UNL     1      -3.026  13.786  22.808  0.00  0.00    +0.000 NA
ATOM      2  C   UNL     1      -1.616  13.756  23.227  0.00  0.00    +0.000 C 
ATOM      3  C   UNL     1      -0.772  12.755  22.432  0.00  0.00    +0.000 C 
ATOM      4  C   UNL     1      -0.863  12.994  20.910  0.00  0.00    +0.000 C 
ATOM      5  C   UNL     1      -2.334  13.153  20.470  0.00  0.00    +0.000 C 
ATOM      6  C   UNL     1      -3.116  14.107  21.380  0.00  0.00    +0.000 C 
ATOM      7  C   UNL     1      -0.019  14.245  20.506  0.00  0.00    +0.000 C 
ATOM      8  C   UNL     1       1.021  13.830  19.442  0.00  0.00    +0.000 C 
ATOM      9  C   UNL     1       0.880  12.342  19.377  0.00  0.00    +0.000 A 
ATOM     10  C   UNL     1       1.646  11.473  18.606  0.00  0.00    +0.000 A 
ATOM     11  C   UNL     1       1.356  10.104  18.623  0.00  0.00    +0.000 A 
ATOM     12  C   UNL     1       2.160   9.137  17.803  0.00  0.00    +0.000 C 
ATOM     13  C   UNL     1       0.293   9.636  19.414  0.00  0.00    +0.000 A 
ATOM     14  C   UNL     1      -0.475  10.518  20.182  0.00  0.00    +0.000 A 
ATOM     15  C   UNL     1      -0.177  11.876  20.158  0.00  0.00    +0.000 A 
ENDROOT
BRANCH   8  16
ATOM     16  N   UNL     1       2.356  14.219  19.841  0.00  0.00    +0.000 N 
ATOM     17  C   UNL     1       3.048  15.138  19.103  0.00  0.00    +0.000 C 
ATOM     18  O   UNL     1       2.596  15.577  18.049  0.00  0.00    +0.000 OA
ATOM     19  N   UNL     1       4.284  15.508  19.602  0.00  0.00    +0.000 N 
ATOM     20  C   UNL     1       4.945  14.973  20.785  0.00  0.00    +0.000 C 
ATOM     21  C   UNL     1       5.102  16.394  18.788  0.00  0.00    +0.000 C 
ATOM     22  H   UNL     1       2.529  14.186  20.829  0.00  0.00    +0.000 HD
ENDBRANCH   8  16
BRANCH   1  24
ATOM     23  C   UNL     1      -4.273  12.586  24.646  0.00  0.00    +0.000 C 
ATOM     24  C   UNL     1      -3.727  12.561  23.224  0.00  0.00    +0.000 C 
ENDBRANCH   1  24
TORSDOF 2
ENDMDL
MODEL 6
REMARK VINA RESULT:      -5.7      2.325      4.666
REMARK  Name = 
REMARK  6 active torsions:
REMARK  status: ('A' for Active; 'I' for Inactive)
REMARK    1  A    between atoms: C_1  and  C_2
REMARK    2  A    between atoms: C_2  and  N_3
REMARK    3  A    between atoms: C_10  and  N_11
REMARK    4  A    between atoms: N_14  and  C_15
REMARK    5  A    between atoms: N_14  and  C_16
REMARK    6  A    between atoms: C_19  and  C_20
REMARK                            x       y       z     vdW  Elec       q    Type
REMARK                         _______ _______ _______ _____ _____    ______ ____
ROOT
ATOM      1  N   UNL     1       2.833   1.615  18.775  0.00  0.00    +0.000 NA
ATOM      2  C   UNL     1       2.737   2.643  19.822  0.00  0.00    +0.000 C 
ATOM      3  C   UNL     1       3.772   3.762  19.664  0.00  0.00    +0.000 C 
ATOM      4  C   UNL     1       3.707   4.423  18.271  0.00  0.00    +0.000 C 
ATOM      5  C   UNL     1       3.681   3.352  17.160  0.00  0.00    +0.000 C 
ATOM      6  C   UNL     1       2.677   2.231  17.453  0.00  0.00    +0.000 C 
ATOM      7  C   UNL     1       2.464   5.364  18.173  0.00  0.00    +0.000 C 
ATOM      8  C   UNL     1       2.935   6.787  17.805  0.00  0.00    +0.000 C 
ATOM      9  C   UNL     1       4.426   6.688  17.864  0.00  0.00    +0.000 A 
ATOM     10  C   UNL     1       5.331   7.728  17.673  0.00  0.00    +0.000 A 
ATOM     11  C   UNL     1       6.704   7.461  17.717  0.00  0.00    +0.000 A 
ATOM     12  C   UNL     1       7.708   8.557  17.514  0.00  0.00    +0.000 C 
ATOM     13  C   UNL     1       7.140   6.144  17.948  0.00  0.00    +0.000 A 
ATOM     14  C   UNL     1       6.223   5.104  18.133  0.00  0.00    +0.000 A 
ATOM     15  C   UNL     1       4.862   5.383  18.089  0.00  0.00    +0.000 A 
ENDROOT
BRANCH   8  16
ATOM     16  N   UNL     1       2.430   7.762  18.747  0.00  0.00    +0.000 N 
ATOM     17  C   UNL     1       1.915   8.944  18.294  0.00  0.00    +0.000 C 
ATOM     18  O   UNL     1       1.954   9.241  17.103  0.00  0.00    +0.000 OA
ATOM     19  N   UNL     1       1.383   9.782  19.260  0.00  0.00    +0.000 N 
ATOM     20  C   UNL     1       1.380   9.564  20.699  0.00  0.00    +0.000 C 
ATOM     21  C   UNL     1       0.932  11.098  18.835  0.00  0.00    +0.000 C 
ATOM     22  H   UNL     1       2.046   7.377  19.590  0.00  0.00    +0.000 HD
ENDBRANCH   8  16
BRANCH   1  24
ATOM     23  C   UNL     1       4.833   1.076  20.219  0.00  0.00    +0.000 C 
ATOM     24  C   UNL     1       4.042   0.793  18.948  0.00  0.00    +0.000 C 
ENDBRANCH   1  24
TORSDOF 2
ENDMDL
MODEL 7
REMARK VINA RESULT:      -5.6      2.471      5.116
REMARK  Name = 
REMARK  6 active torsions:
REMARK  status: ('A' for Active; 'I' for Inactive)
REMARK    1  A    between atoms: C_1  and  C_2
REMARK    2  A    between atoms: C_2  and  N_3
REMARK    3  A    between atoms: C_10  and  N_11
REMARK    4  A    between atoms: N_14  and  C_15
REMARK    5  A    between atoms: N_14  and  C_16
REMARK    6  A    between atoms: C_19  and  C_20
REMARK                            x       y       z     vdW  Elec       q    Type
REMARK                         _______ _______ _______ _____ _____    ______ ____
ROOT
ATOM      1  N   UNL     1       0.893   3.311  19.830  0.00  0.00    +0.000 NA
ATOM      2  C   UNL     1       1.085   4.602  20.509  0.00  0.00    +0.000 C 
ATOM      3  C   UNL     1       2.425   5.265  20.176  0.00  0.00    +0.000 C 
ATOM      4  C   UNL     1       2.628   5.436  18.655  0.00  0.00    +0.000 C 
ATOM      5  C   UNL     1       2.309   4.122  17.911  0.00  0.00    +0.000 C 
ATOM      6  C   UNL     1       0.992   3.491  18.378  0.00  0.00    +0.000 C 
ATOM      7  C   UNL     1       1.750   6.612  18.120  0.00  0.00    +0.000 C 
ATOM      8  C   UNL     1       2.660   7.644  17.421  0.00  0.00    +0.000 C 
ATOM      9  C   UNL     1       4.041   7.146  17.710  0.00  0.00    +0.000 A 
ATOM     10  C   UNL     1       5.234   7.764  17.350  0.00  0.00    +0.000 A 
ATOM     11  C   UNL     1       6.450   7.141  17.657  0.00  0.00    +0.000 A 
ATOM     12  C   UNL     1       7.756   7.778  17.283  0.00  0.00    +0.000 C 
ATOM     13  C   UNL     1       6.438   5.901  18.317  0.00  0.00    +0.000 A 
ATOM     14  C   UNL     1       5.233   5.284  18.670  0.00  0.00    +0.000 A 
ATOM     15  C   UNL     1       4.032   5.913  18.361  0.00  0.00    +0.000 A 
ENDROOT
BRANCH   8  16
ATOM     16  N   UNL     1       2.453   8.971  17.961  0.00  0.00    +0.000 N 
ATOM     17  C   UNL     1       1.199   9.515  17.969  0.00  0.00    +0.000 C 
ATOM     18  O   UNL     1       0.252   8.939  17.441  0.00  0.00    +0.000 OA
ATOM     19  N   UNL     1       1.081  10.753  18.576  0.00  0.00    +0.000 N 
ATOM     20  C   UNL     1       2.158  11.556  19.139  0.00  0.00    +0.000 C 
ATOM     21  C   UNL     1      -0.210  11.419  18.502  0.00  0.00    +0.000 C 
ATOM     22  H   UNL     1       3.080   9.229  18.700  0.00  0.00    +0.000 HD
ENDBRANCH   8  16
BRANCH   1  24
ATOM     23  C   UNL     1       2.049   2.419  21.889  0.00  0.00    +0.000 C 
ATOM     24  C   UNL     1       1.772   2.277  20.398  0.00  0.00    +0.000 C 
ENDBRANCH   1  24
TORSDOF 2
ENDMDL
MODEL 8
REMARK VINA RESULT:      -5.5      3.624      9.237
REMARK  Name = 
REMARK  6 active torsions:
REMARK  status: ('A' for Active; 'I' for Inactive)
REMARK    1  A    between atoms: C_1  and  C_2
REMARK    2  A    between atoms: C_2  and  N_3
REMARK    3  A    between atoms: C_10  and  N_11
REMARK    4  A    between atoms: N_14  and  C_15
REMARK    5  A    between atoms: N_14  and  C_16
REMARK    6  A    between atoms: C_19  and  C_20
REMARK                            x       y       z     vdW  Elec       q    Type
REMARK                         _______ _______ _______ _____ _____    ______ ____
ROOT
ATOM      1  N   UNL     1      -4.515  10.865  17.298  0.00  0.00    +0.000 NA
ATOM      2  C   UNL     1      -3.329  10.367  16.584  0.00  0.00    +0.000 C 
ATOM      3  C   UNL     1      -2.067  11.191  16.863  0.00  0.00    +0.000 C 
ATOM      4  C   UNL     1      -1.765  11.300  18.373  0.00  0.00    +0.000 C 
ATOM      5  C   UNL     1      -3.033  11.701  19.155  0.00  0.00    +0.000 C 
ATOM      6  C   UNL     1      -4.259  10.880  18.742  0.00  0.00    +0.000 C 
ATOM      7  C   UNL     1      -1.178   9.954  18.907  0.00  0.00    +0.000 C 
ATOM      8  C   UNL     1       0.196  10.225  19.556  0.00  0.00    +0.000 C 
ATOM      9  C   UNL     1       0.456  11.663  19.238  0.00  0.00    +0.000 A 
ATOM     10  C   UNL     1       1.606  12.383  19.549  0.00  0.00    +0.000 A 
ATOM     11  C   UNL     1       1.674  13.742  19.220  0.00  0.00    +0.000 A 
ATOM     12  C   UNL     1       2.897  14.551  19.541  0.00  0.00    +0.000 C 
ATOM     13  C   UNL     1       0.577  14.353  18.588  0.00  0.00    +0.000 A 
ATOM     14  C   UNL     1      -0.577  13.621  18.285  0.00  0.00    +0.000 A 
ATOM     15  C   UNL     1      -0.633  12.272  18.614  0.00  0.00    +0.000 A 
ENDROOT
BRANCH   8  16
ATOM     16  N   UNL     1       1.216   9.366  18.993  0.00  0.00    +0.000 N 
ATOM     17  C   UNL     1       1.577   8.220  19.643  0.00  0.00    +0.000 C 
ATOM     18  O   UNL     1       1.120   7.945  20.749  0.00  0.00    +0.000 OA
ATOM     19  N   UNL     1       2.501   7.420  18.993  0.00  0.00    +0.000 N 
ATOM     20  C   UNL     1       3.170   7.707  17.732  0.00  0.00    +0.000 C 
ATOM     21  C   UNL     1       2.999   6.253  19.703  0.00  0.00    +0.000 C 
ATOM     22  H   UNL     1       1.267   9.371  17.991  0.00  0.00    +0.000 HD
ENDBRANCH   8  16
BRANCH   1  24
ATOM     23  C   UNL     1      -6.249  12.699  17.357  0.00  0.00    +0.000 C 
ATOM     24  C   UNL     1      -4.979  12.140  16.727  0.00  0.00    +0.000 C 
ENDBRANCH   1  24
TORSDOF 2
ENDMDL
MODEL 9
REMARK VINA RESULT:      -5.5      8.988     10.502
REMARK  Name = 
REMARK  6 active torsions:
REMARK  status: ('A' for Active; 'I' for Inactive)
REMARK    1  A    between atoms: C_1  and  C_2
REMARK    2  A    between atoms: C_2  and  N_3
REMARK    3  A    between atoms: C_10  and  N_11
REMARK    4  A    between atoms: N_14  and  C_15
REMARK    5  A    between atoms: N_14  and  C_16
REMARK    6  A    between atoms: C_19  and  C_20
REMARK                            x       y       z     vdW  Elec       q    Type
REMARK                         _______ _______ _______ _____ _____    ______ ____
ROOT
ATOM      1  N   UNL     1      10.820  16.962  19.534  0.00  0.00    +0.000 NA
ATOM      2  C   UNL     1       9.432  16.629  19.891  0.00  0.00    +0.000 C 
ATOM      3  C   UNL     1       9.043  15.194  19.521  0.00  0.00    +0.000 C 
ATOM      4  C   UNL     1      10.007  14.153  20.130  0.00  0.00    +0.000 C 
ATOM      5  C   UNL     1      11.475  14.553  19.874  0.00  0.00    +0.000 C 
ATOM      6  C   UNL     1      11.742  16.029  20.191  0.00  0.00    +0.000 C 
ATOM      7  C   UNL     1       9.729  13.987  21.659  0.00  0.00    +0.000 C 
ATOM      8  C   UNL     1       9.418  12.505  21.957  0.00  0.00    +0.000 C 
ATOM      9  C   UNL     1       9.350  11.881  20.599  0.00  0.00    +0.000 A 
ATOM     10  C   UNL     1       9.031  10.557  20.313  0.00  0.00    +0.000 A 
ATOM     11  C   UNL     1       9.056  10.117  18.985  0.00  0.00    +0.000 A 
ATOM     12  C   UNL     1       8.719   8.695  18.639  0.00  0.00    +0.000 C 
ATOM     13  C   UNL     1       9.410  11.020  17.968  0.00  0.00    +0.000 A 
ATOM     14  C   UNL     1       9.734  12.348  18.266  0.00  0.00    +0.000 A 
ATOM     15  C   UNL     1       9.705  12.774  19.588  0.00  0.00    +0.000 A 
ENDROOT
BRANCH   8  16
ATOM     16  N   UNL     1       8.163  12.369  22.665  0.00  0.00    +0.000 N 
ATOM     17  C   UNL     1       8.160  12.221  24.024  0.00  0.00    +0.000 C 
ATOM     18  O   UNL     1       9.208  12.107  24.654  0.00  0.00    +0.000 OA
ATOM     19  N   UNL     1       6.914  12.178  24.625  0.00  0.00    +0.000 N 
ATOM     20  C   UNL     1       5.620  12.206  23.956  0.00  0.00    +0.000 C 
ATOM     21  C   UNL     1       6.863  11.904  26.052  0.00  0.00    +0.000 C 
ATOM     22  H   UNL     1       7.386  12.845  22.245  0.00  0.00    +0.000 HD
ENDBRANCH   8  16
BRANCH   1  24
ATOM     23  C   UNL     1      12.330  16.633  17.538  0.00  0.00    +0.000 C 
ATOM     24  C   UNL     1      10.978  17.083  18.076  0.00  0.00    +0.000 C 
ENDBRANCH   1  24
TORSDOF 2
ENDMDL
