MODEL 1
REMARK VINA RESULT:      -7.3      0.000      0.000
REMARK  Name = 
REMARK  2 active torsions:
REMARK  status: ('A' for Active; 'I' for Inactive)
REMARK    1  A    between atoms: N_10  and  C_11
REMARK    2  A    between atoms: C_11  and  C_12
REMARK                            x       y       z     vdW  Elec       q    Type
REMARK                         _______ _______ _______ _____ _____    ______ ____
ROOT
ATOM      1  O   UNL     1       5.070   4.431  14.354  0.00  0.00    +0.000 OA
ATOM      2  C   UNL     1       5.685   4.775  15.351  0.00  0.00    +0.000 A 
ATOM      3  N   UNL     1       6.464   5.936  15.458  0.00  0.00    +0.000 N 
ATOM      4  C   UNL     1       6.933   6.024  16.762  0.00  0.00    +0.000 A 
ATOM      5  C   UNL     1       7.679   7.006  17.365  0.00  0.00    +0.000 A 
ATOM      6  C   UNL     1       7.956   6.818  18.719  0.00  0.00    +0.000 A 
ATOM      7  C   UNL     1       7.463   5.675  19.370  0.00  0.00    +0.000 A 
ATOM      8  N   UNL     1       6.713   4.709  18.780  0.00  0.00    +0.000 NA
ATOM      9  C   UNL     1       6.481   4.917  17.481  0.00  0.00    +0.000 A 
ATOM     10  N   UNL     1       5.721   4.142  16.600  0.00  0.00    +0.000 N 
ATOM     11  H   UNL     1       6.581   6.604  14.714  0.00  0.00    +0.000 HD
ENDROOT
BRANCH  10  12
ATOM     12  C   UNL     1       4.903   3.032  16.991  0.00  0.00    +0.000 C 
BRANCH  12  13
ATOM     13  C   UNL     1       3.766   3.381  17.925  0.00  0.00    +0.000 A 
ATOM     14  C   UNL     1       2.757   4.265  17.513  0.00  0.00    +0.000 A 
ATOM     15  C   UNL     1       1.628   4.469  18.309  0.00  0.00    +0.000 A 
ATOM     16  C   UNL     1       1.517   3.806  19.525  0.00  0.00    +0.000 A 
ATOM     17  F   UNL     1       0.412   3.965  20.265  0.00  0.00    +0.000 F 
ATOM     18  C   UNL     1       2.530   2.970  19.978  0.00  0.00    +0.000 A 
ATOM     19  C   UNL     1       3.661   2.765  19.183  0.00  0.00    +0.000 A 
ENDBRANCH  12  13
ENDBRANCH  10  12
TORSDOF 2
ENDMDL
MODEL 2
REMARK VINA RESULT:      -7.2      3.059      5.315
REMARK  Name = 
REMARK  2 active torsions:
REMARK  status: ('A' for Active; 'I' for Inactive)
REMARK    1  A    between atoms: N_10  and  C_11
REMARK    2  A    between atoms: C_11  and  C_12
REMARK                            x       y       z     vdW  Elec       q    Type
REMARK                         _______ _______ _______ _____ _____    ______ ____
ROOT
ATOM      1  O   UNL     1       3.889   1.456  17.823  0.00  0.00    +0.000 OA
ATOM      2  C   UNL     1       3.439   2.501  18.266  0.00  0.00    +0.000 A 
ATOM      3  N   UNL     1       2.647   2.614  19.418  0.00  0.00    +0.000 N 
ATOM      4  C   UNL     1       2.402   3.962  19.644  0.00  0.00    +0.000 A 
ATOM      5  C   UNL     1       1.733   4.575  20.674  0.00  0.00    +0.000 A 
ATOM      6  C   UNL     1       1.695   5.968  20.635  0.00  0.00    +0.000 A 
ATOM      7  C   UNL     1       2.332   6.644  19.582  0.00  0.00    +0.000 A 
ATOM      8  N   UNL     1       3.006   6.042  18.568  0.00  0.00    +0.000 NA
ATOM      9  C   UNL     1       3.009   4.708  18.633  0.00  0.00    +0.000 A 
ATOM     10  N   UNL     1       3.636   3.798  17.777  0.00  0.00    +0.000 N 
ATOM     11  H   UNL     1       2.383   1.834  19.996  0.00  0.00    +0.000 HD
ENDROOT
BRANCH  10  12
ATOM     12  C   UNL     1       4.548   4.161  16.732  0.00  0.00    +0.000 C 
BRANCH  12  13
ATOM     13  C   UNL     1       5.711   5.020  17.176  0.00  0.00    +0.000 A 
ATOM     14  C   UNL     1       5.875   6.313  16.656  0.00  0.00    +0.000 A 
ATOM     15  C   UNL     1       6.852   7.164  17.174  0.00  0.00    +0.000 A 
ATOM     16  C   UNL     1       7.679   6.717  18.197  0.00  0.00    +0.000 A 
ATOM     17  F   UNL     1       8.584   7.551  18.727  0.00  0.00    +0.000 F 
ATOM     18  C   UNL     1       7.571   5.422  18.688  0.00  0.00    +0.000 A 
ATOM     19  C   UNL     1       6.594   4.568  18.170  0.00  0.00    +0.000 A 
ENDBRANCH  12  13
ENDBRANCH  10  12
TORSDOF 2
ENDMDL
MODEL 3
REMARK VINA RESULT:      -7.2      0.230      1.156
REMARK  Name = 
REMARK  2 active torsions:
REMARK  status: ('A' for Active; 'I' for Inactive)
REMARK    1  A    between atoms: N_10  and  C_11
REMARK    2  A    between atoms: C_11  and  C_12
REMARK                            x       y       z     vdW  Elec       q    Type
REMARK                         _______ _______ _______ _____ _____    ______ ____
ROOT
ATOM      1  O   UNL     1       4.968   4.492  14.417  0.00  0.00    +0.000 OA
ATOM      2  C   UNL     1       5.615   4.831  15.395  0.00  0.00    +0.000 A 
ATOM      3  N   UNL     1       6.356   6.017  15.501  0.00  0.00    +0.000 N 
ATOM      4  C   UNL     1       6.881   6.086  16.784  0.00  0.00    +0.000 A 
ATOM      5  C   UNL     1       7.619   7.078  17.382  0.00  0.00    +0.000 A 
ATOM      6  C   UNL     1       7.965   6.862  18.715  0.00  0.00    +0.000 A 
ATOM      7  C   UNL     1       7.544   5.685  19.353  0.00  0.00    +0.000 A 
ATOM      8  N   UNL     1       6.804   4.708  18.770  0.00  0.00    +0.000 NA
ATOM      9  C   UNL     1       6.504   4.943  17.490  0.00  0.00    +0.000 A 
ATOM     10  N   UNL     1       5.733   4.165  16.621  0.00  0.00    +0.000 N 
ATOM     11  H   UNL     1       6.414   6.710  14.773  0.00  0.00    +0.000 HD
ENDROOT
BRANCH  10  12
ATOM     12  C   UNL     1       4.975   3.014  17.016  0.00  0.00    +0.000 C 
BRANCH  12  13
ATOM     13  C   UNL     1       3.782   3.313  17.895  0.00  0.00    +0.000 A 
ATOM     14  C   UNL     1       3.766   2.892  19.234  0.00  0.00    +0.000 A 
ATOM     15  C   UNL     1       2.740   3.298  20.090  0.00  0.00    +0.000 A 
ATOM     16  C   UNL     1       1.720   4.106  19.604  0.00  0.00    +0.000 A 
ATOM     17  F   UNL     1       0.762   4.534  20.437  0.00  0.00    +0.000 F 
ATOM     18  C   UNL     1       1.686   4.488  18.268  0.00  0.00    +0.000 A 
ATOM     19  C   UNL     1       2.712   4.083  17.410  0.00  0.00    +0.000 A 
ENDBRANCH  12  13
ENDBRANCH  10  12
TORSDOF 2
ENDMDL
MODEL 4
REMARK VINA RESULT:      -7.1      2.148      3.105
REMARK  Name = 
REMARK  2 active torsions:
REMARK  status: ('A' for Active; 'I' for Inactive)
REMARK    1  A    between atoms: N_10  and  C_11
REMARK    2  A    between atoms: C_11  and  C_12
REMARK                            x       y       z     vdW  Elec       q    Type
REMARK                         _______ _______ _______ _____ _____    ______ ____
ROOT
ATOM      1  O   UNL     1       7.199   5.146  20.240  0.00  0.00    +0.000 OA
ATOM      2  C   UNL     1       6.900   5.137  19.056  0.00  0.00    +0.000 A 
ATOM      3  N   UNL     1       7.736   4.703  18.016  0.00  0.00    +0.000 N 
ATOM      4  C   UNL     1       7.019   4.766  16.830  0.00  0.00    +0.000 A 
ATOM      5  C   UNL     1       7.382   4.390  15.560  0.00  0.00    +0.000 A 
ATOM      6  C   UNL     1       6.406   4.543  14.575  0.00  0.00    +0.000 A 
ATOM      7  C   UNL     1       5.145   5.048  14.929  0.00  0.00    +0.000 A 
ATOM      8  N   UNL     1       4.777   5.408  16.186  0.00  0.00    +0.000 NA
ATOM      9  C   UNL     1       5.742   5.260  17.098  0.00  0.00    +0.000 A 
ATOM     10  N   UNL     1       5.680   5.501  18.474  0.00  0.00    +0.000 N 
ATOM     11  H   UNL     1       8.667   4.346  18.156  0.00  0.00    +0.000 HD
ENDROOT
BRANCH  10  12
ATOM     12  C   UNL     1       4.479   5.811  19.192  0.00  0.00    +0.000 C 
BRANCH  12  13
ATOM     13  C   UNL     1       3.411   4.743  19.133  0.00  0.00    +0.000 A 
ATOM     14  C   UNL     1       2.195   4.992  18.477  0.00  0.00    +0.000 A 
ATOM     15  C   UNL     1       1.272   3.962  18.286  0.00  0.00    +0.000 A 
ATOM     16  C   UNL     1       1.553   2.690  18.766  0.00  0.00    +0.000 A 
ATOM     17  F   UNL     1       0.689   1.692  18.540  0.00  0.00    +0.000 F 
ATOM     18  C   UNL     1       2.725   2.434  19.467  0.00  0.00    +0.000 A 
ATOM     19  C   UNL     1       3.651   3.463  19.660  0.00  0.00    +0.000 A 
ENDBRANCH  12  13
ENDBRANCH  10  12
TORSDOF 2
ENDMDL
MODEL 5
REMARK VINA RESULT:      -7.1      3.317      5.921
REMARK  Name = 
REMARK  2 active torsions:
REMARK  status: ('A' for Active; 'I' for Inactive)
REMARK    1  A    between atoms: N_10  and  C_11
REMARK    2  A    between atoms: C_11  and  C_12
REMARK                            x       y       z     vdW  Elec       q    Type
REMARK                         _______ _______ _______ _____ _____    ______ ____
ROOT
ATOM      1  O   UNL     1       7.109   4.460  18.498  0.00  0.00    +0.000 OA
ATOM      2  C   UNL     1       5.930   4.141  18.510  0.00  0.00    +0.000 A 
ATOM      3  N   UNL     1       5.315   3.361  19.501  0.00  0.00    +0.000 N 
ATOM      4  C   UNL     1       3.960   3.286  19.212  0.00  0.00    +0.000 A 
ATOM      5  C   UNL     1       2.941   2.692  19.915  0.00  0.00    +0.000 A 
ATOM      6  C   UNL     1       1.664   2.830  19.375  0.00  0.00    +0.000 A 
ATOM      7  C   UNL     1       1.495   3.555  18.184  0.00  0.00    +0.000 A 
ATOM      8  N   UNL     1       2.498   4.156  17.493  0.00  0.00    +0.000 NA
ATOM      9  C   UNL     1       3.708   3.990  18.034  0.00  0.00    +0.000 A 
ATOM     10  N   UNL     1       4.932   4.504  17.598  0.00  0.00    +0.000 N 
ATOM     11  H   UNL     1       5.796   2.996  20.306  0.00  0.00    +0.000 HD
ENDROOT
BRANCH  10  12
ATOM     12  C   UNL     1       5.082   5.463  16.543  0.00  0.00    +0.000 C 
BRANCH  12  13
ATOM     13  C   UNL     1       5.742   4.930  15.291  0.00  0.00    +0.000 A 
ATOM     14  C   UNL     1       5.035   4.084  14.422  0.00  0.00    +0.000 A 
ATOM     15  C   UNL     1       5.584   3.716  13.193  0.00  0.00    +0.000 A 
ATOM     16  C   UNL     1       6.847   4.175  12.840  0.00  0.00    +0.000 A 
ATOM     17  F   UNL     1       7.353   3.861  11.640  0.00  0.00    +0.000 F 
ATOM     18  C   UNL     1       7.587   4.967  13.708  0.00  0.00    +0.000 A 
ATOM     19  C   UNL     1       7.040   5.337  14.940  0.00  0.00    +0.000 A 
ENDBRANCH  12  13
ENDBRANCH  10  12
TORSDOF 2
ENDMDL
MODEL 6
REMARK VINA RESULT:      -7.0      2.117      3.218
REMARK  Name = 
REMARK  2 active torsions:
REMARK  status: ('A' for Active; 'I' for Inactive)
REMARK    1  A    between atoms: N_10  and  C_11
REMARK    2  A    between atoms: C_11  and  C_12
REMARK                            x       y       z     vdW  Elec       q    Type
REMARK                         _______ _______ _______ _____ _____    ______ ____
ROOT
ATOM      1  O   UNL     1       6.555   4.943  20.118  0.00  0.00    +0.000 OA
ATOM      2  C   UNL     1       6.478   5.033  18.903  0.00  0.00    +0.000 A 
ATOM      3  N   UNL     1       7.389   4.478  17.992  0.00  0.00    +0.000 N 
ATOM      4  C   UNL     1       6.920   4.721  16.708  0.00  0.00    +0.000 A 
ATOM      5  C   UNL     1       7.427   4.325  15.496  0.00  0.00    +0.000 A 
ATOM      6  C   UNL     1       6.691   4.701  14.373  0.00  0.00    +0.000 A 
ATOM      7  C   UNL     1       5.504   5.432  14.542  0.00  0.00    +0.000 A 
ATOM      8  N   UNL     1       4.992   5.815  15.740  0.00  0.00    +0.000 NA
ATOM      9  C   UNL     1       5.732   5.449  16.790  0.00  0.00    +0.000 A 
ATOM     10  N   UNL     1       5.472   5.650  18.149  0.00  0.00    +0.000 N 
ATOM     11  H   UNL     1       8.195   3.939  18.263  0.00  0.00    +0.000 HD
ENDROOT
BRANCH  10  12
ATOM     12  C   UNL     1       4.242   6.167  18.673  0.00  0.00    +0.000 C 
BRANCH  12  13
ATOM     13  C   UNL     1       3.189   5.122  18.966  0.00  0.00    +0.000 A 
ATOM     14  C   UNL     1       2.793   4.867  20.289  0.00  0.00    +0.000 A 
ATOM     15  C   UNL     1       1.716   4.019  20.552  0.00  0.00    +0.000 A 
ATOM     16  C   UNL     1       1.048   3.410  19.498  0.00  0.00    +0.000 A 
ATOM     17  F   UNL     1      -0.015   2.634  19.749  0.00  0.00    +0.000 F 
ATOM     18  C   UNL     1       1.458   3.604  18.185  0.00  0.00    +0.000 A 
ATOM     19  C   UNL     1       2.536   4.452  17.918  0.00  0.00    +0.000 A 
ENDBRANCH  12  13
ENDBRANCH  10  12
TORSDOF 2
ENDMDL
MODEL 7
REMARK VINA RESULT:      -7.0      3.086      3.780
REMARK  Name = 
REMARK  2 active torsions:
REMARK  status: ('A' for Active; 'I' for Inactive)
REMARK    1  A    between atoms: N_10  and  C_11
REMARK    2  A    between atoms: C_11  and  C_12
REMARK                            x       y       z     vdW  Elec       q    Type
REMARK                         _______ _______ _______ _____ _____    ______ ____
ROOT
ATOM      1  O   UNL     1       2.141   3.642  17.104  0.00  0.00    +0.000 OA
ATOM      2  C   UNL     1       3.266   3.954  17.463  0.00  0.00    +0.000 A 
ATOM      3  N   UNL     1       4.434   3.776  16.706  0.00  0.00    +0.000 N 
ATOM      4  C   UNL     1       5.494   4.326  17.412  0.00  0.00    +0.000 A 
ATOM      5  C   UNL     1       6.816   4.452  17.061  0.00  0.00    +0.000 A 
ATOM      6  C   UNL     1       7.635   5.098  17.985  0.00  0.00    +0.000 A 
ATOM      7  C   UNL     1       7.078   5.577  19.181  0.00  0.00    +0.000 A 
ATOM      8  N   UNL     1       5.770   5.467  19.527  0.00  0.00    +0.000 NA
ATOM      9  C   UNL     1       5.020   4.831  18.624  0.00  0.00    +0.000 A 
ATOM     10  N   UNL     1       3.644   4.585  18.655  0.00  0.00    +0.000 N 
ATOM     11  H   UNL     1       4.448   3.378  15.782  0.00  0.00    +0.000 HD
ENDROOT
BRANCH  10  12
ATOM     12  C   UNL     1       2.742   5.131  19.626  0.00  0.00    +0.000 C 
BRANCH  12  13
ATOM     13  C   UNL     1       2.384   6.584  19.411  0.00  0.00    +0.000 A 
ATOM     14  C   UNL     1       2.517   7.166  18.141  0.00  0.00    +0.000 A 
ATOM     15  C   UNL     1       2.043   8.458  17.902  0.00  0.00    +0.000 A 
ATOM     16  C   UNL     1       1.455   9.175  18.936  0.00  0.00    +0.000 A 
ATOM     17  F   UNL     1       0.957  10.395  18.695  0.00  0.00    +0.000 F 
ATOM     18  C   UNL     1       1.364   8.640  20.215  0.00  0.00    +0.000 A 
ATOM     19  C   UNL     1       1.838   7.347  20.456  0.00  0.00    +0.000 A 
ENDBRANCH  12  13
ENDBRANCH  10  12
TORSDOF 2
ENDMDL
MODEL 8
REMARK VINA RESULT:      -6.9      3.337      5.570
REMARK  Name = 
REMARK  2 active torsions:
REMARK  status: ('A' for Active; 'I' for Inactive)
REMARK    1  A    between atoms: N_10  and  C_11
REMARK    2  A    between atoms: C_11  and  C_12
REMARK                            x       y       z     vdW  Elec       q    Type
REMARK                         _______ _______ _______ _____ _____    ______ ____
ROOT
ATOM      1  O   UNL     1       5.030   1.789  19.954  0.00  0.00    +0.000 OA
ATOM      2  C   UNL     1       4.332   2.790  19.923  0.00  0.00    +0.000 A 
ATOM      3  N   UNL     1       3.060   2.906  20.504  0.00  0.00    +0.000 N 
ATOM      4  C   UNL     1       2.622   4.212  20.330  0.00  0.00    +0.000 A 
ATOM      5  C   UNL     1       1.476   4.823  20.774  0.00  0.00    +0.000 A 
ATOM      6  C   UNL     1       1.346   6.176  20.465  0.00  0.00    +0.000 A 
ATOM      7  C   UNL     1       2.368   6.820  19.749  0.00  0.00    +0.000 A 
ATOM      8  N   UNL     1       3.510   6.222  19.319  0.00  0.00    +0.000 NA
ATOM      9  C   UNL     1       3.591   4.924  19.621  0.00  0.00    +0.000 A 
ATOM     10  N   UNL     1       4.639   4.036  19.361  0.00  0.00    +0.000 N 
ATOM     11  H   UNL     1       2.606   2.166  21.013  0.00  0.00    +0.000 HD
ENDROOT
BRANCH  10  12
ATOM     12  C   UNL     1       5.919   4.418  18.843  0.00  0.00    +0.000 C 
BRANCH  12  13
ATOM     13  C   UNL     1       5.998   4.487  17.335  0.00  0.00    +0.000 A 
ATOM     14  C   UNL     1       7.171   4.934  16.707  0.00  0.00    +0.000 A 
ATOM     15  C   UNL     1       7.304   4.853  15.319  0.00  0.00    +0.000 A 
ATOM     16  C   UNL     1       6.260   4.344  14.558  0.00  0.00    +0.000 A 
ATOM     17  F   UNL     1       6.407   4.222  13.232  0.00  0.00    +0.000 F 
ATOM     18  C   UNL     1       5.069   3.948  15.154  0.00  0.00    +0.000 A 
ATOM     19  C   UNL     1       4.933   4.028  16.543  0.00  0.00    +0.000 A 
ENDBRANCH  12  13
ENDBRANCH  10  12
TORSDOF 2
ENDMDL
MODEL 9
REMARK VINA RESULT:      -6.9      3.136      5.508
REMARK  Name = 
REMARK  2 active torsions:
REMARK  status: ('A' for Active; 'I' for Inactive)
REMARK    1  A    between atoms: N_10  and  C_11
REMARK    2  A    between atoms: C_11  and  C_12
REMARK                            x       y       z     vdW  Elec       q    Type
REMARK                         _______ _______ _______ _____ _____    ______ ____
ROOT
ATOM      1  O   UNL     1       3.931   7.102  17.819  0.00  0.00    +0.000 OA
ATOM      2  C   UNL     1       3.522   6.210  18.545  0.00  0.00    +0.000 A 
ATOM      3  N   UNL     1       2.182   6.021  18.915  0.00  0.00    +0.000 N 
ATOM      4  C   UNL     1       2.102   4.861  19.673  0.00  0.00    +0.000 A 
ATOM      5  C   UNL     1       1.004   4.233  20.207  0.00  0.00    +0.000 A 
ATOM      6  C   UNL     1       1.254   3.044  20.893  0.00  0.00    +0.000 A 
ATOM      7  C   UNL     1       2.572   2.569  20.987  0.00  0.00    +0.000 A 
ATOM      8  N   UNL     1       3.658   3.181  20.449  0.00  0.00    +0.000 NA
ATOM      9  C   UNL     1       3.381   4.322  19.812  0.00  0.00    +0.000 A 
ATOM     10  N   UNL     1       4.255   5.167  19.124  0.00  0.00    +0.000 N 
ATOM     11  H   UNL     1       1.426   6.608  18.603  0.00  0.00    +0.000 HD
ENDROOT
BRANCH  10  12
ATOM     12  C   UNL     1       5.627   4.862  18.841  0.00  0.00    +0.000 C 
BRANCH  12  13
ATOM     13  C   UNL     1       5.925   4.573  17.387  0.00  0.00    +0.000 A 
ATOM     14  C   UNL     1       4.983   3.905  16.590  0.00  0.00    +0.000 A 
ATOM     15  C   UNL     1       5.186   3.774  15.215  0.00  0.00    +0.000 A 
ATOM     16  C   UNL     1       6.340   4.292  14.640  0.00  0.00    +0.000 A 
ATOM     17  F   UNL     1       6.512   4.209  13.314  0.00  0.00    +0.000 F 
ATOM     18  C   UNL     1       7.312   4.908  15.418  0.00  0.00    +0.000 A 
ATOM     19  C   UNL     1       7.111   5.040  16.795  0.00  0.00    +0.000 A 
ENDBRANCH  12  13
ENDBRANCH  10  12
TORSDOF 2
ENDMDL
