MODEL 1
REMARK VINA RESULT:      -7.3      0.000      0.000
REMARK  Name = 
REMARK  8 active torsions:
REMARK  status: ('A' for Active; 'I' for Inactive)
REMARK    1  A    between atoms: C_1  and  C_2
REMARK    2  A    between atoms: C_2  and  N_3
REMARK    3  A    between atoms: C_4  and  C_6
REMARK    4  A    between atoms: C_6  and  N_7
REMARK    5  A    between atoms: N_7  and  C_8
REMARK    6  A    between atoms: C_8  and  C_9
REMARK    7  A    between atoms: C_10  and  C_12
REMARK    8  A    between atoms: C_14  and  C_15
REMARK                            x       y       z     vdW  Elec       q    Type
REMARK                         _______ _______ _______ _____ _____    ______ ____
ROOT
ATOM      1  N   UNL     1       6.088   5.292  17.386  0.00  0.00    +0.000 N 
ATOM      2  C   UNL     1       4.704   5.244  17.148  0.00  0.00    +0.000 C 
ATOM      3  O   UNL     1       4.210   4.244  16.620  0.00  0.00    +0.000 OA
ENDROOT
BRANCH   2   4
ATOM      4  C   UNL     1       3.871   6.346  17.585  0.00  0.00    +0.000 A 
ATOM      5  C   UNL     1       3.060   6.484  18.685  0.00  0.00    +0.000 A 
ATOM      6  C   UNL     1       2.508   7.789  18.588  0.00  0.00    +0.000 A 
ATOM      7  N   UNL     1       2.938   8.387  17.467  0.00  0.00    +0.000 NA
ATOM      8  O   UNL     1       3.748   7.473  16.829  0.00  0.00    +0.000 OA
BRANCH   6   9
ATOM      9  C   UNL     1       1.607   8.453  19.528  0.00  0.00    +0.000 A 
ATOM     10  C   UNL     1       1.472   7.998  20.847  0.00  0.00    +0.000 A 
ATOM     11  C   UNL     1       0.583   8.629  21.729  0.00  0.00    +0.000 A 
ATOM     12  C   UNL     1      -0.165   9.716  21.298  0.00  0.00    +0.000 A 
ATOM     13  C   UNL     1      -0.029  10.178  19.993  0.00  0.00    +0.000 A 
ATOM     14 CL   UNL     1      -0.949  11.529  19.455  0.00  0.00    +0.000 Cl
ATOM     15  C   UNL     1       0.852   9.556  19.109  0.00  0.00    +0.000 A 
ENDBRANCH   6   9
ENDBRANCH   2   4
BRANCH   1  16
ATOM     16  C   UNL     1       6.701   6.367  18.179  0.00  0.00    +0.000 C 
ATOM     17  C   UNL     1       7.485   7.446  17.458  0.00  0.00    +0.000 C 
ENDBRANCH   1  16
BRANCH   1  18
ATOM     18  C   UNL     1       6.925   4.336  16.650  0.00  0.00    +0.000 C 
BRANCH  18  20
ATOM     19  N   UNL     1       6.354   3.644  14.308  0.00  0.00    +0.000 N 
ATOM     20  C   UNL     1       7.069   4.504  15.126  0.00  0.00    +0.000 C 
ATOM     21  O   UNL     1       7.685   5.469  14.666  0.00  0.00    +0.000 OA
ATOM     22  H   UNL     1       5.554   3.188  14.741  0.00  0.00    +0.000 HD
BRANCH  19  24
ATOM     23  C   UNL     1       5.650   2.870  12.039  0.00  0.00    +0.000 C 
ATOM     24  C   UNL     1       6.306   3.943  12.885  0.00  0.00    +0.000 C 
ENDBRANCH  19  24
ENDBRANCH  18  20
ENDBRANCH   1  18
TORSDOF 6
ENDMDL
MODEL 2
REMARK VINA RESULT:      -7.1      1.162      1.539
REMARK  Name = 
REMARK  8 active torsions:
REMARK  status: ('A' for Active; 'I' for Inactive)
REMARK    1  A    between atoms: C_1  and  C_2
REMARK    2  A    between atoms: C_2  and  N_3
REMARK    3  A    between atoms: C_4  and  C_6
REMARK    4  A    between atoms: C_6  and  N_7
REMARK    5  A    between atoms: N_7  and  C_8
REMARK    6  A    between atoms: C_8  and  C_9
REMARK    7  A    between atoms: C_10  and  C_12
REMARK    8  A    between atoms: C_14  and  C_15
REMARK                            x       y       z     vdW  Elec       q    Type
REMARK                         _______ _______ _______ _____ _____    ______ ____
ROOT
ATOM      1  N   UNL     1       5.740   5.729  17.295  0.00  0.00    +0.000 N 
ATOM      2  C   UNL     1       4.410   5.520  17.697  0.00  0.00    +0.000 C 
ATOM      3  O   UNL     1       4.009   4.372  17.904  0.00  0.00    +0.000 OA
ENDROOT
BRANCH   2   4
ATOM      4  C   UNL     1       3.550   6.664  17.923  0.00  0.00    +0.000 A 
ATOM      5  C   UNL     1       2.708   6.969  18.966  0.00  0.00    +0.000 A 
ATOM      6  C   UNL     1       2.140   8.228  18.639  0.00  0.00    +0.000 A 
ATOM      7  N   UNL     1       2.590   8.638  17.444  0.00  0.00    +0.000 NA
ATOM      8  O   UNL     1       3.430   7.646  16.987  0.00  0.00    +0.000 OA
BRANCH   6   9
ATOM      9  C   UNL     1       1.206   9.024  19.433  0.00  0.00    +0.000 A 
ATOM     10  C   UNL     1       0.377   9.982  18.834  0.00  0.00    +0.000 A 
ATOM     11  C   UNL     1      -0.493  10.756  19.613  0.00  0.00    +0.000 A 
ATOM     12  C   UNL     1      -0.543  10.571  20.987  0.00  0.00    +0.000 A 
ATOM     13  C   UNL     1       0.269   9.614  21.588  0.00  0.00    +0.000 A 
ATOM     14 CL   UNL     1       0.208   9.376  23.291  0.00  0.00    +0.000 Cl
ATOM     15  C   UNL     1       1.140   8.841  20.821  0.00  0.00    +0.000 A 
ENDBRANCH   6   9
ENDBRANCH   2   4
BRANCH   1  16
ATOM     16  C   UNL     1       6.324   7.075  17.221  0.00  0.00    +0.000 C 
ATOM     17  C   UNL     1       7.694   7.308  17.830  0.00  0.00    +0.000 C 
ENDBRANCH   1  16
BRANCH   1  18
ATOM     18  C   UNL     1       6.467   4.568  16.764  0.00  0.00    +0.000 C 
BRANCH  18  20
ATOM     19  N   UNL     1       6.263   3.623  14.450  0.00  0.00    +0.000 N 
ATOM     20  C   UNL     1       6.859   4.564  15.275  0.00  0.00    +0.000 C 
ATOM     21  O   UNL     1       7.567   5.465  14.820  0.00  0.00    +0.000 OA
ATOM     22  H   UNL     1       5.391   3.226  14.793  0.00  0.00    +0.000 HD
BRANCH  19  24
ATOM     23  C   UNL     1       5.272   3.312  12.178  0.00  0.00    +0.000 C 
ATOM     24  C   UNL     1       6.453   3.761  13.014  0.00  0.00    +0.000 C 
ENDBRANCH  19  24
ENDBRANCH  18  20
ENDBRANCH   1  18
TORSDOF 6
ENDMDL
MODEL 3
REMARK VINA RESULT:      -7.0      1.465      1.812
REMARK  Name = 
REMARK  8 active torsions:
REMARK  status: ('A' for Active; 'I' for Inactive)
REMARK    1  A    between atoms: C_1  and  C_2
REMARK    2  A    between atoms: C_2  and  N_3
REMARK    3  A    between atoms: C_4  and  C_6
REMARK    4  A    between atoms: C_6  and  N_7
REMARK    5  A    between atoms: N_7  and  C_8
REMARK    6  A    between atoms: C_8  and  C_9
REMARK    7  A    between atoms: C_10  and  C_12
REMARK    8  A    between atoms: C_14  and  C_15
REMARK                            x       y       z     vdW  Elec       q    Type
REMARK                         _______ _______ _______ _____ _____    ______ ____
ROOT
ATOM      1  N   UNL     1       6.173   4.798  17.328  0.00  0.00    +0.000 N 
ATOM      2  C   UNL     1       4.800   4.508  17.389  0.00  0.00    +0.000 C 
ATOM      3  O   UNL     1       4.361   3.510  16.810  0.00  0.00    +0.000 OA
ENDROOT
BRANCH   2   4
ATOM      4  C   UNL     1       3.931   5.352  18.184  0.00  0.00    +0.000 A 
ATOM      5  C   UNL     1       3.447   6.618  17.957  0.00  0.00    +0.000 A 
ATOM      6  C   UNL     1       2.634   6.919  19.082  0.00  0.00    +0.000 A 
ATOM      7  N   UNL     1       2.660   5.900  19.954  0.00  0.00    +0.000 NA
ATOM      8  O   UNL     1       3.499   4.951  19.412  0.00  0.00    +0.000 OA
BRANCH   6   9
ATOM      9  C   UNL     1       1.850   8.129  19.322  0.00  0.00    +0.000 A 
ATOM     10  C   UNL     1       1.648   9.076  18.308  0.00  0.00    +0.000 A 
ATOM     11  C   UNL     1       0.918  10.245  18.563  0.00  0.00    +0.000 A 
ATOM     12  C   UNL     1       0.384  10.467  19.824  0.00  0.00    +0.000 A 
ATOM     13  C   UNL     1       0.572   9.527  20.832  0.00  0.00    +0.000 A 
ATOM     14 CL   UNL     1      -0.092   9.794  22.397  0.00  0.00    +0.000 Cl
ATOM     15  C   UNL     1       1.299   8.362  20.589  0.00  0.00    +0.000 A 
ENDBRANCH   6   9
ENDBRANCH   2   4
BRANCH   1  16
ATOM     16  C   UNL     1       6.779   5.854  18.150  0.00  0.00    +0.000 C 
ATOM     17  C   UNL     1       7.449   7.023  17.453  0.00  0.00    +0.000 C 
ENDBRANCH   1  16
BRANCH   1  18
ATOM     18  C   UNL     1       6.949   4.136  16.271  0.00  0.00    +0.000 C 
BRANCH  18  20
ATOM     19  N   UNL     1       6.735   3.555  13.840  0.00  0.00    +0.000 N 
ATOM     20  C   UNL     1       6.698   4.546  14.808  0.00  0.00    +0.000 C 
ATOM     21  O   UNL     1       6.332   5.694  14.542  0.00  0.00    +0.000 OA
ATOM     22  H   UNL     1       6.602   2.604  14.178  0.00  0.00    +0.000 HD
BRANCH  19  24
ATOM     23  C   UNL     1       4.900   3.361  12.156  0.00  0.00    +0.000 C 
ATOM     24  C   UNL     1       6.276   3.894  12.502  0.00  0.00    +0.000 C 
ENDBRANCH  19  24
ENDBRANCH  18  20
ENDBRANCH   1  18
TORSDOF 6
ENDMDL
MODEL 4
REMARK VINA RESULT:      -6.8      3.686      8.432
REMARK  Name = 
REMARK  8 active torsions:
REMARK  status: ('A' for Active; 'I' for Inactive)
REMARK    1  A    between atoms: C_1  and  C_2
REMARK    2  A    between atoms: C_2  and  N_3
REMARK    3  A    between atoms: C_4  and  C_6
REMARK    4  A    between atoms: C_6  and  N_7
REMARK    5  A    between atoms: N_7  and  C_8
REMARK    6  A    between atoms: C_8  and  C_9
REMARK    7  A    between atoms: C_10  and  C_12
REMARK    8  A    between atoms: C_14  and  C_15
REMARK                            x       y       z     vdW  Elec       q    Type
REMARK                         _______ _______ _______ _____ _____    ______ ____
ROOT
ATOM      1  N   UNL     1       3.848   4.247  19.194  0.00  0.00    +0.000 N 
ATOM      2  C   UNL     1       5.087   4.893  19.045  0.00  0.00    +0.000 C 
ATOM      3  O   UNL     1       5.526   5.592  19.963  0.00  0.00    +0.000 OA
ENDROOT
BRANCH   2   4
ATOM      4  C   UNL     1       5.860   4.675  17.839  0.00  0.00    +0.000 A 
ATOM      5  C   UNL     1       5.491   4.692  16.515  0.00  0.00    +0.000 A 
ATOM      6  C   UNL     1       6.680   4.422  15.787  0.00  0.00    +0.000 A 
ATOM      7  N   UNL     1       7.700   4.218  16.634  0.00  0.00    +0.000 NA
ATOM      8  O   UNL     1       7.177   4.334  17.903  0.00  0.00    +0.000 OA
BRANCH   6   9
ATOM      9  C   UNL     1       6.850   4.366  14.336  0.00  0.00    +0.000 A 
ATOM     10  C   UNL     1       7.671   5.284  13.666  0.00  0.00    +0.000 A 
ATOM     11  C   UNL     1       7.801   5.234  12.272  0.00  0.00    +0.000 A 
ATOM     12  C   UNL     1       7.119   4.268  11.546  0.00  0.00    +0.000 A 
ATOM     13  C   UNL     1       6.310   3.348  12.205  0.00  0.00    +0.000 A 
ATOM     14 CL   UNL     1       5.467   2.143  11.313  0.00  0.00    +0.000 Cl
ATOM     15  C   UNL     1       6.173   3.390  13.593  0.00  0.00    +0.000 A 
ENDBRANCH   6   9
ENDBRANCH   2   4
BRANCH   1  16
ATOM     16  C   UNL     1       3.369   3.256  18.222  0.00  0.00    +0.000 C 
ATOM     17  C   UNL     1       2.953   1.887  18.725  0.00  0.00    +0.000 C 
ENDBRANCH   1  16
BRANCH   1  18
ATOM     18  C   UNL     1       2.962   4.743  20.256  0.00  0.00    +0.000 C 
BRANCH  18  20
ATOM     19  N   UNL     1       1.781   6.773  21.135  0.00  0.00    +0.000 N 
ATOM     20  C   UNL     1       2.199   6.060  20.023  0.00  0.00    +0.000 C 
ATOM     21  O   UNL     1       2.102   6.524  18.884  0.00  0.00    +0.000 OA
ATOM     22  H   UNL     1       2.271   6.564  22.002  0.00  0.00    +0.000 HD
BRANCH  19  24
ATOM     23  C   UNL     1       1.236   8.979  22.173  0.00  0.00    +0.000 C 
ATOM     24  C   UNL     1       1.268   8.118  20.926  0.00  0.00    +0.000 C 
ENDBRANCH  19  24
ENDBRANCH  18  20
ENDBRANCH   1  18
TORSDOF 6
ENDMDL
MODEL 5
REMARK VINA RESULT:      -6.7      1.541      1.632
REMARK  Name = 
REMARK  8 active torsions:
REMARK  status: ('A' for Active; 'I' for Inactive)
REMARK    1  A    between atoms: C_1  and  C_2
REMARK    2  A    between atoms: C_2  and  N_3
REMARK    3  A    between atoms: C_4  and  C_6
REMARK    4  A    between atoms: C_6  and  N_7
REMARK    5  A    between atoms: N_7  and  C_8
REMARK    6  A    between atoms: C_8  and  C_9
REMARK    7  A    between atoms: C_10  and  C_12
REMARK    8  A    between atoms: C_14  and  C_15
REMARK                            x       y       z     vdW  Elec       q    Type
REMARK                         _______ _______ _______ _____ _____    ______ ____
ROOT
ATOM      1  N   UNL     1       6.144   4.828  18.062  0.00  0.00    +0.000 N 
ATOM      2  C   UNL     1       4.804   4.403  18.053  0.00  0.00    +0.000 C 
ATOM      3  O   UNL     1       4.491   3.388  17.424  0.00  0.00    +0.000 OA
ENDROOT
BRANCH   2   4
ATOM      4  C   UNL     1       3.825   5.130  18.834  0.00  0.00    +0.000 A 
ATOM      5  C   UNL     1       3.468   6.457  18.828  0.00  0.00    +0.000 A 
ATOM      6  C   UNL     1       2.441   6.578  19.802  0.00  0.00    +0.000 A 
ATOM      7  N   UNL     1       2.221   5.391  20.386  0.00  0.00    +0.000 NA
ATOM      8  O   UNL     1       3.109   4.508  19.813  0.00  0.00    +0.000 OA
BRANCH   6   9
ATOM      9  C   UNL     1       1.686   7.776  20.164  0.00  0.00    +0.000 A 
ATOM     10  C   UNL     1       1.075   7.896  21.420  0.00  0.00    +0.000 A 
ATOM     11  C   UNL     1       0.332   9.039  21.741  0.00  0.00    +0.000 A 
ATOM     12  C   UNL     1       0.203  10.065  20.815  0.00  0.00    +0.000 A 
ATOM     13  C   UNL     1       0.815   9.957  19.571  0.00  0.00    +0.000 A 
ATOM     14 CL   UNL     1       0.663  11.227  18.421  0.00  0.00    +0.000 Cl
ATOM     15  C   UNL     1       1.555   8.822  19.241  0.00  0.00    +0.000 A 
ENDBRANCH   6   9
ENDBRANCH   2   4
BRANCH   1  16
ATOM     16  C   UNL     1       6.607   5.909  18.942  0.00  0.00    +0.000 C 
ATOM     17  C   UNL     1       8.013   6.445  18.757  0.00  0.00    +0.000 C 
ENDBRANCH   1  16
BRANCH   1  18
ATOM     18  C   UNL     1       7.024   4.283  17.020  0.00  0.00    +0.000 C 
BRANCH  18  20
ATOM     19  N   UNL     1       6.209   3.608  14.746  0.00  0.00    +0.000 N 
ATOM     20  C   UNL     1       6.717   4.617  15.549  0.00  0.00    +0.000 C 
ATOM     21  O   UNL     1       6.786   5.784  15.153  0.00  0.00    +0.000 OA
ATOM     22  H   UNL     1       5.775   2.831  15.239  0.00  0.00    +0.000 HD
BRANCH  19  24
ATOM     23  C   UNL     1       6.540   3.462  12.274  0.00  0.00    +0.000 C 
ATOM     24  C   UNL     1       5.706   3.975  13.431  0.00  0.00    +0.000 C 
ENDBRANCH  19  24
ENDBRANCH  18  20
ENDBRANCH   1  18
TORSDOF 6
ENDMDL
MODEL 6
REMARK VINA RESULT:      -6.7      2.500      3.751
REMARK  Name = 
REMARK  8 active torsions:
REMARK  status: ('A' for Active; 'I' for Inactive)
REMARK    1  A    between atoms: C_1  and  C_2
REMARK    2  A    between atoms: C_2  and  N_3
REMARK    3  A    between atoms: C_4  and  C_6
REMARK    4  A    between atoms: C_6  and  N_7
REMARK    5  A    between atoms: N_7  and  C_8
REMARK    6  A    between atoms: C_8  and  C_9
REMARK    7  A    between atoms: C_10  and  C_12
REMARK    8  A    between atoms: C_14  and  C_15
REMARK                            x       y       z     vdW  Elec       q    Type
REMARK                         _______ _______ _______ _____ _____    ______ ____
ROOT
ATOM      1  N   UNL     1       3.113   5.348  17.842  0.00  0.00    +0.000 N 
ATOM      2  C   UNL     1       3.371   6.721  17.697  0.00  0.00    +0.000 C 
ATOM      3  O   UNL     1       4.315   7.094  16.994  0.00  0.00    +0.000 OA
ENDROOT
BRANCH   2   4
ATOM      4  C   UNL     1       2.484   7.680  18.325  0.00  0.00    +0.000 A 
ATOM      5  C   UNL     1       2.066   7.805  19.628  0.00  0.00    +0.000 A 
ATOM      6  C   UNL     1       1.214   8.940  19.645  0.00  0.00    +0.000 A 
ATOM      7  N   UNL     1       1.099   9.447  18.409  0.00  0.00    +0.000 NA
ATOM      8  O   UNL     1       1.854   8.637  17.589  0.00  0.00    +0.000 OA
BRANCH   6   9
ATOM      9  C   UNL     1       0.535   9.534  20.796  0.00  0.00    +0.000 A 
ATOM     10  C   UNL     1       0.658   8.978  22.077  0.00  0.00    +0.000 A 
ATOM     11  C   UNL     1      -0.021   9.543  23.165  0.00  0.00    +0.000 A 
ATOM     12  C   UNL     1      -0.818  10.663  22.977  0.00  0.00    +0.000 A 
ATOM     13  C   UNL     1      -0.938  11.225  21.711  0.00  0.00    +0.000 A 
ATOM     14 CL   UNL     1      -1.920  12.618  21.473  0.00  0.00    +0.000 Cl
ATOM     15  C   UNL     1      -0.266  10.670  20.622  0.00  0.00    +0.000 A 
ENDBRANCH   6   9
ENDBRANCH   2   4
BRANCH   1  16
ATOM     16  C   UNL     1       1.897   4.854  18.504  0.00  0.00    +0.000 C 
ATOM     17  C   UNL     1       1.415   3.452  18.184  0.00  0.00    +0.000 C 
ENDBRANCH   1  16
BRANCH   1  18
ATOM     18  C   UNL     1       4.195   4.424  17.480  0.00  0.00    +0.000 C 
BRANCH  18  20
ATOM     19  N   UNL     1       6.496   5.362  17.827  0.00  0.00    +0.000 N 
ATOM     20  C   UNL     1       5.515   4.490  18.272  0.00  0.00    +0.000 C 
ATOM     21  O   UNL     1       5.622   3.892  19.346  0.00  0.00    +0.000 OA
ATOM     22  H   UNL     1       6.174   6.116  17.225  0.00  0.00    +0.000 HD
BRANCH  19  24
ATOM     23  C   UNL     1       8.179   7.012  18.655  0.00  0.00    +0.000 C 
ATOM     24  C   UNL     1       7.640   5.596  18.693  0.00  0.00    +0.000 C 
ENDBRANCH  19  24
ENDBRANCH  18  20
ENDBRANCH   1  18
TORSDOF 6
ENDMDL
MODEL 7
REMARK VINA RESULT:      -6.6      2.719      4.030
REMARK  Name = 
REMARK  8 active torsions:
REMARK  status: ('A' for Active; 'I' for Inactive)
REMARK    1  A    between atoms: C_1  and  C_2
REMARK    2  A    between atoms: C_2  and  N_3
REMARK    3  A    between atoms: C_4  and  C_6
REMARK    4  A    between atoms: C_6  and  N_7
REMARK    5  A    between atoms: N_7  and  C_8
REMARK    6  A    between atoms: C_8  and  C_9
REMARK    7  A    between atoms: C_10  and  C_12
REMARK    8  A    between atoms: C_14  and  C_15
REMARK                            x       y       z     vdW  Elec       q    Type
REMARK                         _______ _______ _______ _____ _____    ______ ____
ROOT
ATOM      1  N   UNL     1       2.894   4.864  18.130  0.00  0.00    +0.000 N 
ATOM      2  C   UNL     1       3.302   6.176  17.833  0.00  0.00    +0.000 C 
ATOM      3  O   UNL     1       4.254   6.361  17.071  0.00  0.00    +0.000 OA
ENDROOT
BRANCH   2   4
ATOM      4  C   UNL     1       2.555   7.290  18.379  0.00  0.00    +0.000 A 
ATOM      5  C   UNL     1       2.005   8.393  17.771  0.00  0.00    +0.000 A 
ATOM      6  C   UNL     1       1.382   9.129  18.813  0.00  0.00    +0.000 A 
ATOM      7  N   UNL     1       1.580   8.517  19.990  0.00  0.00    +0.000 NA
ATOM      8  O   UNL     1       2.343   7.401  19.720  0.00  0.00    +0.000 OA
BRANCH   6   9
ATOM      9  C   UNL     1       0.616  10.369  18.701  0.00  0.00    +0.000 A 
ATOM     10  C   UNL     1      -0.765  10.350  18.462  0.00  0.00    +0.000 A 
ATOM     11  C   UNL     1      -1.481  11.547  18.329  0.00  0.00    +0.000 A 
ATOM     12  C   UNL     1      -0.821  12.764  18.441  0.00  0.00    +0.000 A 
ATOM     13  C   UNL     1       0.547  12.791  18.688  0.00  0.00    +0.000 A 
ATOM     14 CL   UNL     1       1.369  14.295  18.834  0.00  0.00    +0.000 Cl
ATOM     15  C   UNL     1       1.267  11.604  18.820  0.00  0.00    +0.000 A 
ENDBRANCH   6   9
ENDBRANCH   2   4
BRANCH   1  16
ATOM     16  C   UNL     1       1.657   4.586  18.871  0.00  0.00    +0.000 C 
ATOM     17  C   UNL     1       1.758   3.928  20.234  0.00  0.00    +0.000 C 
ENDBRANCH   1  16
BRANCH   1  18
ATOM     18  C   UNL     1       3.850   3.787  17.840  0.00  0.00    +0.000 C 
BRANCH  18  20
ATOM     19  N   UNL     1       6.274   4.316  17.471  0.00  0.00    +0.000 N 
ATOM     20  C   UNL     1       5.291   3.921  18.365  0.00  0.00    +0.000 C 
ATOM     21  O   UNL     1       5.521   3.822  19.573  0.00  0.00    +0.000 OA
ATOM     22  H   UNL     1       5.943   4.794  16.636  0.00  0.00    +0.000 HD
BRANCH  19  24
ATOM     23  C   UNL     1       7.701   6.097  18.486  0.00  0.00    +0.000 C 
ATOM     24  C   UNL     1       7.580   4.664  18.008  0.00  0.00    +0.000 C 
ENDBRANCH  19  24
ENDBRANCH  18  20
ENDBRANCH   1  18
TORSDOF 6
ENDMDL
MODEL 8
REMARK VINA RESULT:      -6.6      3.729      8.097
REMARK  Name = 
REMARK  8 active torsions:
REMARK  status: ('A' for Active; 'I' for Inactive)
REMARK    1  A    between atoms: C_1  and  C_2
REMARK    2  A    between atoms: C_2  and  N_3
REMARK    3  A    between atoms: C_4  and  C_6
REMARK    4  A    between atoms: C_6  and  N_7
REMARK    5  A    between atoms: N_7  and  C_8
REMARK    6  A    between atoms: C_8  and  C_9
REMARK    7  A    between atoms: C_10  and  C_12
REMARK    8  A    between atoms: C_14  and  C_15
REMARK                            x       y       z     vdW  Elec       q    Type
REMARK                         _______ _______ _______ _____ _____    ______ ____
ROOT
ATOM      1  N   UNL     1       3.863   4.080  19.205  0.00  0.00    +0.000 N 
ATOM      2  C   UNL     1       5.089   4.755  19.085  0.00  0.00    +0.000 C 
ATOM      3  O   UNL     1       5.518   5.415  20.036  0.00  0.00    +0.000 OA
ENDROOT
BRANCH   2   4
ATOM      4  C   UNL     1       5.861   4.613  17.867  0.00  0.00    +0.000 A 
ATOM      5  C   UNL     1       5.472   4.581  16.549  0.00  0.00    +0.000 A 
ATOM      6  C   UNL     1       6.671   4.436  15.803  0.00  0.00    +0.000 A 
ATOM      7  N   UNL     1       7.720   4.348  16.633  0.00  0.00    +0.000 NA
ATOM      8  O   UNL     1       7.208   4.416  17.911  0.00  0.00    +0.000 OA
BRANCH   6   9
ATOM      9  C   UNL     1       6.822   4.389  14.350  0.00  0.00    +0.000 A 
ATOM     10  C   UNL     1       7.663   5.287  13.679  0.00  0.00    +0.000 A 
ATOM     11  C   UNL     1       7.776   5.247  12.283  0.00  0.00    +0.000 A 
ATOM     12  C   UNL     1       7.056   4.309  11.556  0.00  0.00    +0.000 A 
ATOM     13  C   UNL     1       6.227   3.408  12.216  0.00  0.00    +0.000 A 
ATOM     14 CL   UNL     1       5.337   2.238  11.322  0.00  0.00    +0.000 Cl
ATOM     15  C   UNL     1       6.107   3.441  13.605  0.00  0.00    +0.000 A 
ENDBRANCH   6   9
ENDBRANCH   2   4
BRANCH   1  16
ATOM     16  C   UNL     1       3.399   3.130  18.185  0.00  0.00    +0.000 C 
ATOM     17  C   UNL     1       3.325   1.658  18.543  0.00  0.00    +0.000 C 
ENDBRANCH   1  16
BRANCH   1  18
ATOM     18  C   UNL     1       2.972   4.504  20.293  0.00  0.00    +0.000 C 
BRANCH  18  20
ATOM     19  N   UNL     1       2.678   6.719  19.154  0.00  0.00    +0.000 N 
ATOM     20  C   UNL     1       2.314   5.893  20.205  0.00  0.00    +0.000 C 
ATOM     21  O   UNL     1       1.389   6.188  20.967  0.00  0.00    +0.000 OA
ATOM     22  H   UNL     1       3.091   6.251  18.350  0.00  0.00    +0.000 HD
BRANCH  19  24
ATOM     23  C   UNL     1       2.433   8.834  17.847  0.00  0.00    +0.000 C 
ATOM     24  C   UNL     1       1.898   7.928  18.938  0.00  0.00    +0.000 C 
ENDBRANCH  19  24
ENDBRANCH  18  20
ENDBRANCH   1  18
TORSDOF 6
ENDMDL
MODEL 9
REMARK VINA RESULT:      -6.6      3.709      8.312
REMARK  Name = 
REMARK  8 active torsions:
REMARK  status: ('A' for Active; 'I' for Inactive)
REMARK    1  A    between atoms: C_1  and  C_2
REMARK    2  A    between atoms: C_2  and  N_3
REMARK    3  A    between atoms: C_4  and  C_6
REMARK    4  A    between atoms: C_6  and  N_7
REMARK    5  A    between atoms: N_7  and  C_8
REMARK    6  A    between atoms: C_8  and  C_9
REMARK    7  A    between atoms: C_10  and  C_12
REMARK    8  A    between atoms: C_14  and  C_15
REMARK                            x       y       z     vdW  Elec       q    Type
REMARK                         _______ _______ _______ _____ _____    ______ ____
ROOT
ATOM      1  N   UNL     1       3.539   4.761  19.101  0.00  0.00    +0.000 N 
ATOM      2  C   UNL     1       4.937   4.668  19.002  0.00  0.00    +0.000 C 
ATOM      3  O   UNL     1       5.595   4.301  19.980  0.00  0.00    +0.000 OA
ENDROOT
BRANCH   2   4
ATOM      4  C   UNL     1       5.578   4.946  17.733  0.00  0.00    +0.000 A 
ATOM      5  C   UNL     1       5.605   4.231  16.559  0.00  0.00    +0.000 A 
ATOM      6  C   UNL     1       6.380   5.009  15.660  0.00  0.00    +0.000 A 
ATOM      7  N   UNL     1       6.825   6.115  16.275  0.00  0.00    +0.000 NA
ATOM      8  O   UNL     1       6.360   6.049  17.570  0.00  0.00    +0.000 OA
BRANCH   6   9
ATOM      9  C   UNL     1       6.686   4.721  14.260  0.00  0.00    +0.000 A 
ATOM     10  C   UNL     1       7.627   5.481  13.551  0.00  0.00    +0.000 A 
ATOM     11  C   UNL     1       7.889   5.210  12.202  0.00  0.00    +0.000 A 
ATOM     12  C   UNL     1       7.218   4.179  11.560  0.00  0.00    +0.000 A 
ATOM     13  C   UNL     1       6.291   3.413  12.259  0.00  0.00    +0.000 A 
ATOM     14 CL   UNL     1       5.460   2.129  11.471  0.00  0.00    +0.000 Cl
ATOM     15  C   UNL     1       6.022   3.677  13.602  0.00  0.00    +0.000 A 
ENDBRANCH   6   9
ENDBRANCH   2   4
BRANCH   1  16
ATOM     16  C   UNL     1       2.694   5.004  17.924  0.00  0.00    +0.000 C 
ATOM     17  C   UNL     1       1.676   3.951  17.530  0.00  0.00    +0.000 C 
ENDBRANCH   1  16
BRANCH   1  18
ATOM     18  C   UNL     1       2.966   4.798  20.453  0.00  0.00    +0.000 C 
BRANCH  18  20
ATOM     19  N   UNL     1       2.050   7.092  20.886  0.00  0.00    +0.000 N 
ATOM     20  C   UNL     1       1.781   5.742  20.725  0.00  0.00    +0.000 C 
ATOM     21  O   UNL     1       0.624   5.319  20.651  0.00  0.00    +0.000 OA
ATOM     22  H   UNL     1       2.936   7.413  20.502  0.00  0.00    +0.000 HD
BRANCH  19  24
ATOM     23  C   UNL     1       1.036   9.173  19.945  0.00  0.00    +0.000 C 
ATOM     24  C   UNL     1       0.923   8.011  20.912  0.00  0.00    +0.000 C 
ENDBRANCH  19  24
ENDBRANCH  18  20
ENDBRANCH   1  18
TORSDOF 6
ENDMDL
