MODEL 1
REMARK VINA RESULT:      -9.2      0.000      0.000
REMARK  Name = 
REMARK  5 active torsions:
REMARK  status: ('A' for Active; 'I' for Inactive)
REMARK    1  A    between atoms: C_1  and  N_2
REMARK    2  A    between atoms: C_5  and  C_6
REMARK    3  A    between atoms: C_9  and  C_10
REMARK    4  A    between atoms: C_10  and  C_11
REMARK    5  A    between atoms: C_11  and  N_12
REMARK                            x       y       z     vdW  Elec       q    Type
REMARK                         _______ _______ _______ _____ _____    ______ ____
ROOT
ATOM      1  C   UNL     1       7.783   8.571  17.660  0.00  0.00    +0.000 C 
ENDROOT
BRANCH   1   2
ATOM      2  N   UNL     1       7.988   7.166  17.264  0.00  0.00    +0.000 NA
ATOM      3  C   UNL     1       7.994   6.251  18.443  0.00  0.00    +0.000 C 
ATOM      4  C   UNL     1       6.602   5.792  18.992  0.00  0.00    +0.000 C 
ATOM      5  N   UNL     1       5.785   5.306  17.871  0.00  0.00    +0.000 N 
ATOM      6  C   UNL     1       4.619   4.595  18.154  0.00  0.00    +0.000 A 
ATOM      7  C   UNL     1       4.040   3.813  17.146  0.00  0.00    +0.000 A 
ATOM      8  N   UNL     1       2.880   3.129  17.271  0.00  0.00    +0.000 NA
ATOM      9  C   UNL     1       2.301   3.196  18.473  0.00  0.00    +0.000 A 
ATOM     10  C   UNL     1       1.103   2.523  18.671  0.00  0.00    +0.000 A 
ATOM     11  C   UNL     1       0.475   2.517  19.913  0.00  0.00    +0.000 A 
ATOM     12  C   UNL     1       1.054   3.204  20.972  0.00  0.00    +0.000 A 
ATOM     13  C   UNL     1       2.247   3.909  20.773  0.00  0.00    +0.000 A 
ATOM     14  C   UNL     1       2.890   3.927  19.538  0.00  0.00    +0.000 A 
ATOM     15  N   UNL     1       4.045   4.625  19.374  0.00  0.00    +0.000 NA
ATOM     16  C   UNL     1       5.622   6.334  16.830  0.00  0.00    +0.000 C 
ATOM     17  C   UNL     1       7.017   6.664  16.263  0.00  0.00    +0.000 C 
ENDBRANCH   1   2
BRANCH   1  18
ATOM     18  C   UNL     1       8.736   9.052  18.774  0.00  0.00    +0.000 C 
BRANCH  18  22
ATOM     19  C   UNL     1       9.945  13.196  18.329  0.00  0.00    +0.000 A 
ATOM     20  C   UNL     1      10.663  12.321  19.157  0.00  0.00    +0.000 A 
ATOM     21  C   UNL     1      10.261  10.991  19.314  0.00  0.00    +0.000 A 
ATOM     22  C   UNL     1       9.138  10.503  18.640  0.00  0.00    +0.000 A 
ATOM     23  C   UNL     1       8.412  11.372  17.817  0.00  0.00    +0.000 A 
ATOM     24  C   UNL     1       8.817  12.703  17.658  0.00  0.00    +0.000 A 
BRANCH  19  29
ATOM     25  C   UNL     1       9.836  17.929  20.602  0.00  0.00    +0.000 C 
ATOM     26  N   UNL     1      10.169  17.939  19.195  0.00  0.00    +0.000 N 
ATOM     27  C   UNL     1      10.406  16.754  18.587  0.00  0.00    +0.000 A 
ATOM     28  N   UNL     1       9.956  15.589  18.991  0.00  0.00    +0.000 NA
ATOM     29  C   UNL     1      10.361  14.580  18.128  0.00  0.00    +0.000 A 
ATOM     30  C   UNL     1      11.185  15.003  17.102  0.00  0.00    +0.000 A 
ATOM     31  S   UNL     1      11.386  16.702  17.172  0.00  0.00    +0.000 S 
ATOM     32  H   UNL     1      10.752  18.714  18.898  0.00  0.00    +0.000 HD
ENDBRANCH  19  29
ENDBRANCH  18  22
ENDBRANCH   1  18
TORSDOF 4
ENDMDL
MODEL 2
REMARK VINA RESULT:      -9.1      0.664      1.090
REMARK  Name = 
REMARK  5 active torsions:
REMARK  status: ('A' for Active; 'I' for Inactive)
REMARK    1  A    between atoms: C_1  and  N_2
REMARK    2  A    between atoms: C_5  and  C_6
REMARK    3  A    between atoms: C_9  and  C_10
REMARK    4  A    between atoms: C_10  and  C_11
REMARK    5  A    between atoms: C_11  and  N_12
REMARK                            x       y       z     vdW  Elec       q    Type
REMARK                         _______ _______ _______ _____ _____    ______ ____
ROOT
ATOM      1  C   UNL     1       7.790   8.754  17.766  0.00  0.00    +0.000 C 
ENDROOT
BRANCH   1   2
ATOM      2  N   UNL     1       7.981   7.370  17.293  0.00  0.00    +0.000 NA
ATOM      3  C   UNL     1       8.018   6.396  18.423  0.00  0.00    +0.000 C 
ATOM      4  C   UNL     1       6.641   5.911  18.988  0.00  0.00    +0.000 C 
ATOM      5  N   UNL     1       5.792   5.484  17.868  0.00  0.00    +0.000 N 
ATOM      6  C   UNL     1       4.633   4.760  18.147  0.00  0.00    +0.000 A 
ATOM      7  C   UNL     1       4.023   4.031  17.118  0.00  0.00    +0.000 A 
ATOM      8  N   UNL     1       2.866   3.342  17.240  0.00  0.00    +0.000 NA
ATOM      9  C   UNL     1       2.322   3.349  18.461  0.00  0.00    +0.000 A 
ATOM     10  C   UNL     1       1.127   2.668  18.658  0.00  0.00    +0.000 A 
ATOM     11  C   UNL     1       0.535   2.599  19.915  0.00  0.00    +0.000 A 
ATOM     12  C   UNL     1       1.147   3.230  20.990  0.00  0.00    +0.000 A 
ATOM     13  C   UNL     1       2.335   3.943  20.794  0.00  0.00    +0.000 A 
ATOM     14  C   UNL     1       2.942   4.024  19.544  0.00  0.00    +0.000 A 
ATOM     15  N   UNL     1       4.093   4.728  19.382  0.00  0.00    +0.000 NA
ATOM     16  C   UNL     1       5.602   6.563  16.886  0.00  0.00    +0.000 C 
ATOM     17  C   UNL     1       6.981   6.921  16.297  0.00  0.00    +0.000 C 
ENDBRANCH   1   2
BRANCH   1  18
ATOM     18  C   UNL     1       8.793   9.184  18.857  0.00  0.00    +0.000 C 
BRANCH  18  22
ATOM     19  C   UNL     1      10.221  13.256  18.400  0.00  0.00    +0.000 A 
ATOM     20  C   UNL     1       9.126  12.790  17.659  0.00  0.00    +0.000 A 
ATOM     21  C   UNL     1       8.678  11.472  17.793  0.00  0.00    +0.000 A 
ATOM     22  C   UNL     1       9.310  10.593  18.679  0.00  0.00    +0.000 A 
ATOM     23  C   UNL     1      10.408  11.050  19.416  0.00  0.00    +0.000 A 
ATOM     24  C   UNL     1      10.854  12.371  19.282  0.00  0.00    +0.000 A 
BRANCH  19  29
ATOM     25  C   UNL     1      12.218  17.183  21.259  0.00  0.00    +0.000 C 
ATOM     26  N   UNL     1      11.708  17.574  19.964  0.00  0.00    +0.000 N 
ATOM     27  C   UNL     1      11.356  16.598  19.096  0.00  0.00    +0.000 A 
ATOM     28  N   UNL     1      11.014  15.374  19.425  0.00  0.00    +0.000 NA
ATOM     29  C   UNL     1      10.688  14.636  18.296  0.00  0.00    +0.000 A 
ATOM     30  C   UNL     1      10.860  15.310  17.103  0.00  0.00    +0.000 A 
ATOM     31  S   UNL     1      11.357  16.921  17.404  0.00  0.00    +0.000 S 
ATOM     32  H   UNL     1      12.151  18.391  19.558  0.00  0.00    +0.000 HD
ENDBRANCH  19  29
ENDBRANCH  18  22
ENDBRANCH   1  18
TORSDOF 4
ENDMDL
MODEL 3
REMARK VINA RESULT:      -9.0      5.267      7.996
REMARK  Name = 
REMARK  5 active torsions:
REMARK  status: ('A' for Active; 'I' for Inactive)
REMARK    1  A    between atoms: C_1  and  N_2
REMARK    2  A    between atoms: C_5  and  C_6
REMARK    3  A    between atoms: C_9  and  C_10
REMARK    4  A    between atoms: C_10  and  C_11
REMARK    5  A    between atoms: C_11  and  N_12
REMARK                            x       y       z     vdW  Elec       q    Type
REMARK                         _______ _______ _______ _____ _____    ______ ____
ROOT
ATOM      1  C   UNL     1       2.158   4.911  19.819  0.00  0.00    +0.000 C 
ENDROOT
BRANCH   1   2
ATOM      2  N   UNL     1       3.560   4.480  19.978  0.00  0.00    +0.000 NA
ATOM      3  C   UNL     1       3.836   3.210  19.247  0.00  0.00    +0.000 C 
ATOM      4  C   UNL     1       4.145   3.324  17.716  0.00  0.00    +0.000 C 
ATOM      5  N   UNL     1       5.171   4.357  17.515  0.00  0.00    +0.000 N 
ATOM      6  C   UNL     1       5.799   4.440  16.272  0.00  0.00    +0.000 A 
ATOM      7  C   UNL     1       7.010   5.138  16.169  0.00  0.00    +0.000 A 
ATOM      8  N   UNL     1       7.686   5.346  15.017  0.00  0.00    +0.000 NA
ATOM      9  C   UNL     1       7.146   4.791  13.928  0.00  0.00    +0.000 A 
ATOM     10  C   UNL     1       7.783   4.970  12.707  0.00  0.00    +0.000 A 
ATOM     11  C   UNL     1       7.295   4.379  11.545  0.00  0.00    +0.000 A 
ATOM     12  C   UNL     1       6.146   3.602  11.608  0.00  0.00    +0.000 A 
ATOM     13  C   UNL     1       5.482   3.441  12.830  0.00  0.00    +0.000 A 
ATOM     14  C   UNL     1       5.954   4.023  14.002  0.00  0.00    +0.000 A 
ATOM     15  N   UNL     1       5.285   3.854  15.173  0.00  0.00    +0.000 NA
ATOM     16  C   UNL     1       4.749   5.657  18.060  0.00  0.00    +0.000 C 
ATOM     17  C   UNL     1       4.561   5.498  19.582  0.00  0.00    +0.000 C 
ENDBRANCH   1   2
BRANCH   1  18
ATOM     18  C   UNL     1       1.660   5.844  20.943  0.00  0.00    +0.000 C 
BRANCH  18  22
ATOM     19  C   UNL     1       0.933   9.922  19.653  0.00  0.00    +0.000 A 
ATOM     20  C   UNL     1       0.434   9.455  20.877  0.00  0.00    +0.000 A 
ATOM     21  C   UNL     1       0.652   8.135  21.283  0.00  0.00    +0.000 A 
ATOM     22  C   UNL     1       1.384   7.255  20.478  0.00  0.00    +0.000 A 
ATOM     23  C   UNL     1       1.879   7.713  19.252  0.00  0.00    +0.000 A 
ATOM     24  C   UNL     1       1.661   9.036  18.848  0.00  0.00    +0.000 A 
BRANCH  19  29
ATOM     25  C   UNL     1       3.582  14.232  18.241  0.00  0.00    +0.000 C 
ATOM     26  N   UNL     1       2.190  14.454  18.563  0.00  0.00    +0.000 N 
ATOM     27  C   UNL     1       1.398  13.373  18.747  0.00  0.00    +0.000 A 
ATOM     28  N   UNL     1       1.812  12.177  19.094  0.00  0.00    +0.000 NA
ATOM     29  C   UNL     1       0.741  11.304  19.222  0.00  0.00    +0.000 A 
ATOM     30  C   UNL     1      -0.484  11.853  18.895  0.00  0.00    +0.000 A 
ATOM     31  S   UNL     1      -0.301  13.509  18.503  0.00  0.00    +0.000 S 
ATOM     32  H   UNL     1       1.762  15.243  18.091  0.00  0.00    +0.000 HD
ENDBRANCH  19  29
ENDBRANCH  18  22
ENDBRANCH   1  18
TORSDOF 4
ENDMDL
MODEL 4
REMARK VINA RESULT:      -8.9      6.346      8.488
REMARK  Name = 
REMARK  5 active torsions:
REMARK  status: ('A' for Active; 'I' for Inactive)
REMARK    1  A    between atoms: C_1  and  N_2
REMARK    2  A    between atoms: C_5  and  C_6
REMARK    3  A    between atoms: C_9  and  C_10
REMARK    4  A    between atoms: C_10  and  C_11
REMARK    5  A    between atoms: C_11  and  N_12
REMARK                            x       y       z     vdW  Elec       q    Type
REMARK                         _______ _______ _______ _____ _____    ______ ____
ROOT
ATOM      1  C   UNL     1       2.179   4.796  19.829  0.00  0.00    +0.000 C 
ENDROOT
BRANCH   1   2
ATOM      2  N   UNL     1       3.600   4.434  19.989  0.00  0.00    +0.000 NA
ATOM      3  C   UNL     1       3.934   3.168  19.273  0.00  0.00    +0.000 C 
ATOM      4  C   UNL     1       4.234   3.277  17.741  0.00  0.00    +0.000 C 
ATOM      5  N   UNL     1       5.209   4.355  17.523  0.00  0.00    +0.000 N 
ATOM      6  C   UNL     1       5.831   4.451  16.278  0.00  0.00    +0.000 A 
ATOM      7  C   UNL     1       7.007   5.204  16.163  0.00  0.00    +0.000 A 
ATOM      8  N   UNL     1       7.670   5.429  15.006  0.00  0.00    +0.000 NA
ATOM      9  C   UNL     1       7.154   4.835  13.926  0.00  0.00    +0.000 A 
ATOM     10  C   UNL     1       7.779   5.028  12.700  0.00  0.00    +0.000 A 
ATOM     11  C   UNL     1       7.317   4.400  11.548  0.00  0.00    +0.000 A 
ATOM     12  C   UNL     1       6.205   3.571  11.624  0.00  0.00    +0.000 A 
ATOM     13  C   UNL     1       5.553   3.394  12.849  0.00  0.00    +0.000 A 
ATOM     14  C   UNL     1       5.999   4.013  14.013  0.00  0.00    +0.000 A 
ATOM     15  N   UNL     1       5.342   3.827  15.188  0.00  0.00    +0.000 NA
ATOM     16  C   UNL     1       4.728   5.640  18.054  0.00  0.00    +0.000 C 
ATOM     17  C   UNL     1       4.551   5.492  19.578  0.00  0.00    +0.000 C 
ENDBRANCH   1   2
BRANCH   1  18
ATOM     18  C   UNL     1       1.613   5.635  20.994  0.00  0.00    +0.000 C 
BRANCH  18  22
ATOM     19  C   UNL     1       0.891   9.777  19.922  0.00  0.00    +0.000 A 
ATOM     20  C   UNL     1       1.658   8.943  19.096  0.00  0.00    +0.000 A 
ATOM     21  C   UNL     1       1.906   7.613  19.452  0.00  0.00    +0.000 A 
ATOM     22  C   UNL     1       1.384   7.086  20.637  0.00  0.00    +0.000 A 
ATOM     23  C   UNL     1       0.623   7.914  21.469  0.00  0.00    +0.000 A 
ATOM     24  C   UNL     1       0.374   9.245  21.110  0.00  0.00    +0.000 A 
BRANCH  19  29
ATOM     25  C   UNL     1      -2.649  13.589  20.639  0.00  0.00    +0.000 C 
ATOM     26  N   UNL     1      -1.735  13.810  19.541  0.00  0.00    +0.000 N 
ATOM     27  C   UNL     1      -0.680  12.973  19.413  0.00  0.00    +0.000 A 
ATOM     28  N   UNL     1      -0.616  11.751  19.885  0.00  0.00    +0.000 NA
ATOM     29  C   UNL     1       0.596  11.160  19.557  0.00  0.00    +0.000 A 
ATOM     30  C   UNL     1       1.472  11.990  18.885  0.00  0.00    +0.000 A 
ATOM     31  S   UNL     1       0.735  13.506  18.588  0.00  0.00    +0.000 S 
ATOM     32  H   UNL     1      -1.560  14.783  19.318  0.00  0.00    +0.000 HD
ENDBRANCH  19  29
ENDBRANCH  18  22
ENDBRANCH   1  18
TORSDOF 4
ENDMDL
MODEL 5
REMARK VINA RESULT:      -8.9      1.182      1.433
REMARK  Name = 
REMARK  5 active torsions:
REMARK  status: ('A' for Active; 'I' for Inactive)
REMARK    1  A    between atoms: C_1  and  N_2
REMARK    2  A    between atoms: C_5  and  C_6
REMARK    3  A    between atoms: C_9  and  C_10
REMARK    4  A    between atoms: C_10  and  C_11
REMARK    5  A    between atoms: C_11  and  N_12
REMARK                            x       y       z     vdW  Elec       q    Type
REMARK                         _______ _______ _______ _____ _____    ______ ____
ROOT
ATOM      1  C   UNL     1       7.732   8.473  17.611  0.00  0.00    +0.000 C 
ENDROOT
BRANCH   1   2
ATOM      2  N   UNL     1       7.774   7.126  17.011  0.00  0.00    +0.000 NA
ATOM      3  C   UNL     1       7.886   6.059  18.049  0.00  0.00    +0.000 C 
ATOM      4  C   UNL     1       6.559   5.604  18.745  0.00  0.00    +0.000 C 
ATOM      5  N   UNL     1       5.554   5.320  17.711  0.00  0.00    +0.000 N 
ATOM      6  C   UNL     1       4.393   4.639  18.078  0.00  0.00    +0.000 A 
ATOM      7  C   UNL     1       3.617   4.035  17.081  0.00  0.00    +0.000 A 
ATOM      8  N   UNL     1       2.441   3.402  17.295  0.00  0.00    +0.000 NA
ATOM      9  C   UNL     1       2.051   3.334  18.571  0.00  0.00    +0.000 A 
ATOM     10  C   UNL     1       0.848   2.705  18.865  0.00  0.00    +0.000 A 
ATOM     11  C   UNL     1       0.410   2.562  20.178  0.00  0.00    +0.000 A 
ATOM     12  C   UNL     1       1.188   3.066  21.213  0.00  0.00    +0.000 A 
ATOM     13  C   UNL     1       2.387   3.727  20.923  0.00  0.00    +0.000 A 
ATOM     14  C   UNL     1       2.842   3.880  19.617  0.00  0.00    +0.000 A 
ATOM     15  N   UNL     1       4.007   4.532  19.366  0.00  0.00    +0.000 NA
ATOM     16  C   UNL     1       5.316   6.488  16.848  0.00  0.00    +0.000 C 
ATOM     17  C   UNL     1       6.633   6.819  16.118  0.00  0.00    +0.000 C 
ENDBRANCH   1   2
BRANCH   1  18
ATOM     18  C   UNL     1       8.782   8.696  18.719  0.00  0.00    +0.000 C 
BRANCH  18  22
ATOM     19  C   UNL     1       9.598  12.871  19.576  0.00  0.00    +0.000 A 
ATOM     20  C   UNL     1       9.737  11.891  20.570  0.00  0.00    +0.000 A 
ATOM     21  C   UNL     1       9.456  10.549  20.298  0.00  0.00    +0.000 A 
ATOM     22  C   UNL     1       9.038  10.155  19.023  0.00  0.00    +0.000 A 
ATOM     23  C   UNL     1       8.890  11.128  18.028  0.00  0.00    +0.000 A 
ATOM     24  C   UNL     1       9.174  12.472  18.302  0.00  0.00    +0.000 A 
BRANCH  19  29
ATOM     25  C   UNL     1      11.162  17.270  17.172  0.00  0.00    +0.000 C 
ATOM     26  N   UNL     1      11.272  17.295  18.613  0.00  0.00    +0.000 N 
ATOM     27  C   UNL     1      10.712  16.281  19.313  0.00  0.00    +0.000 A 
ATOM     28  N   UNL     1      10.467  15.080  18.846  0.00  0.00    +0.000 NA
ATOM     29  C   UNL     1       9.912  14.274  19.831  0.00  0.00    +0.000 A 
ATOM     30  C   UNL     1       9.682  14.917  21.031  0.00  0.00    +0.000 A 
ATOM     31  S   UNL     1      10.244  16.532  20.951  0.00  0.00    +0.000 S 
ATOM     32  H   UNL     1      11.200  18.216  19.032  0.00  0.00    +0.000 HD
ENDBRANCH  19  29
ENDBRANCH  18  22
ENDBRANCH   1  18
TORSDOF 4
ENDMDL
MODEL 6
REMARK VINA RESULT:      -8.8      5.675      8.063
REMARK  Name = 
REMARK  5 active torsions:
REMARK  status: ('A' for Active; 'I' for Inactive)
REMARK    1  A    between atoms: C_1  and  N_2
REMARK    2  A    between atoms: C_5  and  C_6
REMARK    3  A    between atoms: C_9  and  C_10
REMARK    4  A    between atoms: C_10  and  C_11
REMARK    5  A    between atoms: C_11  and  N_12
REMARK                            x       y       z     vdW  Elec       q    Type
REMARK                         _______ _______ _______ _____ _____    ______ ____
ROOT
ATOM      1  C   UNL     1       2.132   4.855  19.826  0.00  0.00    +0.000 C 
ENDROOT
BRANCH   1   2
ATOM      2  N   UNL     1       3.544   4.465  19.992  0.00  0.00    +0.000 NA
ATOM      3  C   UNL     1       3.858   3.196  19.273  0.00  0.00    +0.000 C 
ATOM      4  C   UNL     1       4.169   3.306  17.742  0.00  0.00    +0.000 C 
ATOM      5  N   UNL     1       5.166   4.365  17.535  0.00  0.00    +0.000 N 
ATOM      6  C   UNL     1       5.797   4.455  16.294  0.00  0.00    +0.000 A 
ATOM      7  C   UNL     1       6.988   5.185  16.189  0.00  0.00    +0.000 A 
ATOM      8  N   UNL     1       7.662   5.402  15.037  0.00  0.00    +0.000 NA
ATOM      9  C   UNL     1       7.141   4.823  13.951  0.00  0.00    +0.000 A 
ATOM     10  C   UNL     1       7.777   5.010  12.731  0.00  0.00    +0.000 A 
ATOM     11  C   UNL     1       7.310   4.396  11.572  0.00  0.00    +0.000 A 
ATOM     12  C   UNL     1       6.181   3.589  11.638  0.00  0.00    +0.000 A 
ATOM     13  C   UNL     1       5.518   3.419  12.859  0.00  0.00    +0.000 A 
ATOM     14  C   UNL     1       5.970   4.024  14.028  0.00  0.00    +0.000 A 
ATOM     15  N   UNL     1       5.302   3.846  15.198  0.00  0.00    +0.000 NA
ATOM     16  C   UNL     1       4.707   5.658  18.069  0.00  0.00    +0.000 C 
ATOM     17  C   UNL     1       4.518   5.506  19.591  0.00  0.00    +0.000 C 
ENDBRANCH   1   2
BRANCH   1  18
ATOM     18  C   UNL     1       1.583   5.720  20.979  0.00  0.00    +0.000 C 
BRANCH  18  22
ATOM     19  C   UNL     1       0.965   9.869  19.869  0.00  0.00    +0.000 A 
ATOM     20  C   UNL     1       1.610   8.979  18.998  0.00  0.00    +0.000 A 
ATOM     21  C   UNL     1       1.825   7.647  19.364  0.00  0.00    +0.000 A 
ATOM     22  C   UNL     1       1.392   7.173  20.607  0.00  0.00    +0.000 A 
ATOM     23  C   UNL     1       0.754   8.057  21.484  0.00  0.00    +0.000 A 
ATOM     24  C   UNL     1       0.537   9.390  21.114  0.00  0.00    +0.000 A 
BRANCH  19  29
ATOM     25  C   UNL     1       2.779  14.752  20.539  0.00  0.00    +0.000 C 
ATOM     26  N   UNL     1       1.437  14.671  20.006  0.00  0.00    +0.000 N 
ATOM     27  C   UNL     1       0.975  13.458  19.626  0.00  0.00    +0.000 A 
ATOM     28  N   UNL     1       1.411  12.304  20.071  0.00  0.00    +0.000 NA
ATOM     29  C   UNL     1       0.705  11.257  19.496  0.00  0.00    +0.000 A 
ATOM     30  C   UNL     1      -0.228  11.647  18.554  0.00  0.00    +0.000 A 
ATOM     31  S   UNL     1      -0.279  13.355  18.449  0.00  0.00    +0.000 S 
ATOM     32  H   UNL     1       1.160  15.454  19.425  0.00  0.00    +0.000 HD
ENDBRANCH  19  29
ENDBRANCH  18  22
ENDBRANCH   1  18
TORSDOF 4
ENDMDL
MODEL 7
REMARK VINA RESULT:      -8.6      9.517     12.192
REMARK  Name = 
REMARK  5 active torsions:
REMARK  status: ('A' for Active; 'I' for Inactive)
REMARK    1  A    between atoms: C_1  and  N_2
REMARK    2  A    between atoms: C_5  and  C_6
REMARK    3  A    between atoms: C_9  and  C_10
REMARK    4  A    between atoms: C_10  and  C_11
REMARK    5  A    between atoms: C_11  and  N_12
REMARK                            x       y       z     vdW  Elec       q    Type
REMARK                         _______ _______ _______ _____ _____    ______ ____
ROOT
ATOM      1  C   UNL     1      -1.018  10.363  18.282  0.00  0.00    +0.000 C 
ENDROOT
BRANCH   1   2
ATOM      2  N   UNL     1      -1.615  11.627  17.811  0.00  0.00    +0.000 NA
ATOM      3  C   UNL     1      -3.090  11.506  17.616  0.00  0.00    +0.000 C 
ATOM      4  C   UNL     1      -3.989  11.667  18.888  0.00  0.00    +0.000 C 
ATOM      5  N   UNL     1      -3.585  12.884  19.604  0.00  0.00    +0.000 N 
ATOM      6  C   UNL     1      -4.421  13.377  20.607  0.00  0.00    +0.000 A 
ATOM      7  C   UNL     1      -4.262  14.703  21.032  0.00  0.00    +0.000 A 
ATOM      8  N   UNL     1      -4.961  15.280  22.035  0.00  0.00    +0.000 NA
ATOM      9  C   UNL     1      -5.890  14.507  22.605  0.00  0.00    +0.000 A 
ATOM     10  C   UNL     1      -6.642  15.033  23.648  0.00  0.00    +0.000 A 
ATOM     11  C   UNL     1      -7.655  14.295  24.252  0.00  0.00    +0.000 A 
ATOM     12  C   UNL     1      -7.913  13.004  23.807  0.00  0.00    +0.000 A 
ATOM     13  C   UNL     1      -7.141  12.457  22.776  0.00  0.00    +0.000 A 
ATOM     14  C   UNL     1      -6.123  13.180  22.160  0.00  0.00    +0.000 A 
ATOM     15  N   UNL     1      -5.386  12.620  21.165  0.00  0.00    +0.000 NA
ATOM     16  C   UNL     1      -2.161  12.853  19.973  0.00  0.00    +0.000 C 
ATOM     17  C   UNL     1      -1.332  12.796  18.674  0.00  0.00    +0.000 C 
ENDBRANCH   1   2
BRANCH   1  18
ATOM     18  C   UNL     1       0.303  10.548  19.057  0.00  0.00    +0.000 C 
BRANCH  18  22
ATOM     19  C   UNL     1       2.678   6.918  19.176  0.00  0.00    +0.000 A 
ATOM     20  C   UNL     1       1.992   7.366  20.313  0.00  0.00    +0.000 A 
ATOM     21  C   UNL     1       1.242   8.547  20.279  0.00  0.00    +0.000 A 
ATOM     22  C   UNL     1       1.154   9.299  19.103  0.00  0.00    +0.000 A 
ATOM     23  C   UNL     1       1.842   8.861  17.967  0.00  0.00    +0.000 A 
ATOM     24  C   UNL     1       2.591   7.677  18.002  0.00  0.00    +0.000 A 
BRANCH  19  29
ATOM     25  C   UNL     1       7.393   4.949  17.964  0.00  0.00    +0.000 C 
ATOM     26  N   UNL     1       6.358   3.960  18.166  0.00  0.00    +0.000 N 
ATOM     27  C   UNL     1       5.171   4.374  18.667  0.00  0.00    +0.000 A 
ATOM     28  N   UNL     1       4.696   5.595  18.587  0.00  0.00    +0.000 NA
ATOM     29  C   UNL     1       3.444   5.674  19.181  0.00  0.00    +0.000 A 
ATOM     30  C   UNL     1       3.017   4.501  19.771  0.00  0.00    +0.000 A 
ATOM     31  S   UNL     1       4.163   3.258  19.506  0.00  0.00    +0.000 S 
ATOM     32  H   UNL     1       6.685   3.057  18.489  0.00  0.00    +0.000 HD
ENDBRANCH  19  29
ENDBRANCH  18  22
ENDBRANCH   1  18
TORSDOF 4
ENDMDL
MODEL 8
REMARK VINA RESULT:      -8.5      1.047      1.332
REMARK  Name = 
REMARK  5 active torsions:
REMARK  status: ('A' for Active; 'I' for Inactive)
REMARK    1  A    between atoms: C_1  and  N_2
REMARK    2  A    between atoms: C_5  and  C_6
REMARK    3  A    between atoms: C_9  and  C_10
REMARK    4  A    between atoms: C_10  and  C_11
REMARK    5  A    between atoms: C_11  and  N_12
REMARK                            x       y       z     vdW  Elec       q    Type
REMARK                         _______ _______ _______ _____ _____    ______ ____
ROOT
ATOM      1  C   UNL     1       7.764   8.778  17.871  0.00  0.00    +0.000 C 
ENDROOT
BRANCH   1   2
ATOM      2  N   UNL     1       7.887   7.422  17.303  0.00  0.00    +0.000 NA
ATOM      3  C   UNL     1       7.987   6.381  18.368  0.00  0.00    +0.000 C 
ATOM      4  C   UNL     1       6.645   5.888  19.006  0.00  0.00    +0.000 C 
ATOM      5  N   UNL     1       5.705   5.545  17.929  0.00  0.00    +0.000 N 
ATOM      6  C   UNL     1       4.554   4.826  18.252  0.00  0.00    +0.000 A 
ATOM      7  C   UNL     1       3.853   4.172  17.230  0.00  0.00    +0.000 A 
ATOM      8  N   UNL     1       2.693   3.499  17.399  0.00  0.00    +0.000 NA
ATOM      9  C   UNL     1       2.241   3.441  18.655  0.00  0.00    +0.000 A 
ATOM     10  C   UNL     1       1.050   2.771  18.902  0.00  0.00    +0.000 A 
ATOM     11  C   UNL     1       0.551   2.636  20.194  0.00  0.00    +0.000 A 
ATOM     12  C   UNL     1       1.255   3.190  21.255  0.00  0.00    +0.000 A 
ATOM     13  C   UNL     1       2.442   3.892  21.012  0.00  0.00    +0.000 A 
ATOM     14  C   UNL     1       2.956   4.037  19.727  0.00  0.00    +0.000 A 
ATOM     15  N   UNL     1       4.107   4.729  19.521  0.00  0.00    +0.000 NA
ATOM     16  C   UNL     1       5.467   6.685  17.030  0.00  0.00    +0.000 C 
ATOM     17  C   UNL     1       6.806   7.053  16.361  0.00  0.00    +0.000 C 
ENDBRANCH   1   2
BRANCH   1  18
ATOM     18  C   UNL     1       8.925   9.171  18.807  0.00  0.00    +0.000 C 
BRANCH  18  22
ATOM     19  C   UNL     1       9.424  13.469  19.140  0.00  0.00    +0.000 A 
ATOM     20  C   UNL     1       9.197  12.865  17.895  0.00  0.00    +0.000 A 
ATOM     21  C   UNL     1       9.055  11.478  17.786  0.00  0.00    +0.000 A 
ATOM     22  C   UNL     1       9.128  10.665  18.922  0.00  0.00    +0.000 A 
ATOM     23  C   UNL     1       9.361  11.260  20.167  0.00  0.00    +0.000 A 
ATOM     24  C   UNL     1       9.501  12.650  20.274  0.00  0.00    +0.000 A 
BRANCH  19  29
ATOM     25  C   UNL     1       7.516  17.549  21.841  0.00  0.00    +0.000 C 
ATOM     26  N   UNL     1       8.256  17.903  20.651  0.00  0.00    +0.000 N 
ATOM     27  C   UNL     1       8.939  16.926  20.011  0.00  0.00    +0.000 A 
ATOM     28  N   UNL     1       8.671  15.642  20.076  0.00  0.00    +0.000 NA
ATOM     29  C   UNL     1       9.547  14.917  19.281  0.00  0.00    +0.000 A 
ATOM     30  C   UNL     1      10.525  15.677  18.668  0.00  0.00    +0.000 A 
ATOM     31  S   UNL     1      10.293  17.335  19.028  0.00  0.00    +0.000 S 
ATOM     32  H   UNL     1       8.705  18.812  20.679  0.00  0.00    +0.000 HD
ENDBRANCH  19  29
ENDBRANCH  18  22
ENDBRANCH   1  18
TORSDOF 4
ENDMDL
MODEL 9
REMARK VINA RESULT:      -8.3      1.273      1.671
REMARK  Name = 
REMARK  5 active torsions:
REMARK  status: ('A' for Active; 'I' for Inactive)
REMARK    1  A    between atoms: C_1  and  N_2
REMARK    2  A    between atoms: C_5  and  C_6
REMARK    3  A    between atoms: C_9  and  C_10
REMARK    4  A    between atoms: C_10  and  C_11
REMARK    5  A    between atoms: C_11  and  N_12
REMARK                            x       y       z     vdW  Elec       q    Type
REMARK                         _______ _______ _______ _____ _____    ______ ____
ROOT
ATOM      1  C   UNL     1       7.900   8.810  18.391  0.00  0.00    +0.000 C 
ENDROOT
BRANCH   1   2
ATOM      2  N   UNL     1       8.088   7.479  17.784  0.00  0.00    +0.000 NA
ATOM      3  C   UNL     1       8.092   6.397  18.812  0.00  0.00    +0.000 C 
ATOM      4  C   UNL     1       6.699   5.873  19.297  0.00  0.00    +0.000 C 
ATOM      5  N   UNL     1       5.870   5.570  18.123  0.00  0.00    +0.000 N 
ATOM      6  C   UNL     1       4.699   4.835  18.305  0.00  0.00    +0.000 A 
ATOM      7  C   UNL     1       4.104   4.220  17.195  0.00  0.00    +0.000 A 
ATOM      8  N   UNL     1       2.938   3.536  17.225  0.00  0.00    +0.000 NA
ATOM      9  C   UNL     1       2.368   3.426  18.428  0.00  0.00    +0.000 A 
ATOM     10  C   UNL     1       1.163   2.742  18.532  0.00  0.00    +0.000 A 
ATOM     11  C   UNL     1       0.544   2.555  19.764  0.00  0.00    +0.000 A 
ATOM     12  C   UNL     1       1.138   3.069  20.909  0.00  0.00    +0.000 A 
ATOM     13  C   UNL     1       2.337   3.784  20.809  0.00  0.00    +0.000 A 
ATOM     14  C   UNL     1       2.972   3.982  19.586  0.00  0.00    +0.000 A 
ATOM     15  N   UNL     1       4.133   4.686  19.519  0.00  0.00    +0.000 NA
ATOM     16  C   UNL     1       5.711   6.745  17.250  0.00  0.00    +0.000 C 
ATOM     17  C   UNL     1       7.105   7.144  16.728  0.00  0.00    +0.000 C 
ENDBRANCH   1   2
BRANCH   1  18
ATOM     18  C   UNL     1       9.204   9.447  18.916  0.00  0.00    +0.000 C 
BRANCH  18  22
ATOM     19  C   UNL     1       8.965  13.774  19.146  0.00  0.00    +0.000 A 
ATOM     20  C   UNL     1       8.783  13.107  17.926  0.00  0.00    +0.000 A 
ATOM     21  C   UNL     1       8.878  11.713  17.850  0.00  0.00    +0.000 A 
ATOM     22  C   UNL     1       9.150  10.956  18.993  0.00  0.00    +0.000 A 
ATOM     23  C   UNL     1       9.340  11.615  20.212  0.00  0.00    +0.000 A 
ATOM     24  C   UNL     1       9.242  13.011  20.288  0.00  0.00    +0.000 A 
BRANCH  19  29
ATOM     25  C   UNL     1      11.125  18.254  17.460  0.00  0.00    +0.000 C 
ATOM     26  N   UNL     1      10.249  18.396  18.602  0.00  0.00    +0.000 N 
ATOM     27  C   UNL     1       9.508  17.326  18.973  0.00  0.00    +0.000 A 
ATOM     28  N   UNL     1       9.796  16.073  18.709  0.00  0.00    +0.000 NA
ATOM     29  C   UNL     1       8.842  15.225  19.255  0.00  0.00    +0.000 A 
ATOM     30  C   UNL     1       7.792  15.871  19.877  0.00  0.00    +0.000 A 
ATOM     31  S   UNL     1       8.045  17.564  19.850  0.00  0.00    +0.000 S 
ATOM     32  H   UNL     1       9.796  19.299  18.685  0.00  0.00    +0.000 HD
ENDBRANCH  19  29
ENDBRANCH  18  22
ENDBRANCH   1  18
TORSDOF 4
ENDMDL
