MODEL 1
REMARK VINA RESULT:      -8.1      0.000      0.000
REMARK  Name = 
REMARK  3 active torsions:
REMARK  status: ('A' for Active; 'I' for Inactive)
REMARK    1  A    between atoms: C_2  and  C_3
REMARK    2  A    between atoms: C_3  and  N_4
REMARK    3  A    between atoms: N_16  and  C_17
REMARK                            x       y       z     vdW  Elec       q    Type
REMARK                         _______ _______ _______ _____ _____    ______ ____
ROOT
ATOM      1  C   UNL     1       7.684   7.129  18.021  0.00  0.00    +0.000 C 
ENDROOT
BRANCH   1   2
ATOM      2  N   UNL     1       6.976   6.720  16.783  0.00  0.00    +0.000 NA
ATOM      3  C   UNL     1       7.036   5.254  16.530  0.00  0.00    +0.000 C 
ATOM      4  C   UNL     1       6.222   4.317  17.469  0.00  0.00    +0.000 C 
ATOM      5  N   UNL     1       4.864   4.828  17.671  0.00  0.00    +0.000 N 
ATOM      6  C   UNL     1       3.769   4.037  17.966  0.00  0.00    +0.000 A 
ATOM      7  C   UNL     1       3.839   2.652  18.079  0.00  0.00    +0.000 A 
ATOM      8  C   UNL     1       2.680   1.896  18.294  0.00  0.00    +0.000 A 
ATOM      9  C   UNL     1       1.458   2.537  18.381  0.00  0.00    +0.000 A 
ATOM     10  C   UNL     1       1.452   3.911  18.265  0.00  0.00    +0.000 A 
ATOM     11  N   UNL     1       2.564   4.651  18.065  0.00  0.00    +0.000 NA
ATOM     12  C   UNL     1       4.767   6.257  17.992  0.00  0.00    +0.000 C 
ATOM     13  C   UNL     1       5.531   7.076  16.926  0.00  0.00    +0.000 C 
ENDBRANCH   1   2
BRANCH   1  15
ATOM     14  O   UNL     1       7.642   9.383  17.210  0.00  0.00    +0.000 OA
ATOM     15  C   UNL     1       8.084   8.600  18.051  0.00  0.00    +0.000 C 
ATOM     16  N   UNL     1       8.960   8.932  19.071  0.00  0.00    +0.000 N 
ATOM     17  H   UNL     1       8.930   8.292  19.861  0.00  0.00    +0.000 HD
BRANCH  16  18
ATOM     18  C   UNL     1       9.398  10.253  19.278  0.00  0.00    +0.000 A 
ATOM     19  C   UNL     1       9.911  10.960  18.190  0.00  0.00    +0.000 A 
ATOM     20  C   UNL     1      10.463  12.230  18.384  0.00  0.00    +0.000 A 
ATOM     21  C   UNL     1      10.438  12.816  19.649  0.00  0.00    +0.000 A 
ATOM     22 BR   UNL     1      11.201  14.525  19.907  0.00  0.00    +0.000 Br
ATOM     23  C   UNL     1       9.866  12.144  20.726  0.00  0.00    +0.000 A 
ATOM     24  C   UNL     1       9.358  10.855  20.541  0.00  0.00    +0.000 A 
ENDBRANCH  16  18
ENDBRANCH   1  15
TORSDOF 3
ENDMDL
MODEL 2
REMARK VINA RESULT:      -8.0      0.210      1.028
REMARK  Name = 
REMARK  3 active torsions:
REMARK  status: ('A' for Active; 'I' for Inactive)
REMARK    1  A    between atoms: C_2  and  C_3
REMARK    2  A    between atoms: C_3  and  N_4
REMARK    3  A    between atoms: N_16  and  C_17
REMARK                            x       y       z     vdW  Elec       q    Type
REMARK                         _______ _______ _______ _____ _____    ______ ____
ROOT
ATOM      1  C   UNL     1       7.582   7.182  17.906  0.00  0.00    +0.000 C 
ENDROOT
BRANCH   1   2
ATOM      2  N   UNL     1       6.784   6.859  16.697  0.00  0.00    +0.000 NA
ATOM      3  C   UNL     1       6.847   5.420  16.320  0.00  0.00    +0.000 C 
ATOM      4  C   UNL     1       6.124   4.393  17.239  0.00  0.00    +0.000 C 
ATOM      5  N   UNL     1       4.778   4.856  17.588  0.00  0.00    +0.000 N 
ATOM      6  C   UNL     1       3.722   4.020  17.901  0.00  0.00    +0.000 A 
ATOM      7  C   UNL     1       3.822   2.632  17.894  0.00  0.00    +0.000 A 
ATOM      8  C   UNL     1       2.696   1.836  18.135  0.00  0.00    +0.000 A 
ATOM      9  C   UNL     1       1.475   2.442  18.370  0.00  0.00    +0.000 A 
ATOM     10  C   UNL     1       1.439   3.821  18.368  0.00  0.00    +0.000 A 
ATOM     11  N   UNL     1       2.520   4.598  18.144  0.00  0.00    +0.000 NA
ATOM     12  C   UNL     1       4.685   6.252  18.032  0.00  0.00    +0.000 C 
ATOM     13  C   UNL     1       5.350   7.171  16.981  0.00  0.00    +0.000 C 
ENDBRANCH   1   2
BRANCH   1  15
ATOM     14  O   UNL     1       7.594   9.466  17.185  0.00  0.00    +0.000 OA
ATOM     15  C   UNL     1       8.027   8.638  17.986  0.00  0.00    +0.000 C 
ATOM     16  N   UNL     1       8.932   8.903  19.001  0.00  0.00    +0.000 N 
ATOM     17  H   UNL     1       8.896   8.233  19.765  0.00  0.00    +0.000 HD
BRANCH  16  18
ATOM     18  C   UNL     1       9.414  10.200  19.250  0.00  0.00    +0.000 A 
ATOM     19  C   UNL     1       9.274  10.725  20.534  0.00  0.00    +0.000 A 
ATOM     20  C   UNL     1       9.635  12.052  20.787  0.00  0.00    +0.000 A 
ATOM     21  C   UNL     1      10.197  12.827  19.772  0.00  0.00    +0.000 A 
ATOM     22 BR   UNL     1      10.665  14.626  20.116  0.00  0.00    +0.000 Br
ATOM     23  C   UNL     1      10.403  12.289  18.505  0.00  0.00    +0.000 A 
ATOM     24  C   UNL     1       9.998  10.977  18.242  0.00  0.00    +0.000 A 
ENDBRANCH  16  18
ENDBRANCH   1  15
TORSDOF 3
ENDMDL
MODEL 3
REMARK VINA RESULT:      -7.8      1.408      1.628
REMARK  Name = 
REMARK  3 active torsions:
REMARK  status: ('A' for Active; 'I' for Inactive)
REMARK    1  A    between atoms: C_2  and  C_3
REMARK    2  A    between atoms: C_3  and  N_4
REMARK    3  A    between atoms: N_16  and  C_17
REMARK                            x       y       z     vdW  Elec       q    Type
REMARK                         _______ _______ _______ _____ _____    ______ ____
ROOT
ATOM      1  C   UNL     1       7.204   6.193  16.902  0.00  0.00    +0.000 C 
ENDROOT
BRANCH   1   2
ATOM      2  N   UNL     1       5.880   6.559  16.340  0.00  0.00    +0.000 NA
ATOM      3  C   UNL     1       5.209   5.431  15.638  0.00  0.00    +0.000 C 
ATOM      4  C   UNL     1       4.670   4.252  16.501  0.00  0.00    +0.000 C 
ATOM      5  N   UNL     1       3.932   4.748  17.666  0.00  0.00    +0.000 N 
ATOM      6  C   UNL     1       2.917   4.056  18.299  0.00  0.00    +0.000 A 
ATOM      7  C   UNL     1       2.467   2.809  17.876  0.00  0.00    +0.000 A 
ATOM      8  C   UNL     1       1.378   2.194  18.505  0.00  0.00    +0.000 A 
ATOM      9  C   UNL     1       0.741   2.844  19.547  0.00  0.00    +0.000 A 
ATOM     10  C   UNL     1       1.234   4.075  19.924  0.00  0.00    +0.000 A 
ATOM     11  N   UNL     1       2.289   4.674  19.329  0.00  0.00    +0.000 NA
ATOM     12  C   UNL     1       4.594   5.815  18.425  0.00  0.00    +0.000 C 
ATOM     13  C   UNL     1       4.984   6.964  17.467  0.00  0.00    +0.000 C 
ENDBRANCH   1   2
BRANCH   1  15
ATOM     14  O   UNL     1       8.221   6.933  18.941  0.00  0.00    +0.000 OA
ATOM     15  C   UNL     1       7.799   7.248  17.829  0.00  0.00    +0.000 C 
ATOM     16  N   UNL     1       7.799   8.531  17.306  0.00  0.00    +0.000 N 
ATOM     17  H   UNL     1       7.769   8.558  16.290  0.00  0.00    +0.000 HD
BRANCH  16  18
ATOM     18  C   UNL     1       8.351   9.620  18.004  0.00  0.00    +0.000 A 
ATOM     19  C   UNL     1       8.200  10.898  17.467  0.00  0.00    +0.000 A 
ATOM     20  C   UNL     1       8.837  11.987  18.072  0.00  0.00    +0.000 A 
ATOM     21  C   UNL     1       9.564  11.804  19.248  0.00  0.00    +0.000 A 
ATOM     22 BR   UNL     1      10.436  13.276  20.050  0.00  0.00    +0.000 Br
ATOM     23  C   UNL     1       9.662  10.542  19.827  0.00  0.00    +0.000 A 
ATOM     24  C   UNL     1       9.065   9.447  19.195  0.00  0.00    +0.000 A 
ENDBRANCH  16  18
ENDBRANCH   1  15
TORSDOF 3
ENDMDL
MODEL 4
REMARK VINA RESULT:      -7.7      5.554      7.072
REMARK  Name = 
REMARK  3 active torsions:
REMARK  status: ('A' for Active; 'I' for Inactive)
REMARK    1  A    between atoms: C_2  and  C_3
REMARK    2  A    between atoms: C_3  and  N_4
REMARK    3  A    between atoms: N_16  and  C_17
REMARK                            x       y       z     vdW  Elec       q    Type
REMARK                         _______ _______ _______ _____ _____    ______ ____
ROOT
ATOM      1  C   UNL     1       2.485   3.535  21.203  0.00  0.00    +0.000 C 
ENDROOT
BRANCH   1   2
ATOM      2  N   UNL     1       2.746   2.506  20.166  0.00  0.00    +0.000 NA
ATOM      3  C   UNL     1       2.208   2.873  18.827  0.00  0.00    +0.000 C 
ATOM      4  C   UNL     1       2.905   4.029  18.052  0.00  0.00    +0.000 C 
ATOM      5  N   UNL     1       4.362   3.878  18.084  0.00  0.00    +0.000 N 
ATOM      6  C   UNL     1       5.217   4.362  17.111  0.00  0.00    +0.000 A 
ATOM      7  C   UNL     1       4.776   5.031  15.973  0.00  0.00    +0.000 A 
ATOM      8  C   UNL     1       5.683   5.422  14.981  0.00  0.00    +0.000 A 
ATOM      9  C   UNL     1       7.025   5.127  15.134  0.00  0.00    +0.000 A 
ATOM     10  C   UNL     1       7.403   4.466  16.284  0.00  0.00    +0.000 A 
ATOM     11  N   UNL     1       6.538   4.091  17.251  0.00  0.00    +0.000 NA
ATOM     12  C   UNL     1       4.939   3.584  19.400  0.00  0.00    +0.000 C 
ATOM     13  C   UNL     1       4.226   2.356  20.012  0.00  0.00    +0.000 C 
ENDBRANCH   1   2
BRANCH   1  15
ATOM     14  O   UNL     1       0.543   4.673  20.386  0.00  0.00    +0.000 OA
ATOM     15  C   UNL     1       1.733   4.757  20.690  0.00  0.00    +0.000 C 
ATOM     16  N   UNL     1       2.503   5.905  20.601  0.00  0.00    +0.000 N 
ATOM     17  H   UNL     1       3.314   5.901  21.214  0.00  0.00    +0.000 HD
BRANCH  16  18
ATOM     18  C   UNL     1       1.961   7.137  20.192  0.00  0.00    +0.000 A 
ATOM     19  C   UNL     1       2.208   7.570  18.889  0.00  0.00    +0.000 A 
ATOM     20  C   UNL     1       1.785   8.841  18.487  0.00  0.00    +0.000 A 
ATOM     21  C   UNL     1       1.057   9.644  19.365  0.00  0.00    +0.000 A 
ATOM     22 BR   UNL     1       0.504  11.368  18.821  0.00  0.00    +0.000 Br
ATOM     23  C   UNL     1       0.748   9.190  20.644  0.00  0.00    +0.000 A 
ATOM     24  C   UNL     1       1.213   7.939  21.061  0.00  0.00    +0.000 A 
ENDBRANCH  16  18
ENDBRANCH   1  15
TORSDOF 3
ENDMDL
MODEL 5
REMARK VINA RESULT:      -7.6      5.636      7.168
REMARK  Name = 
REMARK  3 active torsions:
REMARK  status: ('A' for Active; 'I' for Inactive)
REMARK    1  A    between atoms: C_2  and  C_3
REMARK    2  A    between atoms: C_3  and  N_4
REMARK    3  A    between atoms: N_16  and  C_17
REMARK                            x       y       z     vdW  Elec       q    Type
REMARK                         _______ _______ _______ _____ _____    ______ ____
ROOT
ATOM      1  C   UNL     1       2.515   3.627  21.177  0.00  0.00    +0.000 C 
ENDROOT
BRANCH   1   2
ATOM      2  N   UNL     1       2.741   2.583  20.147  0.00  0.00    +0.000 NA
ATOM      3  C   UNL     1       2.194   2.948  18.811  0.00  0.00    +0.000 C 
ATOM      4  C   UNL     1       2.907   4.081  18.016  0.00  0.00    +0.000 C 
ATOM      5  N   UNL     1       4.361   3.899  18.032  0.00  0.00    +0.000 N 
ATOM      6  C   UNL     1       5.215   4.354  17.045  0.00  0.00    +0.000 A 
ATOM      7  C   UNL     1       4.775   5.021  15.906  0.00  0.00    +0.000 A 
ATOM      8  C   UNL     1       5.678   5.383  14.899  0.00  0.00    +0.000 A 
ATOM      9  C   UNL     1       7.015   5.060  15.039  0.00  0.00    +0.000 A 
ATOM     10  C   UNL     1       7.393   4.402  16.191  0.00  0.00    +0.000 A 
ATOM     11  N   UNL     1       6.531   4.056  17.172  0.00  0.00    +0.000 NA
ATOM     12  C   UNL     1       4.947   3.605  19.345  0.00  0.00    +0.000 C 
ATOM     13  C   UNL     1       4.215   2.399  19.977  0.00  0.00    +0.000 C 
ENDBRANCH   1   2
BRANCH   1  15
ATOM     14  O   UNL     1       0.587   4.796  20.368  0.00  0.00    +0.000 OA
ATOM     15  C   UNL     1       1.781   4.860  20.661  0.00  0.00    +0.000 C 
ATOM     16  N   UNL     1       2.571   5.993  20.557  0.00  0.00    +0.000 N 
ATOM     17  H   UNL     1       3.387   5.978  21.164  0.00  0.00    +0.000 HD
BRANCH  16  18
ATOM     18  C   UNL     1       2.049   7.231  20.143  0.00  0.00    +0.000 A 
ATOM     19  C   UNL     1       1.307   7.978  21.058  0.00  0.00    +0.000 A 
ATOM     20  C   UNL     1       0.675   9.155  20.645  0.00  0.00    +0.000 A 
ATOM     21  C   UNL     1       0.844   9.616  19.340  0.00  0.00    +0.000 A 
ATOM     22 BR   UNL     1      -0.028  11.198  18.783  0.00  0.00    +0.000 Br
ATOM     23  C   UNL     1       1.639   8.911  18.440  0.00  0.00    +0.000 A 
ATOM     24  C   UNL     1       2.230   7.710  18.841  0.00  0.00    +0.000 A 
ENDBRANCH  16  18
ENDBRANCH   1  15
TORSDOF 3
ENDMDL
MODEL 6
REMARK VINA RESULT:      -7.6      1.426      1.802
REMARK  Name = 
REMARK  3 active torsions:
REMARK  status: ('A' for Active; 'I' for Inactive)
REMARK    1  A    between atoms: C_2  and  C_3
REMARK    2  A    between atoms: C_3  and  N_4
REMARK    3  A    between atoms: N_16  and  C_17
REMARK                            x       y       z     vdW  Elec       q    Type
REMARK                         _______ _______ _______ _____ _____    ______ ____
ROOT
ATOM      1  C   UNL     1       7.215   6.269  16.944  0.00  0.00    +0.000 C 
ENDROOT
BRANCH   1   2
ATOM      2  N   UNL     1       5.889   6.642  16.392  0.00  0.00    +0.000 NA
ATOM      3  C   UNL     1       5.221   5.526  15.667  0.00  0.00    +0.000 C 
ATOM      4  C   UNL     1       4.689   4.327  16.505  0.00  0.00    +0.000 C 
ATOM      5  N   UNL     1       3.951   4.794  17.681  0.00  0.00    +0.000 N 
ATOM      6  C   UNL     1       2.939   4.084  18.301  0.00  0.00    +0.000 A 
ATOM      7  C   UNL     1       2.494   2.845  17.851  0.00  0.00    +0.000 A 
ATOM      8  C   UNL     1       1.408   2.212  18.469  0.00  0.00    +0.000 A 
ATOM      9  C   UNL     1       0.770   2.836  19.525  0.00  0.00    +0.000 A 
ATOM     10  C   UNL     1       1.258   4.062  19.928  0.00  0.00    +0.000 A 
ATOM     11  N   UNL     1       2.310   4.677  19.345  0.00  0.00    +0.000 NA
ATOM     12  C   UNL     1       4.609   5.848  18.463  0.00  0.00    +0.000 C 
ATOM     13  C   UNL     1       4.993   7.018  17.528  0.00  0.00    +0.000 C 
ENDBRANCH   1   2
BRANCH   1  15
ATOM     14  O   UNL     1       8.267   7.028  18.958  0.00  0.00    +0.000 OA
ATOM     15  C   UNL     1       7.833   7.331  17.847  0.00  0.00    +0.000 C 
ATOM     16  N   UNL     1       7.840   8.606  17.305  0.00  0.00    +0.000 N 
ATOM     17  H   UNL     1       7.797   8.619  16.289  0.00  0.00    +0.000 HD
BRANCH  16  18
ATOM     18  C   UNL     1       8.413   9.700  17.979  0.00  0.00    +0.000 A 
ATOM     19  C   UNL     1       9.084   9.462  19.178  0.00  0.00    +0.000 A 
ATOM     20  C   UNL     1       9.563  10.538  19.932  0.00  0.00    +0.000 A 
ATOM     21  C   UNL     1       9.428  11.841  19.452  0.00  0.00    +0.000 A 
ATOM     22 BR   UNL     1      10.061  13.292  20.485  0.00  0.00    +0.000 Br
ATOM     23  C   UNL     1       8.820  12.080  18.223  0.00  0.00    +0.000 A 
ATOM     24  C   UNL     1       8.299  11.007  17.493  0.00  0.00    +0.000 A 
ENDBRANCH  16  18
ENDBRANCH   1  15
TORSDOF 3
ENDMDL
MODEL 7
REMARK VINA RESULT:      -7.5      1.466      1.752
REMARK  Name = 
REMARK  3 active torsions:
REMARK  status: ('A' for Active; 'I' for Inactive)
REMARK    1  A    between atoms: C_2  and  C_3
REMARK    2  A    between atoms: C_3  and  N_4
REMARK    3  A    between atoms: N_16  and  C_17
REMARK                            x       y       z     vdW  Elec       q    Type
REMARK                         _______ _______ _______ _____ _____    ______ ____
ROOT
ATOM      1  C   UNL     1       6.848   7.042  17.158  0.00  0.00    +0.000 C 
ENDROOT
BRANCH   1   2
ATOM      2  N   UNL     1       6.984   5.605  17.503  0.00  0.00    +0.000 NA
ATOM      3  C   UNL     1       6.722   5.319  18.941  0.00  0.00    +0.000 C 
ATOM      4  C   UNL     1       5.258   5.445  19.455  0.00  0.00    +0.000 C 
ATOM      5  N   UNL     1       4.322   4.787  18.540  0.00  0.00    +0.000 N 
ATOM      6  C   UNL     1       3.106   4.252  18.920  0.00  0.00    +0.000 A 
ATOM      7  C   UNL     1       2.648   4.261  20.234  0.00  0.00    +0.000 A 
ATOM      8  C   UNL     1       1.446   3.627  20.574  0.00  0.00    +0.000 A 
ATOM      9  C   UNL     1       0.720   2.978  19.592  0.00  0.00    +0.000 A 
ATOM     10  C   UNL     1       1.223   3.006  18.307  0.00  0.00    +0.000 A 
ATOM     11  N   UNL     1       2.376   3.621  17.967  0.00  0.00    +0.000 NA
ATOM     12  C   UNL     1       4.504   5.098  17.117  0.00  0.00    +0.000 C 
ATOM     13  C   UNL     1       5.974   4.833  16.716  0.00  0.00    +0.000 C 
ENDBRANCH   1   2
BRANCH   1  15
ATOM     14  O   UNL     1       8.598   7.488  18.731  0.00  0.00    +0.000 OA
ATOM     15  C   UNL     1       7.797   7.958  17.924  0.00  0.00    +0.000 C 
ATOM     16  N   UNL     1       7.653   9.303  17.628  0.00  0.00    +0.000 N 
ATOM     17  H   UNL     1       7.239   9.479  16.716  0.00  0.00    +0.000 HD
BRANCH  16  18
ATOM     18  C   UNL     1       8.478  10.285  18.206  0.00  0.00    +0.000 A 
ATOM     19  C   UNL     1       8.550  11.536  17.593  0.00  0.00    +0.000 A 
ATOM     20  C   UNL     1       9.448  12.495  18.073  0.00  0.00    +0.000 A 
ATOM     21  C   UNL     1      10.219  12.225  19.203  0.00  0.00    +0.000 A 
ATOM     22 BR   UNL     1      11.443  13.519  19.835  0.00  0.00    +0.000 Br
ATOM     23  C   UNL     1      10.102  11.003  19.861  0.00  0.00    +0.000 A 
ATOM     24  C   UNL     1       9.239  10.028  19.352  0.00  0.00    +0.000 A 
ENDBRANCH  16  18
ENDBRANCH   1  15
TORSDOF 3
ENDMDL
MODEL 8
REMARK VINA RESULT:      -7.4      1.369      1.742
REMARK  Name = 
REMARK  3 active torsions:
REMARK  status: ('A' for Active; 'I' for Inactive)
REMARK    1  A    between atoms: C_2  and  C_3
REMARK    2  A    between atoms: C_3  and  N_4
REMARK    3  A    between atoms: N_16  and  C_17
REMARK                            x       y       z     vdW  Elec       q    Type
REMARK                         _______ _______ _______ _____ _____    ______ ____
ROOT
ATOM      1  C   UNL     1       7.256   8.024  17.549  0.00  0.00    +0.000 C 
ENDROOT
BRANCH   1   2
ATOM      2  N   UNL     1       7.695   6.614  17.396  0.00  0.00    +0.000 NA
ATOM      3  C   UNL     1       7.621   5.836  18.664  0.00  0.00    +0.000 C 
ATOM      4  C   UNL     1       6.211   5.482  19.222  0.00  0.00    +0.000 C 
ATOM      5  N   UNL     1       5.341   4.969  18.161  0.00  0.00    +0.000 N 
ATOM      6  C   UNL     1       4.287   4.098  18.369  0.00  0.00    +0.000 A 
ATOM      7  C   UNL     1       3.955   3.592  19.622  0.00  0.00    +0.000 A 
ATOM      8  C   UNL     1       2.931   2.646  19.758  0.00  0.00    +0.000 A 
ATOM      9  C   UNL     1       2.258   2.207  18.632  0.00  0.00    +0.000 A 
ATOM     10  C   UNL     1       2.630   2.748  17.419  0.00  0.00    +0.000 A 
ATOM     11  N   UNL     1       3.610   3.666  17.277  0.00  0.00    +0.000 NA
ATOM     12  C   UNL     1       5.333   5.749  16.917  0.00  0.00    +0.000 C 
ATOM     13  C   UNL     1       6.784   5.939  16.421  0.00  0.00    +0.000 C 
ENDBRANCH   1   2
BRANCH   1  15
ATOM     14  O   UNL     1       9.008   8.505  19.109  0.00  0.00    +0.000 OA
ATOM     15  C   UNL     1       8.294   8.930  18.202  0.00  0.00    +0.000 C 
ATOM     16  N   UNL     1       8.329  10.217  17.690  0.00  0.00    +0.000 N 
ATOM     17  H   UNL     1       7.963  10.291  16.745  0.00  0.00    +0.000 HD
BRANCH  16  18
ATOM     18  C   UNL     1       9.256  11.173  18.142  0.00  0.00    +0.000 A 
ATOM     19  C   UNL     1       8.806  12.184  18.992  0.00  0.00    +0.000 A 
ATOM     20  C   UNL     1       9.673  13.216  19.365  0.00  0.00    +0.000 A 
ATOM     21  C   UNL     1      11.003  13.197  18.943  0.00  0.00    +0.000 A 
ATOM     22 BR   UNL     1      12.163  14.605  19.436  0.00  0.00    +0.000 Br
ATOM     23  C   UNL     1      11.476  12.155  18.151  0.00  0.00    +0.000 A 
ATOM     24  C   UNL     1      10.596  11.149  17.740  0.00  0.00    +0.000 A 
ENDBRANCH  16  18
ENDBRANCH   1  15
TORSDOF 3
ENDMDL
MODEL 9
REMARK VINA RESULT:      -7.4      1.515      2.026
REMARK  Name = 
REMARK  3 active torsions:
REMARK  status: ('A' for Active; 'I' for Inactive)
REMARK    1  A    between atoms: C_2  and  C_3
REMARK    2  A    between atoms: C_3  and  N_4
REMARK    3  A    between atoms: N_16  and  C_17
REMARK                            x       y       z     vdW  Elec       q    Type
REMARK                         _______ _______ _______ _____ _____    ______ ____
ROOT
ATOM      1  C   UNL     1       6.957   6.752  17.072  0.00  0.00    +0.000 C 
ENDROOT
BRANCH   1   2
ATOM      2  N   UNL     1       7.054   5.344  17.533  0.00  0.00    +0.000 NA
ATOM      3  C   UNL     1       6.749   5.179  18.981  0.00  0.00    +0.000 C 
ATOM      4  C   UNL     1       5.276   5.374  19.444  0.00  0.00    +0.000 C 
ATOM      5  N   UNL     1       4.349   4.663  18.559  0.00  0.00    +0.000 N 
ATOM      6  C   UNL     1       3.112   4.184  18.948  0.00  0.00    +0.000 A 
ATOM      7  C   UNL     1       2.622   4.307  20.245  0.00  0.00    +0.000 A 
ATOM      8  C   UNL     1       1.399   3.725  20.601  0.00  0.00    +0.000 A 
ATOM      9  C   UNL     1       0.684   3.015  19.654  0.00  0.00    +0.000 A 
ATOM     10  C   UNL     1       1.219   2.930  18.386  0.00  0.00    +0.000 A 
ATOM     11  N   UNL     1       2.394   3.493  18.029  0.00  0.00    +0.000 NA
ATOM     12  C   UNL     1       4.574   4.856  17.122  0.00  0.00    +0.000 C 
ATOM     13  C   UNL     1       6.047   4.532  16.783  0.00  0.00    +0.000 C 
ENDBRANCH   1   2
BRANCH   1  15
ATOM     14  O   UNL     1       8.542   7.320  18.775  0.00  0.00    +0.000 OA
ATOM     15  C   UNL     1       7.810   7.728  17.873  0.00  0.00    +0.000 C 
ATOM     16  N   UNL     1       7.667   9.053  17.496  0.00  0.00    +0.000 N 
ATOM     17  H   UNL     1       7.337   9.173  16.542  0.00  0.00    +0.000 HD
BRANCH  16  18
ATOM     18  C   UNL     1       8.413  10.084  18.096  0.00  0.00    +0.000 A 
ATOM     19  C   UNL     1       9.120   9.798  19.264  0.00  0.00    +0.000 A 
ATOM     20  C   UNL     1       9.775  10.826  19.950  0.00  0.00    +0.000 A 
ATOM     21  C   UNL     1       9.778  12.120  19.430  0.00  0.00    +0.000 A 
ATOM     22 BR   UNL     1      10.649  13.508  20.371  0.00  0.00    +0.000 Br
ATOM     23  C   UNL     1       9.131  12.399  18.229  0.00  0.00    +0.000 A 
ATOM     24  C   UNL     1       8.437  11.380  17.569  0.00  0.00    +0.000 A 
ENDBRANCH  16  18
ENDBRANCH   1  15
TORSDOF 3
ENDMDL
