MODEL 1
REMARK VINA RESULT:      -8.6      0.000      0.000
REMARK  Name = 
REMARK  4 active torsions:
REMARK  status: ('A' for Active; 'I' for Inactive)
REMARK    1  A    between atoms: C_4  and  C_6
REMARK    2  A    between atoms: C_18  and  O_19
REMARK    3  A    between atoms: O_19  and  C_20
REMARK    4  A    between atoms: C_20  and  C_21
REMARK                            x       y       z     vdW  Elec       q    Type
REMARK                         _______ _______ _______ _____ _____    ______ ____
ROOT
ATOM      1  O   UNL     1       7.678   6.208  17.749  0.00  0.00    +0.000 OA
ATOM      2  C   UNL     1       7.018   5.558  16.943  0.00  0.00    +0.000 C 
ATOM      3  N   UNL     1       5.831   4.921  17.198  0.00  0.00    +0.000 N 
ATOM      4  C   UNL     1       5.156   4.892  18.408  0.00  0.00    +0.000 C 
ATOM      5  O   UNL     1       5.539   5.433  19.437  0.00  0.00    +0.000 OA
ATOM      6  N   UNL     1       7.520   5.451  15.669  0.00  0.00    +0.000 N 
ATOM      7  C   UNL     1       6.942   4.851  14.551  0.00  0.00    +0.000 A 
ATOM      8  C   UNL     1       7.622   4.868  13.343  0.00  0.00    +0.000 A 
ATOM      9  C   UNL     1       7.015   4.292  12.229  0.00  0.00    +0.000 A 
ATOM     10  C   UNL     1       5.775   3.707  12.390  0.00  0.00    +0.000 A 
ATOM     11  N   UNL     1       5.137   3.696  13.573  0.00  0.00    +0.000 NA
ATOM     12  N   UNL     1       5.726   4.276  14.653  0.00  0.00    +0.000 NA
ATOM     13  H   UNL     1       5.431   4.413  16.418  0.00  0.00    +0.000 HD
ATOM     14  H   UNL     1       8.409   5.921  15.564  0.00  0.00    +0.000 HD
ENDROOT
BRANCH   4  15
ATOM     15  C   UNL     1       3.878   4.132  18.427  0.00  0.00    +0.000 A 
ATOM     16  C   UNL     1       3.789   2.836  18.938  0.00  0.00    +0.000 A 
ATOM     17  F   UNL     1       4.871   2.217  19.433  0.00  0.00    +0.000 F 
ATOM     18  C   UNL     1       2.574   2.145  18.970  0.00  0.00    +0.000 A 
ATOM     19  C   UNL     1       1.417   2.757  18.499  0.00  0.00    +0.000 A 
ATOM     20  C   UNL     1       1.484   4.054  17.992  0.00  0.00    +0.000 A 
ATOM     21  C   UNL     1       2.707   4.730  17.957  0.00  0.00    +0.000 A 
ATOM     22  F   UNL     1       2.715   5.961  17.430  0.00  0.00    +0.000 F 
ENDBRANCH   4  15
BRANCH  10  23
ATOM     23  O   UNL     1       5.172   3.143  11.290  0.00  0.00    +0.000 OA
BRANCH  23  24
ATOM     24  C   UNL     1       3.745   3.336  11.283  0.00  0.00    +0.000 C 
BRANCH  24  25
ATOM     25  C   UNL     1       3.125   3.646   9.919  0.00  0.00    +0.000 C 
ATOM     26  F   UNL     1       4.039   3.760   8.932  0.00  0.00    +0.000 F 
ATOM     27  F   UNL     1       2.273   2.654   9.559  0.00  0.00    +0.000 F 
ATOM     28  F   UNL     1       2.399   4.788   9.953  0.00  0.00    +0.000 F 
ENDBRANCH  24  25
ENDBRANCH  23  24
ENDBRANCH  10  23
TORSDOF 4
ENDMDL
MODEL 2
REMARK VINA RESULT:      -8.6      0.169      1.629
REMARK  Name = 
REMARK  4 active torsions:
REMARK  status: ('A' for Active; 'I' for Inactive)
REMARK    1  A    between atoms: C_4  and  C_6
REMARK    2  A    between atoms: C_18  and  O_19
REMARK    3  A    between atoms: O_19  and  C_20
REMARK    4  A    between atoms: C_20  and  C_21
REMARK                            x       y       z     vdW  Elec       q    Type
REMARK                         _______ _______ _______ _____ _____    ______ ____
ROOT
ATOM      1  O   UNL     1       7.570   6.309  17.904  0.00  0.00    +0.000 OA
ATOM      2  C   UNL     1       6.939   5.639  17.090  0.00  0.00    +0.000 C 
ATOM      3  N   UNL     1       5.761   4.979  17.329  0.00  0.00    +0.000 N 
ATOM      4  C   UNL     1       5.064   4.945  18.527  0.00  0.00    +0.000 C 
ATOM      5  O   UNL     1       5.417   5.502  19.558  0.00  0.00    +0.000 OA
ATOM      6  N   UNL     1       7.466   5.534  15.827  0.00  0.00    +0.000 N 
ATOM      7  C   UNL     1       6.922   4.913  14.703  0.00  0.00    +0.000 A 
ATOM      8  C   UNL     1       7.623   4.936  13.508  0.00  0.00    +0.000 A 
ATOM      9  C   UNL     1       7.049   4.339  12.387  0.00  0.00    +0.000 A 
ATOM     10  C   UNL     1       5.819   3.730  12.529  0.00  0.00    +0.000 A 
ATOM     11  N   UNL     1       5.160   3.714  13.701  0.00  0.00    +0.000 NA
ATOM     12  N   UNL     1       5.716   4.314  14.787  0.00  0.00    +0.000 NA
ATOM     13  H   UNL     1       5.386   4.458  16.546  0.00  0.00    +0.000 HD
ATOM     14  H   UNL     1       8.347   6.021  15.735  0.00  0.00    +0.000 HD
ENDROOT
BRANCH   4  15
ATOM     15  C   UNL     1       3.802   4.158  18.528  0.00  0.00    +0.000 A 
ATOM     16  C   UNL     1       2.617   4.651  17.980  0.00  0.00    +0.000 A 
ATOM     17  F   UNL     1       2.571   5.872  17.429  0.00  0.00    +0.000 F 
ATOM     18  C   UNL     1       1.446   3.888  17.967  0.00  0.00    +0.000 A 
ATOM     19  C   UNL     1       1.452   2.601  18.497  0.00  0.00    +0.000 A 
ATOM     20  C   UNL     1       2.628   2.089  19.041  0.00  0.00    +0.000 A 
ATOM     21  C   UNL     1       3.790   2.865  19.056  0.00  0.00    +0.000 A 
ATOM     22  F   UNL     1       4.880   2.331  19.621  0.00  0.00    +0.000 F 
ENDBRANCH   4  15
BRANCH  10  23
ATOM     23  O   UNL     1       5.248   3.145  11.424  0.00  0.00    +0.000 OA
BRANCH  23  24
ATOM     24  C   UNL     1       3.817   3.303  11.392  0.00  0.00    +0.000 C 
BRANCH  24  25
ATOM     25  C   UNL     1       3.219   3.659  10.030  0.00  0.00    +0.000 C 
ATOM     26  F   UNL     1       4.124   3.637   9.028  0.00  0.00    +0.000 F 
ATOM     27  F   UNL     1       2.245   2.774   9.703  0.00  0.00    +0.000 F 
ATOM     28  F   UNL     1       2.643   4.883  10.047  0.00  0.00    +0.000 F 
ENDBRANCH  24  25
ENDBRANCH  23  24
ENDBRANCH  10  23
TORSDOF 4
ENDMDL
MODEL 3
REMARK VINA RESULT:      -8.5      1.772      2.105
REMARK  Name = 
REMARK  4 active torsions:
REMARK  status: ('A' for Active; 'I' for Inactive)
REMARK    1  A    between atoms: C_4  and  C_6
REMARK    2  A    between atoms: C_18  and  O_19
REMARK    3  A    between atoms: O_19  and  C_20
REMARK    4  A    between atoms: C_20  and  C_21
REMARK                            x       y       z     vdW  Elec       q    Type
REMARK                         _______ _______ _______ _____ _____    ______ ____
ROOT
ATOM      1  O   UNL     1       7.533   6.402  18.110  0.00  0.00    +0.000 OA
ATOM      2  C   UNL     1       6.942   5.736  17.264  0.00  0.00    +0.000 C 
ATOM      3  N   UNL     1       5.777   5.039  17.454  0.00  0.00    +0.000 N 
ATOM      4  C   UNL     1       5.050   4.956  18.632  0.00  0.00    +0.000 C 
ATOM      5  O   UNL     1       5.360   5.496  19.686  0.00  0.00    +0.000 OA
ATOM      6  N   UNL     1       7.505   5.677  16.013  0.00  0.00    +0.000 N 
ATOM      7  C   UNL     1       7.008   5.071  14.860  0.00  0.00    +0.000 A 
ATOM      8  C   UNL     1       7.740   5.143  13.686  0.00  0.00    +0.000 A 
ATOM      9  C   UNL     1       7.213   4.559  12.535  0.00  0.00    +0.000 A 
ATOM     10  C   UNL     1       5.996   3.914  12.629  0.00  0.00    +0.000 A 
ATOM     11  N   UNL     1       5.307   3.851  13.782  0.00  0.00    +0.000 NA
ATOM     12  N   UNL     1       5.817   4.437  14.897  0.00  0.00    +0.000 NA
ATOM     13  H   UNL     1       5.437   4.528  16.649  0.00  0.00    +0.000 HD
ATOM     14  H   UNL     1       8.375   6.190  15.957  0.00  0.00    +0.000 HD
ENDROOT
BRANCH   4  15
ATOM     15  C   UNL     1       3.811   4.136  18.579  0.00  0.00    +0.000 A 
ATOM     16  C   UNL     1       3.755   2.836  19.084  0.00  0.00    +0.000 A 
ATOM     17  F   UNL     1       4.836   2.268  19.639  0.00  0.00    +0.000 F 
ATOM     18  C   UNL     1       2.574   2.089  19.049  0.00  0.00    +0.000 A 
ATOM     19  C   UNL     1       1.417   2.647  18.514  0.00  0.00    +0.000 A 
ATOM     20  C   UNL     1       1.451   3.946  18.012  0.00  0.00    +0.000 A 
ATOM     21  C   UNL     1       2.640   4.680  18.045  0.00  0.00    +0.000 A 
ATOM     22  F   UNL     1       2.619   5.911  17.519  0.00  0.00    +0.000 F 
ENDBRANCH   4  15
BRANCH  10  23
ATOM     23  O   UNL     1       5.470   3.342  11.494  0.00  0.00    +0.000 OA
BRANCH  23  24
ATOM     24  C   UNL     1       5.373   1.909  11.592  0.00  0.00    +0.000 C 
BRANCH  24  25
ATOM     25  C   UNL     1       6.544   1.123  11.001  0.00  0.00    +0.000 C 
ATOM     26  F   UNL     1       6.374  -0.215  11.065  0.00  0.00    +0.000 F 
ATOM     27  F   UNL     1       6.705   1.440   9.692  0.00  0.00    +0.000 F 
ATOM     28  F   UNL     1       7.708   1.428  11.620  0.00  0.00    +0.000 F 
ENDBRANCH  24  25
ENDBRANCH  23  24
ENDBRANCH  10  23
TORSDOF 4
ENDMDL
MODEL 4
REMARK VINA RESULT:      -8.5      1.760      2.603
REMARK  Name = 
REMARK  4 active torsions:
REMARK  status: ('A' for Active; 'I' for Inactive)
REMARK    1  A    between atoms: C_4  and  C_6
REMARK    2  A    between atoms: C_18  and  O_19
REMARK    3  A    between atoms: O_19  and  C_20
REMARK    4  A    between atoms: C_20  and  C_21
REMARK                            x       y       z     vdW  Elec       q    Type
REMARK                         _______ _______ _______ _____ _____    ______ ____
ROOT
ATOM      1  O   UNL     1       7.569   6.361  18.141  0.00  0.00    +0.000 OA
ATOM      2  C   UNL     1       6.963   5.710  17.295  0.00  0.00    +0.000 C 
ATOM      3  N   UNL     1       5.785   5.035  17.486  0.00  0.00    +0.000 N 
ATOM      4  C   UNL     1       5.060   4.962  18.666  0.00  0.00    +0.000 C 
ATOM      5  O   UNL     1       5.383   5.492  19.720  0.00  0.00    +0.000 OA
ATOM      6  N   UNL     1       7.521   5.643  16.042  0.00  0.00    +0.000 N 
ATOM      7  C   UNL     1       7.008   5.051  14.889  0.00  0.00    +0.000 A 
ATOM      8  C   UNL     1       7.738   5.112  13.712  0.00  0.00    +0.000 A 
ATOM      9  C   UNL     1       7.196   4.542  12.561  0.00  0.00    +0.000 A 
ATOM     10  C   UNL     1       5.967   3.921  12.657  0.00  0.00    +0.000 A 
ATOM     11  N   UNL     1       5.280   3.867  13.811  0.00  0.00    +0.000 NA
ATOM     12  N   UNL     1       5.805   4.440  14.927  0.00  0.00    +0.000 NA
ATOM     13  H   UNL     1       5.433   4.533  16.680  0.00  0.00    +0.000 HD
ATOM     14  H   UNL     1       8.400   6.139  15.985  0.00  0.00    +0.000 HD
ENDROOT
BRANCH   4  15
ATOM     15  C   UNL     1       3.805   4.166  18.614  0.00  0.00    +0.000 A 
ATOM     16  C   UNL     1       2.628   4.667  18.054  0.00  0.00    +0.000 A 
ATOM     17  F   UNL     1       2.586   5.903  17.538  0.00  0.00    +0.000 F 
ATOM     18  C   UNL     1       1.464   3.896  17.992  0.00  0.00    +0.000 A 
ATOM     19  C   UNL     1       1.468   2.594  18.483  0.00  0.00    +0.000 A 
ATOM     20  C   UNL     1       2.635   2.075  19.040  0.00  0.00    +0.000 A 
ATOM     21  C   UNL     1       3.790   2.859  19.104  0.00  0.00    +0.000 A 
ATOM     22  F   UNL     1       4.871   2.316  19.679  0.00  0.00    +0.000 F 
ENDBRANCH   4  15
BRANCH  10  23
ATOM     23  O   UNL     1       5.427   3.363  11.522  0.00  0.00    +0.000 OA
BRANCH  23  24
ATOM     24  C   UNL     1       5.367   1.926  11.587  0.00  0.00    +0.000 C 
BRANCH  24  25
ATOM     25  C   UNL     1       6.552   1.184  10.965  0.00  0.00    +0.000 C 
ATOM     26  F   UNL     1       7.731   1.477  11.553  0.00  0.00    +0.000 F 
ATOM     27  F   UNL     1       6.374  -0.155  11.079  0.00  0.00    +0.000 F 
ATOM     28  F   UNL     1       6.664   1.451   9.643  0.00  0.00    +0.000 F 
ENDBRANCH  24  25
ENDBRANCH  23  24
ENDBRANCH  10  23
TORSDOF 4
ENDMDL
MODEL 5
REMARK VINA RESULT:      -8.2      4.582      8.050
REMARK  Name = 
REMARK  4 active torsions:
REMARK  status: ('A' for Active; 'I' for Inactive)
REMARK    1  A    between atoms: C_4  and  C_6
REMARK    2  A    between atoms: C_18  and  O_19
REMARK    3  A    between atoms: O_19  and  C_20
REMARK    4  A    between atoms: C_20  and  C_21
REMARK                            x       y       z     vdW  Elec       q    Type
REMARK                         _______ _______ _______ _____ _____    ______ ____
ROOT
ATOM      1  O   UNL     1       2.501   3.772  21.555  0.00  0.00    +0.000 OA
ATOM      2  C   UNL     1       2.597   4.764  20.838  0.00  0.00    +0.000 C 
ATOM      3  N   UNL     1       3.404   4.890  19.737  0.00  0.00    +0.000 N 
ATOM      4  C   UNL     1       4.260   3.925  19.229  0.00  0.00    +0.000 C 
ATOM      5  O   UNL     1       4.422   2.810  19.708  0.00  0.00    +0.000 OA
ATOM      6  N   UNL     1       1.830   5.852  21.174  0.00  0.00    +0.000 N 
ATOM      7  C   UNL     1       1.685   7.061  20.495  0.00  0.00    +0.000 A 
ATOM      8  C   UNL     1       0.839   8.032  21.008  0.00  0.00    +0.000 A 
ATOM      9  C   UNL     1       0.681   9.221  20.299  0.00  0.00    +0.000 A 
ATOM     10  C   UNL     1       1.396   9.383  19.130  0.00  0.00    +0.000 A 
ATOM     11  N   UNL     1       2.216   8.431  18.654  0.00  0.00    +0.000 NA
ATOM     12  N   UNL     1       2.354   7.265  19.341  0.00  0.00    +0.000 NA
ATOM     13  H   UNL     1       3.371   5.788  19.271  0.00  0.00    +0.000 HD
ATOM     14  H   UNL     1       1.285   5.696  22.011  0.00  0.00    +0.000 HD
ENDROOT
BRANCH   4  15
ATOM     15  C   UNL     1       5.029   4.306  18.015  0.00  0.00    +0.000 A 
ATOM     16  C   UNL     1       4.548   4.075  16.725  0.00  0.00    +0.000 A 
ATOM     17  F   UNL     1       3.358   3.489  16.531  0.00  0.00    +0.000 F 
ATOM     18  C   UNL     1       5.273   4.463  15.595  0.00  0.00    +0.000 A 
ATOM     19  C   UNL     1       6.498   5.106  15.745  0.00  0.00    +0.000 A 
ATOM     20  C   UNL     1       6.992   5.351  17.024  0.00  0.00    +0.000 A 
ATOM     21  C   UNL     1       6.261   4.951  18.146  0.00  0.00    +0.000 A 
ATOM     22  F   UNL     1       6.801   5.186  19.349  0.00  0.00    +0.000 F 
ENDBRANCH   4  15
BRANCH  10  23
ATOM     23  O   UNL     1       1.238  10.554  18.424  0.00  0.00    +0.000 OA
BRANCH  23  24
ATOM     24  C   UNL     1       0.146  11.352  18.917  0.00  0.00    +0.000 C 
BRANCH  24  25
ATOM     25  C   UNL     1      -1.187  11.176  18.186  0.00  0.00    +0.000 C 
ATOM     26  F   UNL     1      -2.227  10.961  19.020  0.00  0.00    +0.000 F 
ATOM     27  F   UNL     1      -1.476  12.291  17.470  0.00  0.00    +0.000 F 
ATOM     28  F   UNL     1      -1.137  10.150  17.305  0.00  0.00    +0.000 F 
ENDBRANCH  24  25
ENDBRANCH  23  24
ENDBRANCH  10  23
TORSDOF 4
ENDMDL
MODEL 6
REMARK VINA RESULT:      -8.1      4.706      8.113
REMARK  Name = 
REMARK  4 active torsions:
REMARK  status: ('A' for Active; 'I' for Inactive)
REMARK    1  A    between atoms: C_4  and  C_6
REMARK    2  A    between atoms: C_18  and  O_19
REMARK    3  A    between atoms: O_19  and  C_20
REMARK    4  A    between atoms: C_20  and  C_21
REMARK                            x       y       z     vdW  Elec       q    Type
REMARK                         _______ _______ _______ _____ _____    ______ ____
ROOT
ATOM      1  O   UNL     1       2.484   3.812  21.527  0.00  0.00    +0.000 OA
ATOM      2  C   UNL     1       2.597   4.797  20.801  0.00  0.00    +0.000 C 
ATOM      3  N   UNL     1       3.415   4.904  19.707  0.00  0.00    +0.000 N 
ATOM      4  C   UNL     1       4.266   3.926  19.215  0.00  0.00    +0.000 C 
ATOM      5  O   UNL     1       4.411   2.814  19.706  0.00  0.00    +0.000 OA
ATOM      6  N   UNL     1       1.839   5.896  21.121  0.00  0.00    +0.000 N 
ATOM      7  C   UNL     1       1.712   7.100  20.429  0.00  0.00    +0.000 A 
ATOM      8  C   UNL     1       0.872   8.084  20.926  0.00  0.00    +0.000 A 
ATOM      9  C   UNL     1       0.733   9.268  20.205  0.00  0.00    +0.000 A 
ATOM     10  C   UNL     1       1.460   9.413  19.041  0.00  0.00    +0.000 A 
ATOM     11  N   UNL     1       2.275   8.447  18.581  0.00  0.00    +0.000 NA
ATOM     12  N   UNL     1       2.394   7.286  19.280  0.00  0.00    +0.000 NA
ATOM     13  H   UNL     1       3.396   5.799  19.233  0.00  0.00    +0.000 HD
ATOM     14  H   UNL     1       1.284   5.753  21.954  0.00  0.00    +0.000 HD
ENDROOT
BRANCH   4  15
ATOM     15  C   UNL     1       5.050   4.287  18.005  0.00  0.00    +0.000 A 
ATOM     16  C   UNL     1       6.317   4.868  18.084  0.00  0.00    +0.000 A 
ATOM     17  F   UNL     1       6.879   5.129  19.272  0.00  0.00    +0.000 F 
ATOM     18  C   UNL     1       7.050   5.179  16.935  0.00  0.00    +0.000 A 
ATOM     19  C   UNL     1       6.523   4.895  15.679  0.00  0.00    +0.000 A 
ATOM     20  C   UNL     1       5.263   4.309  15.580  0.00  0.00    +0.000 A 
ATOM     21  C   UNL     1       4.536   4.011  16.736  0.00  0.00    +0.000 A 
ATOM     22  F   UNL     1       3.318   3.477  16.577  0.00  0.00    +0.000 F 
ENDBRANCH   4  15
BRANCH  10  23
ATOM     23  O   UNL     1       1.320  10.578  18.324  0.00  0.00    +0.000 OA
BRANCH  23  24
ATOM     24  C   UNL     1       0.608  11.594  19.054  0.00  0.00    +0.000 C 
BRANCH  24  25
ATOM     25  C   UNL     1      -0.766  11.970  18.497  0.00  0.00    +0.000 C 
ATOM     26  F   UNL     1      -0.749  13.094  17.749  0.00  0.00    +0.000 F 
ATOM     27  F   UNL     1      -1.237  10.974  17.705  0.00  0.00    +0.000 F 
ATOM     28  F   UNL     1      -1.673  12.140  19.487  0.00  0.00    +0.000 F 
ENDBRANCH  24  25
ENDBRANCH  23  24
ENDBRANCH  10  23
TORSDOF 4
ENDMDL
MODEL 7
REMARK VINA RESULT:      -8.0      4.710      8.217
REMARK  Name = 
REMARK  4 active torsions:
REMARK  status: ('A' for Active; 'I' for Inactive)
REMARK    1  A    between atoms: C_4  and  C_6
REMARK    2  A    between atoms: C_18  and  O_19
REMARK    3  A    between atoms: O_19  and  C_20
REMARK    4  A    between atoms: C_20  and  C_21
REMARK                            x       y       z     vdW  Elec       q    Type
REMARK                         _______ _______ _______ _____ _____    ______ ____
ROOT
ATOM      1  O   UNL     1       2.433   3.856  21.566  0.00  0.00    +0.000 OA
ATOM      2  C   UNL     1       2.574   4.815  20.813  0.00  0.00    +0.000 C 
ATOM      3  N   UNL     1       3.405   4.872  19.724  0.00  0.00    +0.000 N 
ATOM      4  C   UNL     1       4.237   3.860  19.270  0.00  0.00    +0.000 C 
ATOM      5  O   UNL     1       4.354   2.761  19.795  0.00  0.00    +0.000 OA
ATOM      6  N   UNL     1       1.838   5.940  21.092  0.00  0.00    +0.000 N 
ATOM      7  C   UNL     1       1.745   7.126  20.364  0.00  0.00    +0.000 A 
ATOM      8  C   UNL     1       0.923   8.142  20.823  0.00  0.00    +0.000 A 
ATOM      9  C   UNL     1       0.817   9.307  20.066  0.00  0.00    +0.000 A 
ATOM     10  C   UNL     1       1.558   9.401  18.905  0.00  0.00    +0.000 A 
ATOM     11  N   UNL     1       2.355   8.404  18.482  0.00  0.00    +0.000 NA
ATOM     12  N   UNL     1       2.441   7.262  19.216  0.00  0.00    +0.000 NA
ATOM     13  H   UNL     1       3.410   5.752  19.223  0.00  0.00    +0.000 HD
ATOM     14  H   UNL     1       1.273   5.834  21.924  0.00  0.00    +0.000 HD
ENDROOT
BRANCH   4  15
ATOM     15  C   UNL     1       5.041   4.168  18.057  0.00  0.00    +0.000 A 
ATOM     16  C   UNL     1       4.564   3.930  16.767  0.00  0.00    +0.000 A 
ATOM     17  F   UNL     1       3.347   3.402  16.572  0.00  0.00    +0.000 F 
ATOM     18  C   UNL     1       5.323   4.249  15.638  0.00  0.00    +0.000 A 
ATOM     19  C   UNL     1       6.578   4.831  15.788  0.00  0.00    +0.000 A 
ATOM     20  C   UNL     1       7.068   5.083  17.068  0.00  0.00    +0.000 A 
ATOM     21  C   UNL     1       6.303   4.751  18.190  0.00  0.00    +0.000 A 
ATOM     22  F   UNL     1       6.840   4.989  19.393  0.00  0.00    +0.000 F 
ENDBRANCH   4  15
BRANCH  10  23
ATOM     23  O   UNL     1       1.451  10.547  18.152  0.00  0.00    +0.000 OA
BRANCH  23  24
ATOM     24  C   UNL     1       1.205  11.715  18.957  0.00  0.00    +0.000 C 
BRANCH  24  25
ATOM     25  C   UNL     1       2.188  12.872  18.764  0.00  0.00    +0.000 C 
ATOM     26  F   UNL     1       2.803  13.244  19.906  0.00  0.00    +0.000 F 
ATOM     27  F   UNL     1       3.160  12.516  17.887  0.00  0.00    +0.000 F 
ATOM     28  F   UNL     1       1.575  13.960  18.243  0.00  0.00    +0.000 F 
ENDBRANCH  24  25
ENDBRANCH  23  24
ENDBRANCH  10  23
TORSDOF 4
ENDMDL
MODEL 8
REMARK VINA RESULT:      -7.9      4.748      8.263
REMARK  Name = 
REMARK  4 active torsions:
REMARK  status: ('A' for Active; 'I' for Inactive)
REMARK    1  A    between atoms: C_4  and  C_6
REMARK    2  A    between atoms: C_18  and  O_19
REMARK    3  A    between atoms: O_19  and  C_20
REMARK    4  A    between atoms: C_20  and  C_21
REMARK                            x       y       z     vdW  Elec       q    Type
REMARK                         _______ _______ _______ _____ _____    ______ ____
ROOT
ATOM      1  O   UNL     1       2.407   3.938  21.495  0.00  0.00    +0.000 OA
ATOM      2  C   UNL     1       2.570   4.896  20.744  0.00  0.00    +0.000 C 
ATOM      3  N   UNL     1       3.414   4.943  19.665  0.00  0.00    +0.000 N 
ATOM      4  C   UNL     1       4.239   3.921  19.221  0.00  0.00    +0.000 C 
ATOM      5  O   UNL     1       4.335   2.819  19.746  0.00  0.00    +0.000 OA
ATOM      6  N   UNL     1       1.845   6.031  21.015  0.00  0.00    +0.000 N 
ATOM      7  C   UNL     1       1.776   7.217  20.287  0.00  0.00    +0.000 A 
ATOM      8  C   UNL     1       0.962   8.244  20.737  0.00  0.00    +0.000 A 
ATOM      9  C   UNL     1       0.880   9.411  19.979  0.00  0.00    +0.000 A 
ATOM     10  C   UNL     1       1.636   9.496  18.827  0.00  0.00    +0.000 A 
ATOM     11  N   UNL     1       2.425   8.489  18.414  0.00  0.00    +0.000 NA
ATOM     12  N   UNL     1       2.488   7.346  19.147  0.00  0.00    +0.000 NA
ATOM     13  H   UNL     1       3.437   5.823  19.165  0.00  0.00    +0.000 HD
ATOM     14  H   UNL     1       1.268   5.931  21.840  0.00  0.00    +0.000 HD
ENDROOT
BRANCH   4  15
ATOM     15  C   UNL     1       5.061   4.219  18.018  0.00  0.00    +0.000 A 
ATOM     16  C   UNL     1       6.348   4.752  18.108  0.00  0.00    +0.000 A 
ATOM     17  F   UNL     1       6.897   5.023  19.301  0.00  0.00    +0.000 F 
ATOM     18  C   UNL     1       7.116   5.003  16.968  0.00  0.00    +0.000 A 
ATOM     19  C   UNL     1       6.604   4.706  15.708  0.00  0.00    +0.000 A 
ATOM     20  C   UNL     1       5.324   4.167  15.598  0.00  0.00    +0.000 A 
ATOM     21  C   UNL     1       4.562   3.929  16.746  0.00  0.00    +0.000 A 
ATOM     22  F   UNL     1       3.327   3.439  16.575  0.00  0.00    +0.000 F 
ENDBRANCH   4  15
BRANCH  10  23
ATOM     23  O   UNL     1       1.553  10.644  18.074  0.00  0.00    +0.000 OA
BRANCH  23  24
ATOM     24  C   UNL     1       0.958  11.737  18.797  0.00  0.00    +0.000 C 
BRANCH  24  25
ATOM     25  C   UNL     1       1.891  12.904  19.123  0.00  0.00    +0.000 C 
ATOM     26  F   UNL     1       1.316  14.112  18.942  0.00  0.00    +0.000 F 
ATOM     27  F   UNL     1       2.282  12.840  20.420  0.00  0.00    +0.000 F 
ATOM     28  F   UNL     1       3.018  12.860  18.375  0.00  0.00    +0.000 F 
ENDBRANCH  24  25
ENDBRANCH  23  24
ENDBRANCH  10  23
TORSDOF 4
ENDMDL
MODEL 9
REMARK VINA RESULT:      -7.9      5.020      8.414
REMARK  Name = 
REMARK  4 active torsions:
REMARK  status: ('A' for Active; 'I' for Inactive)
REMARK    1  A    between atoms: C_4  and  C_6
REMARK    2  A    between atoms: C_18  and  O_19
REMARK    3  A    between atoms: O_19  and  C_20
REMARK    4  A    between atoms: C_20  and  C_21
REMARK                            x       y       z     vdW  Elec       q    Type
REMARK                         _______ _______ _______ _____ _____    ______ ____
ROOT
ATOM      1  O   UNL     1       4.854   6.286  16.398  0.00  0.00    +0.000 OA
ATOM      2  C   UNL     1       3.977   6.585  17.205  0.00  0.00    +0.000 C 
ATOM      3  N   UNL     1       3.412   5.746  18.131  0.00  0.00    +0.000 N 
ATOM      4  C   UNL     1       3.723   4.410  18.329  0.00  0.00    +0.000 C 
ATOM      5  O   UNL     1       4.554   3.781  17.687  0.00  0.00    +0.000 OA
ATOM      6  N   UNL     1       3.513   7.877  17.172  0.00  0.00    +0.000 N 
ATOM      7  C   UNL     1       2.594   8.496  18.018  0.00  0.00    +0.000 A 
ATOM      8  C   UNL     1       2.273   9.829  17.813  0.00  0.00    +0.000 A 
ATOM      9  C   UNL     1       1.377  10.440  18.687  0.00  0.00    +0.000 A 
ATOM     10  C   UNL     1       0.834   9.680  19.703  0.00  0.00    +0.000 A 
ATOM     11  N   UNL     1       1.155   8.386  19.878  0.00  0.00    +0.000 NA
ATOM     12  N   UNL     1       2.043   7.799  19.033  0.00  0.00    +0.000 NA
ATOM     13  H   UNL     1       2.687   6.156  18.706  0.00  0.00    +0.000 HD
ATOM     14  H   UNL     1       3.955   8.426  16.446  0.00  0.00    +0.000 HD
ENDROOT
BRANCH   4  15
ATOM     15  C   UNL     1       2.969   3.715  19.405  0.00  0.00    +0.000 A 
ATOM     16  C   UNL     1       3.607   3.005  20.424  0.00  0.00    +0.000 A 
ATOM     17  F   UNL     1       4.944   2.919  20.466  0.00  0.00    +0.000 F 
ATOM     18  C   UNL     1       2.882   2.379  21.442  0.00  0.00    +0.000 A 
ATOM     19  C   UNL     1       1.494   2.469  21.460  0.00  0.00    +0.000 A 
ATOM     20  C   UNL     1       0.839   3.179  20.456  0.00  0.00    +0.000 A 
ATOM     21  C   UNL     1       1.575   3.793  19.439  0.00  0.00    +0.000 A 
ATOM     22  F   UNL     1       0.888   4.435  18.485  0.00  0.00    +0.000 F 
ENDBRANCH   4  15
BRANCH  10  23
ATOM     23  O   UNL     1      -0.046  10.282  20.571  0.00  0.00    +0.000 OA
BRANCH  23  24
ATOM     24  C   UNL     1       0.455  10.330  21.920  0.00  0.00    +0.000 C 
BRANCH  24  25
ATOM     25  C   UNL     1      -0.398   9.614  22.970  0.00  0.00    +0.000 C 
ATOM     26  F   UNL     1       0.283   9.317  24.097  0.00  0.00    +0.000 F 
ATOM     27  F   UNL     1      -1.444  10.397  23.333  0.00  0.00    +0.000 F 
ATOM     28  F   UNL     1      -0.922   8.466  22.482  0.00  0.00    +0.000 F 
ENDBRANCH  24  25
ENDBRANCH  23  24
ENDBRANCH  10  23
TORSDOF 4
ENDMDL
