MODEL 1
REMARK VINA RESULT:      -8.4      0.000      0.000
REMARK  Name = 
REMARK  13 active torsions:
REMARK  status: ('A' for Active; 'I' for Inactive)
REMARK    1  A    between atoms: C_1  and  C_2
REMARK    2  A    between atoms: C_2  and  O_3
REMARK    3  A    between atoms: O_3  and  C_4
REMARK    4  A    between atoms: C_4  and  C_6
REMARK    5  A    between atoms: C_6  and  C_7
REMARK    6  A    between atoms: C_8  and  C_9
REMARK    7  A    between atoms: C_8  and  O_10
REMARK    8  A    between atoms: O_10  and  C_11
REMARK    9  A    between atoms: C_11  and  C_13
REMARK   10  A    between atoms: C_15  and  O_16
REMARK   11  A    between atoms: O_16  and  C_17
REMARK   12  A    between atoms: C_20  and  C_21
REMARK   13  A    between atoms: C_30  and  N_31
REMARK                            x       y       z     vdW  Elec       q    Type
REMARK                         _______ _______ _______ _____ _____    ______ ____
ROOT
ATOM      1  C   UNL     1       2.477   4.543  18.571  0.00  0.00    +0.000 A 
ATOM      2  C   UNL     1       2.436   5.955  18.525  0.00  0.00    +0.000 A 
ATOM      3  C   UNL     1       2.039   6.712  19.640  0.00  0.00    +0.000 A 
ATOM      4  C   UNL     1       1.694   6.060  20.829  0.00  0.00    +0.000 A 
ATOM      5  C   UNL     1       1.684   4.667  20.884  0.00  0.00    +0.000 A 
ATOM      6  C   UNL     1       2.090   3.926  19.762  0.00  0.00    +0.000 A 
ENDROOT
BRANCH   6   7
ATOM      7  N   UNL     1       2.253   2.507  19.958  0.00  0.00    +0.000 N 
ATOM      8  O   UNL     1       1.325   1.785  19.578  0.00  0.00    +0.000 OA
ATOM      9  O   UNL     1       3.331   2.123  20.427  0.00  0.00    +0.000 OA
ENDBRANCH   6   7
BRANCH   1  10
ATOM     10  C   UNL     1       3.032   3.841  17.382  0.00  0.00    +0.000 C 
ATOM     11  O   UNL     1       2.284   3.417  16.510  0.00  0.00    +0.000 OA
BRANCH  10  12
ATOM     12  O   UNL     1       4.388   3.695  17.430  0.00  0.00    +0.000 OA
BRANCH  12  15
ATOM     13  C   UNL     1       5.981   5.502  17.419  0.00  0.00    +0.000 C 
ATOM     14  C   UNL     1       6.010   5.456  18.922  0.00  0.00    +0.000 C 
ATOM     15  C   UNL     1       5.175   4.668  16.715  0.00  0.00    +0.000 C 
ATOM     16  C   UNL     1       5.066   4.567  15.212  0.00  0.00    +0.000 C 
BRANCH  13  17
ATOM     17  C   UNL     1       6.950   6.431  16.756  0.00  0.00    +0.000 C 
ATOM     18  O   UNL     1       7.750   6.103  15.888  0.00  0.00    +0.000 OA
BRANCH  17  19
ATOM     19  O   UNL     1       6.918   7.659  17.339  0.00  0.00    +0.000 OA
BRANCH  19  21
ATOM     20  C   UNL     1       8.249   9.567  17.946  0.00  0.00    +0.000 C 
ATOM     21  C   UNL     1       8.135   8.051  17.994  0.00  0.00    +0.000 C 
ENDBRANCH  19  21
ENDBRANCH  17  19
ENDBRANCH  13  17
ENDBRANCH  12  15
ENDBRANCH  10  12
ENDBRANCH   1  10
BRANCH   3  22
ATOM     22  O   UNL     1       2.097   8.089  19.505  0.00  0.00    +0.000 OA
BRANCH  22  23
ATOM     23  C   UNL     1       1.248   8.888  20.247  0.00  0.00    +0.000 A 
ATOM     24  C   UNL     1       1.227   8.843  21.645  0.00  0.00    +0.000 A 
ATOM     25  C   UNL     1       0.403   9.700  22.373  0.00  0.00    +0.000 A 
ATOM     26  C   UNL     1      -0.469  10.582  21.719  0.00  0.00    +0.000 A 
ATOM     27  C   UNL     1      -0.513  10.567  20.315  0.00  0.00    +0.000 A 
ATOM     28  C   UNL     1       0.335   9.723  19.584  0.00  0.00    +0.000 A 
ATOM     29 CL   UNL     1       0.217   9.743  17.863  0.00  0.00    +0.000 Cl
BRANCH  26  30
ATOM     30  C   UNL     1      -1.345  11.521  22.516  0.00  0.00    +0.000 C 
ATOM     31  F   UNL     1      -2.404  12.002  21.803  0.00  0.00    +0.000 F 
ATOM     32  F   UNL     1      -1.880  10.924  23.615  0.00  0.00    +0.000 F 
ATOM     33  F   UNL     1      -0.670  12.612  22.966  0.00  0.00    +0.000 F 
ENDBRANCH  26  30
ENDBRANCH  22  23
ENDBRANCH   3  22
TORSDOF 10
ENDMDL
MODEL 2
REMARK VINA RESULT:      -8.4      0.955      1.244
REMARK  Name = 
REMARK  13 active torsions:
REMARK  status: ('A' for Active; 'I' for Inactive)
REMARK    1  A    between atoms: C_1  and  C_2
REMARK    2  A    between atoms: C_2  and  O_3
REMARK    3  A    between atoms: O_3  and  C_4
REMARK    4  A    between atoms: C_4  and  C_6
REMARK    5  A    between atoms: C_6  and  C_7
REMARK    6  A    between atoms: C_8  and  C_9
REMARK    7  A    between atoms: C_8  and  O_10
REMARK    8  A    between atoms: O_10  and  C_11
REMARK    9  A    between atoms: C_11  and  C_13
REMARK   10  A    between atoms: C_15  and  O_16
REMARK   11  A    between atoms: O_16  and  C_17
REMARK   12  A    between atoms: C_20  and  C_21
REMARK   13  A    between atoms: C_30  and  N_31
REMARK                            x       y       z     vdW  Elec       q    Type
REMARK                         _______ _______ _______ _____ _____    ______ ____
ROOT
ATOM      1  C   UNL     1       2.336   4.432  18.453  0.00  0.00    +0.000 A 
ATOM      2  C   UNL     1       2.598   5.778  18.796  0.00  0.00    +0.000 A 
ATOM      3  C   UNL     1       2.049   6.358  19.952  0.00  0.00    +0.000 A 
ATOM      4  C   UNL     1       1.241   5.587  20.794  0.00  0.00    +0.000 A 
ATOM      5  C   UNL     1       0.933   4.270  20.452  0.00  0.00    +0.000 A 
ATOM      6  C   UNL     1       1.496   3.704  19.296  0.00  0.00    +0.000 A 
ENDROOT
BRANCH   6   7
ATOM      7  N   UNL     1       1.301   2.286  19.119  0.00  0.00    +0.000 N 
ATOM      8  O   UNL     1       2.126   1.542  19.661  0.00  0.00    +0.000 OA
ATOM      9  O   UNL     1       0.293   1.928  18.498  0.00  0.00    +0.000 OA
ENDBRANCH   6   7
BRANCH   1  10
ATOM     10  C   UNL     1       3.066   3.876  17.281  0.00  0.00    +0.000 C 
ATOM     11  O   UNL     1       2.460   3.587  16.256  0.00  0.00    +0.000 OA
BRANCH  10  12
ATOM     12  O   UNL     1       4.397   3.690  17.516  0.00  0.00    +0.000 OA
BRANCH  12  15
ATOM     13  C   UNL     1       6.132   5.356  17.661  0.00  0.00    +0.000 C 
ATOM     14  C   UNL     1       6.061   5.267  19.161  0.00  0.00    +0.000 C 
ATOM     15  C   UNL     1       5.306   4.613  16.882  0.00  0.00    +0.000 C 
ATOM     16  C   UNL     1       5.285   4.561  15.373  0.00  0.00    +0.000 C 
BRANCH  13  17
ATOM     17  C   UNL     1       7.215   6.217  17.089  0.00  0.00    +0.000 C 
ATOM     18  O   UNL     1       7.711   6.070  15.977  0.00  0.00    +0.000 OA
BRANCH  17  19
ATOM     19  O   UNL     1       7.671   7.099  18.017  0.00  0.00    +0.000 OA
BRANCH  19  21
ATOM     20  C   UNL     1       8.641   9.255  18.456  0.00  0.00    +0.000 C 
ATOM     21  C   UNL     1       7.646   8.476  17.608  0.00  0.00    +0.000 C 
ENDBRANCH  19  21
ENDBRANCH  17  19
ENDBRANCH  13  17
ENDBRANCH  12  15
ENDBRANCH  10  12
ENDBRANCH   1  10
BRANCH   3  22
ATOM     22  O   UNL     1       2.423   7.663  20.225  0.00  0.00    +0.000 OA
BRANCH  22  23
ATOM     23  C   UNL     1       1.459   8.651  20.306  0.00  0.00    +0.000 A 
ATOM     24  C   UNL     1       0.739   8.882  21.482  0.00  0.00    +0.000 A 
ATOM     25  C   UNL     1      -0.188   9.922  21.557  0.00  0.00    +0.000 A 
ATOM     26  C   UNL     1      -0.463  10.718  20.436  0.00  0.00    +0.000 A 
ATOM     27  C   UNL     1       0.195  10.431  19.229  0.00  0.00    +0.000 A 
ATOM     28  C   UNL     1       1.146   9.401  19.163  0.00  0.00    +0.000 A 
ATOM     29 CL   UNL     1       1.905   9.091  17.644  0.00  0.00    +0.000 Cl
BRANCH  26  30
ATOM     30  C   UNL     1      -1.454  11.854  20.531  0.00  0.00    +0.000 C 
ATOM     31  F   UNL     1      -2.401  11.823  19.549  0.00  0.00    +0.000 F 
ATOM     32  F   UNL     1      -2.140  11.848  21.706  0.00  0.00    +0.000 F 
ATOM     33  F   UNL     1      -0.862  13.075  20.442  0.00  0.00    +0.000 F 
ENDBRANCH  26  30
ENDBRANCH  22  23
ENDBRANCH   3  22
TORSDOF 10
ENDMDL
MODEL 3
REMARK VINA RESULT:      -8.3      1.605      2.266
REMARK  Name = 
REMARK  13 active torsions:
REMARK  status: ('A' for Active; 'I' for Inactive)
REMARK    1  A    between atoms: C_1  and  C_2
REMARK    2  A    between atoms: C_2  and  O_3
REMARK    3  A    between atoms: O_3  and  C_4
REMARK    4  A    between atoms: C_4  and  C_6
REMARK    5  A    between atoms: C_6  and  C_7
REMARK    6  A    between atoms: C_8  and  C_9
REMARK    7  A    between atoms: C_8  and  O_10
REMARK    8  A    between atoms: O_10  and  C_11
REMARK    9  A    between atoms: C_11  and  C_13
REMARK   10  A    between atoms: C_15  and  O_16
REMARK   11  A    between atoms: O_16  and  C_17
REMARK   12  A    between atoms: C_20  and  C_21
REMARK   13  A    between atoms: C_30  and  N_31
REMARK                            x       y       z     vdW  Elec       q    Type
REMARK                         _______ _______ _______ _____ _____    ______ ____
ROOT
ATOM      1  C   UNL     1       2.517   4.711  18.591  0.00  0.00    +0.000 A 
ATOM      2  C   UNL     1       2.503   6.119  18.463  0.00  0.00    +0.000 A 
ATOM      3  C   UNL     1       2.214   6.950  19.559  0.00  0.00    +0.000 A 
ATOM      4  C   UNL     1       1.952   6.378  20.808  0.00  0.00    +0.000 A 
ATOM      5  C   UNL     1       1.916   4.990  20.948  0.00  0.00    +0.000 A 
ATOM      6  C   UNL     1       2.214   4.175  19.843  0.00  0.00    +0.000 A 
ENDROOT
BRANCH   6   7
ATOM      7  N   UNL     1       2.361   2.766  20.111  0.00  0.00    +0.000 N 
ATOM      8  O   UNL     1       3.458   2.395  20.542  0.00  0.00    +0.000 OA
ATOM      9  O   UNL     1       1.361   2.055  19.951  0.00  0.00    +0.000 OA
ENDBRANCH   6   7
BRANCH   1  10
ATOM     10  C   UNL     1       2.958   3.927  17.406  0.00  0.00    +0.000 C 
ATOM     11  O   UNL     1       2.135   3.505  16.603  0.00  0.00    +0.000 OA
BRANCH  10  12
ATOM     12  O   UNL     1       4.305   3.709  17.378  0.00  0.00    +0.000 OA
BRANCH  12  15
ATOM     13  C   UNL     1       5.948   5.471  17.383  0.00  0.00    +0.000 C 
ATOM     14  C   UNL     1       6.000   5.388  18.884  0.00  0.00    +0.000 C 
ATOM     15  C   UNL     1       5.107   4.678  16.673  0.00  0.00    +0.000 C 
ATOM     16  C   UNL     1       4.972   4.615  15.170  0.00  0.00    +0.000 C 
BRANCH  13  17
ATOM     17  C   UNL     1       6.932   6.389  16.726  0.00  0.00    +0.000 C 
ATOM     18  O   UNL     1       7.753   6.045  15.883  0.00  0.00    +0.000 OA
BRANCH  17  19
ATOM     19  O   UNL     1       6.887   7.627  17.286  0.00  0.00    +0.000 OA
BRANCH  19  21
ATOM     20  C   UNL     1       8.080   9.612  17.931  0.00  0.00    +0.000 C 
ATOM     21  C   UNL     1       8.133   8.096  17.825  0.00  0.00    +0.000 C 
ENDBRANCH  19  21
ENDBRANCH  17  19
ENDBRANCH  13  17
ENDBRANCH  12  15
ENDBRANCH  10  12
ENDBRANCH   1  10
BRANCH   3  22
ATOM     22  O   UNL     1       2.292   8.314  19.337  0.00  0.00    +0.000 OA
BRANCH  22  23
ATOM     23  C   UNL     1       1.141   9.034  19.075  0.00  0.00    +0.000 A 
ATOM     24  C   UNL     1       0.639   9.174  17.777  0.00  0.00    +0.000 A 
ATOM     25  C   UNL     1      -0.555   9.857  17.545  0.00  0.00    +0.000 A 
ATOM     26  C   UNL     1      -1.246  10.471  18.599  0.00  0.00    +0.000 A 
ATOM     27  C   UNL     1      -0.697  10.406  19.891  0.00  0.00    +0.000 A 
ATOM     28  C   UNL     1       0.490   9.697  20.126  0.00  0.00    +0.000 A 
ATOM     29 CL   UNL     1       1.118   9.672  21.734  0.00  0.00    +0.000 Cl
BRANCH  26  30
ATOM     30  C   UNL     1      -2.548  11.192  18.342  0.00  0.00    +0.000 C 
ATOM     31  F   UNL     1      -2.550  11.893  17.171  0.00  0.00    +0.000 F 
ATOM     32  F   UNL     1      -3.606  10.341  18.264  0.00  0.00    +0.000 F 
ATOM     33  F   UNL     1      -2.851  12.090  19.316  0.00  0.00    +0.000 F 
ENDBRANCH  26  30
ENDBRANCH  22  23
ENDBRANCH   3  22
TORSDOF 10
ENDMDL
MODEL 4
REMARK VINA RESULT:      -8.1      1.713      2.798
REMARK  Name = 
REMARK  13 active torsions:
REMARK  status: ('A' for Active; 'I' for Inactive)
REMARK    1  A    between atoms: C_1  and  C_2
REMARK    2  A    between atoms: C_2  and  O_3
REMARK    3  A    between atoms: O_3  and  C_4
REMARK    4  A    between atoms: C_4  and  C_6
REMARK    5  A    between atoms: C_6  and  C_7
REMARK    6  A    between atoms: C_8  and  C_9
REMARK    7  A    between atoms: C_8  and  O_10
REMARK    8  A    between atoms: O_10  and  C_11
REMARK    9  A    between atoms: C_11  and  C_13
REMARK   10  A    between atoms: C_15  and  O_16
REMARK   11  A    between atoms: O_16  and  C_17
REMARK   12  A    between atoms: C_20  and  C_21
REMARK   13  A    between atoms: C_30  and  N_31
REMARK                            x       y       z     vdW  Elec       q    Type
REMARK                         _______ _______ _______ _____ _____    ______ ____
ROOT
ATOM      1  C   UNL     1       3.757   4.915  19.679  0.00  0.00    +0.000 A 
ATOM      2  C   UNL     1       3.482   6.278  19.427  0.00  0.00    +0.000 A 
ATOM      3  C   UNL     1       2.241   6.848  19.760  0.00  0.00    +0.000 A 
ATOM      4  C   UNL     1       1.261   6.059  20.371  0.00  0.00    +0.000 A 
ATOM      5  C   UNL     1       1.493   4.701  20.589  0.00  0.00    +0.000 A 
ATOM      6  C   UNL     1       2.741   4.149  20.256  0.00  0.00    +0.000 A 
ENDROOT
BRANCH   6   7
ATOM      7  N   UNL     1       2.981   2.798  20.698  0.00  0.00    +0.000 N 
ATOM      8  O   UNL     1       3.014   2.612  21.919  0.00  0.00    +0.000 OA
ATOM      9  O   UNL     1       3.068   1.926  19.824  0.00  0.00    +0.000 OA
ENDBRANCH   6   7
BRANCH   1  10
ATOM     10  C   UNL     1       5.140   4.440  19.408  0.00  0.00    +0.000 C 
ATOM     11  O   UNL     1       6.091   4.936  20.000  0.00  0.00    +0.000 OA
BRANCH  10  12
ATOM     12  O   UNL     1       5.199   3.488  18.432  0.00  0.00    +0.000 OA
BRANCH  12  15
ATOM     13  C   UNL     1       6.094   4.398  16.389  0.00  0.00    +0.000 C 
ATOM     14  C   UNL     1       7.441   4.503  17.052  0.00  0.00    +0.000 C 
ATOM     15  C   UNL     1       5.019   3.935  17.073  0.00  0.00    +0.000 C 
ATOM     16  C   UNL     1       3.621   3.733  16.538  0.00  0.00    +0.000 C 
BRANCH  13  17
ATOM     17  C   UNL     1       6.035   4.731  14.930  0.00  0.00    +0.000 C 
ATOM     18  O   UNL     1       5.721   5.824  14.475  0.00  0.00    +0.000 OA
BRANCH  17  19
ATOM     19  O   UNL     1       6.245   3.621  14.174  0.00  0.00    +0.000 OA
BRANCH  19  21
ATOM     20  C   UNL     1       5.156   3.203  12.071  0.00  0.00    +0.000 C 
ATOM     21  C   UNL     1       6.343   3.859  12.760  0.00  0.00    +0.000 C 
ENDBRANCH  19  21
ENDBRANCH  17  19
ENDBRANCH  13  17
ENDBRANCH  12  15
ENDBRANCH  10  12
ENDBRANCH   1  10
BRANCH   3  22
ATOM     22  O   UNL     1       2.104   8.206  19.528  0.00  0.00    +0.000 OA
BRANCH  22  23
ATOM     23  C   UNL     1       1.235   8.951  20.304  0.00  0.00    +0.000 A 
ATOM     24  C   UNL     1       1.202   8.829  21.697  0.00  0.00    +0.000 A 
ATOM     25  C   UNL     1       0.357   9.632  22.463  0.00  0.00    +0.000 A 
ATOM     26  C   UNL     1      -0.524  10.534  21.849  0.00  0.00    +0.000 A 
ATOM     27  C   UNL     1      -0.555  10.595  20.446  0.00  0.00    +0.000 A 
ATOM     28  C   UNL     1       0.314   9.805  19.679  0.00  0.00    +0.000 A 
ATOM     29 CL   UNL     1       0.211   9.917  17.960  0.00  0.00    +0.000 Cl
BRANCH  26  30
ATOM     30  C   UNL     1      -1.422  11.413  22.687  0.00  0.00    +0.000 C 
ATOM     31  F   UNL     1      -0.766  12.471  23.247  0.00  0.00    +0.000 F 
ATOM     32  F   UNL     1      -2.442  11.952  21.966  0.00  0.00    +0.000 F 
ATOM     33  F   UNL     1      -1.998  10.742  23.719  0.00  0.00    +0.000 F 
ENDBRANCH  26  30
ENDBRANCH  22  23
ENDBRANCH   3  22
TORSDOF 10
ENDMDL
MODEL 5
REMARK VINA RESULT:      -7.9      2.625      3.807
REMARK  Name = 
REMARK  13 active torsions:
REMARK  status: ('A' for Active; 'I' for Inactive)
REMARK    1  A    between atoms: C_1  and  C_2
REMARK    2  A    between atoms: C_2  and  O_3
REMARK    3  A    between atoms: O_3  and  C_4
REMARK    4  A    between atoms: C_4  and  C_6
REMARK    5  A    between atoms: C_6  and  C_7
REMARK    6  A    between atoms: C_8  and  C_9
REMARK    7  A    between atoms: C_8  and  O_10
REMARK    8  A    between atoms: O_10  and  C_11
REMARK    9  A    between atoms: C_11  and  C_13
REMARK   10  A    between atoms: C_15  and  O_16
REMARK   11  A    between atoms: O_16  and  C_17
REMARK   12  A    between atoms: C_20  and  C_21
REMARK   13  A    between atoms: C_30  and  N_31
REMARK                            x       y       z     vdW  Elec       q    Type
REMARK                         _______ _______ _______ _____ _____    ______ ____
ROOT
ATOM      1  C   UNL     1       2.675   6.584  18.730  0.00  0.00    +0.000 A 
ATOM      2  C   UNL     1       2.277   7.875  18.315  0.00  0.00    +0.000 A 
ATOM      3  C   UNL     1       1.557   8.728  19.169  0.00  0.00    +0.000 A 
ATOM      4  C   UNL     1       1.242   8.303  20.463  0.00  0.00    +0.000 A 
ATOM      5  C   UNL     1       1.585   7.017  20.880  0.00  0.00    +0.000 A 
ATOM      6  C   UNL     1       2.311   6.180  20.015  0.00  0.00    +0.000 A 
ENDROOT
BRANCH   6   7
ATOM      7  N   UNL     1       2.808   4.951  20.584  0.00  0.00    +0.000 N 
ATOM      8  O   UNL     1       4.017   4.733  20.458  0.00  0.00    +0.000 OA
ATOM      9  O   UNL     1       2.000   4.251  21.206  0.00  0.00    +0.000 OA
ENDBRANCH   6   7
BRANCH   1  10
ATOM     10  C   UNL     1       3.541   5.810  17.800  0.00  0.00    +0.000 C 
ATOM     11  O   UNL     1       3.127   4.779  17.285  0.00  0.00    +0.000 OA
BRANCH  10  12
ATOM     12  O   UNL     1       4.791   6.340  17.664  0.00  0.00    +0.000 OA
BRANCH  12  15
ATOM     13  C   UNL     1       6.455   5.251  16.303  0.00  0.00    +0.000 C 
ATOM     14  C   UNL     1       6.929   4.504  17.520  0.00  0.00    +0.000 C 
ATOM     15  C   UNL     1       5.444   6.152  16.392  0.00  0.00    +0.000 C 
ATOM     16  C   UNL     1       4.832   6.945  15.261  0.00  0.00    +0.000 C 
BRANCH  13  17
ATOM     17  C   UNL     1       7.080   4.874  14.996  0.00  0.00    +0.000 C 
ATOM     18  O   UNL     1       7.897   5.558  14.389  0.00  0.00    +0.000 OA
BRANCH  17  19
ATOM     19  O   UNL     1       6.522   3.736  14.504  0.00  0.00    +0.000 OA
BRANCH  19  21
ATOM     20  C   UNL     1       6.252   3.223  12.170  0.00  0.00    +0.000 C 
ATOM     21  C   UNL     1       5.650   3.925  13.378  0.00  0.00    +0.000 C 
ENDBRANCH  19  21
ENDBRANCH  17  19
ENDBRANCH  13  17
ENDBRANCH  12  15
ENDBRANCH  10  12
ENDBRANCH   1  10
BRANCH   3  22
ATOM     22  O   UNL     1       1.275   9.994  18.683  0.00  0.00    +0.000 OA
BRANCH  22  23
ATOM     23  C   UNL     1      -0.040  10.381  18.499  0.00  0.00    +0.000 A 
ATOM     24  C   UNL     1      -0.879   9.733  17.587  0.00  0.00    +0.000 A 
ATOM     25  C   UNL     1      -2.217  10.105  17.461  0.00  0.00    +0.000 A 
ATOM     26  C   UNL     1      -2.734  11.179  18.200  0.00  0.00    +0.000 A 
ATOM     27  C   UNL     1      -1.871  11.887  19.051  0.00  0.00    +0.000 A 
ATOM     28  C   UNL     1      -0.532  11.495  19.196  0.00  0.00    +0.000 A 
ATOM     29 CL   UNL     1       0.478  12.421  20.245  0.00  0.00    +0.000 Cl
BRANCH  26  30
ATOM     30  C   UNL     1      -4.189  11.563  18.071  0.00  0.00    +0.000 C 
ATOM     31  F   UNL     1      -5.038  10.502  18.205  0.00  0.00    +0.000 F 
ATOM     32  F   UNL     1      -4.574  12.465  19.013  0.00  0.00    +0.000 F 
ATOM     33  F   UNL     1      -4.479  12.122  16.866  0.00  0.00    +0.000 F 
ENDBRANCH  26  30
ENDBRANCH  22  23
ENDBRANCH   3  22
TORSDOF 10
ENDMDL
MODEL 6
REMARK VINA RESULT:      -7.9      1.385      1.797
REMARK  Name = 
REMARK  13 active torsions:
REMARK  status: ('A' for Active; 'I' for Inactive)
REMARK    1  A    between atoms: C_1  and  C_2
REMARK    2  A    between atoms: C_2  and  O_3
REMARK    3  A    between atoms: O_3  and  C_4
REMARK    4  A    between atoms: C_4  and  C_6
REMARK    5  A    between atoms: C_6  and  C_7
REMARK    6  A    between atoms: C_8  and  C_9
REMARK    7  A    between atoms: C_8  and  O_10
REMARK    8  A    between atoms: O_10  and  C_11
REMARK    9  A    between atoms: C_11  and  C_13
REMARK   10  A    between atoms: C_15  and  O_16
REMARK   11  A    between atoms: O_16  and  C_17
REMARK   12  A    between atoms: C_20  and  C_21
REMARK   13  A    between atoms: C_30  and  N_31
REMARK                            x       y       z     vdW  Elec       q    Type
REMARK                         _______ _______ _______ _____ _____    ______ ____
ROOT
ATOM      1  C   UNL     1       2.891   4.720  18.756  0.00  0.00    +0.000 A 
ATOM      2  C   UNL     1       2.943   6.097  19.070  0.00  0.00    +0.000 A 
ATOM      3  C   UNL     1       2.110   6.655  20.055  0.00  0.00    +0.000 A 
ATOM      4  C   UNL     1       1.223   5.831  20.756  0.00  0.00    +0.000 A 
ATOM      5  C   UNL     1       1.123   4.478  20.433  0.00  0.00    +0.000 A 
ATOM      6  C   UNL     1       1.967   3.936  19.450  0.00  0.00    +0.000 A 
ENDROOT
BRANCH   6   7
ATOM      7  N   UNL     1       1.953   2.500  19.316  0.00  0.00    +0.000 N 
ATOM      8  O   UNL     1       1.018   2.013  18.673  0.00  0.00    +0.000 OA
ATOM      9  O   UNL     1       2.909   1.880  19.798  0.00  0.00    +0.000 OA
ENDBRANCH   6   7
BRANCH   1  10
ATOM     10  C   UNL     1       3.900   4.205  17.791  0.00  0.00    +0.000 C 
ATOM     11  O   UNL     1       3.542   3.590  16.794  0.00  0.00    +0.000 OA
BRANCH  10  12
ATOM     12  O   UNL     1       5.185   4.445  18.180  0.00  0.00    +0.000 OA
BRANCH  12  15
ATOM     13  C   UNL     1       6.919   6.117  18.196  0.00  0.00    +0.000 C 
ATOM     14  C   UNL     1       7.356   5.619  19.546  0.00  0.00    +0.000 C 
ATOM     15  C   UNL     1       5.856   5.562  17.563  0.00  0.00    +0.000 C 
ATOM     16  C   UNL     1       5.325   5.921  16.195  0.00  0.00    +0.000 C 
BRANCH  13  17
ATOM     17  C   UNL     1       7.772   7.170  17.559  0.00  0.00    +0.000 C 
ATOM     18  O   UNL     1       8.040   7.224  16.364  0.00  0.00    +0.000 OA
BRANCH  17  19
ATOM     19  O   UNL     1       8.323   7.981  18.501  0.00  0.00    +0.000 OA
BRANCH  19  21
ATOM     20  C   UNL     1       9.203  10.108  19.196  0.00  0.00    +0.000 C 
ATOM     21  C   UNL     1       8.395   9.370  18.140  0.00  0.00    +0.000 C 
ENDBRANCH  19  21
ENDBRANCH  17  19
ENDBRANCH  13  17
ENDBRANCH  12  15
ENDBRANCH  10  12
ENDBRANCH   1  10
BRANCH   3  22
ATOM     22  O   UNL     1       2.291   8.001  20.326  0.00  0.00    +0.000 OA
BRANCH  22  23
ATOM     23  C   UNL     1       1.265   8.894  20.079  0.00  0.00    +0.000 A 
ATOM     24  C   UNL     1       0.334   9.239  21.064  0.00  0.00    +0.000 A 
ATOM     25  C   UNL     1      -0.657  10.186  20.808  0.00  0.00    +0.000 A 
ATOM     26  C   UNL     1      -0.782  10.766  19.537  0.00  0.00    +0.000 A 
ATOM     27  C   UNL     1       0.097  10.356  18.521  0.00  0.00    +0.000 A 
ATOM     28  C   UNL     1       1.109   9.423  18.788  0.00  0.00    +0.000 A 
ATOM     29 CL   UNL     1       2.143   8.950  17.489  0.00  0.00    +0.000 Cl
BRANCH  26  30
ATOM     30  C   UNL     1      -1.847  11.805  19.274  0.00  0.00    +0.000 C 
ATOM     31  F   UNL     1      -1.482  12.719  18.329  0.00  0.00    +0.000 F 
ATOM     32  F   UNL     1      -3.009  11.256  18.828  0.00  0.00    +0.000 F 
ATOM     33  F   UNL     1      -2.165  12.522  20.385  0.00  0.00    +0.000 F 
ENDBRANCH  26  30
ENDBRANCH  22  23
ENDBRANCH   3  22
TORSDOF 10
ENDMDL
MODEL 7
REMARK VINA RESULT:      -7.8      2.245      3.441
REMARK  Name = 
REMARK  13 active torsions:
REMARK  status: ('A' for Active; 'I' for Inactive)
REMARK    1  A    between atoms: C_1  and  C_2
REMARK    2  A    between atoms: C_2  and  O_3
REMARK    3  A    between atoms: O_3  and  C_4
REMARK    4  A    between atoms: C_4  and  C_6
REMARK    5  A    between atoms: C_6  and  C_7
REMARK    6  A    between atoms: C_8  and  C_9
REMARK    7  A    between atoms: C_8  and  O_10
REMARK    8  A    between atoms: O_10  and  C_11
REMARK    9  A    between atoms: C_11  and  C_13
REMARK   10  A    between atoms: C_15  and  O_16
REMARK   11  A    between atoms: O_16  and  C_17
REMARK   12  A    between atoms: C_20  and  C_21
REMARK   13  A    between atoms: C_30  and  N_31
REMARK                            x       y       z     vdW  Elec       q    Type
REMARK                         _______ _______ _______ _____ _____    ______ ____
ROOT
ATOM      1  C   UNL     1       3.635   4.838  19.416  0.00  0.00    +0.000 A 
ATOM      2  C   UNL     1       3.403   6.159  19.863  0.00  0.00    +0.000 A 
ATOM      3  C   UNL     1       2.122   6.585  20.252  0.00  0.00    +0.000 A 
ATOM      4  C   UNL     1       1.054   5.683  20.215  0.00  0.00    +0.000 A 
ATOM      5  C   UNL     1       1.249   4.388  19.736  0.00  0.00    +0.000 A 
ATOM      6  C   UNL     1       2.538   3.976  19.357  0.00  0.00    +0.000 A 
ENDROOT
BRANCH   6   7
ATOM      7  N   UNL     1       2.702   2.573  19.071  0.00  0.00    +0.000 N 
ATOM      8  O   UNL     1       2.636   1.800  20.032  0.00  0.00    +0.000 OA
ATOM      9  O   UNL     1       2.829   2.251  17.883  0.00  0.00    +0.000 OA
ENDBRANCH   6   7
BRANCH   1  10
ATOM     10  C   UNL     1       5.046   4.449  19.149  0.00  0.00    +0.000 C 
ATOM     11  O   UNL     1       5.481   3.381  19.562  0.00  0.00    +0.000 OA
BRANCH  10  12
ATOM     12  O   UNL     1       5.750   5.409  18.483  0.00  0.00    +0.000 OA
BRANCH  12  15
ATOM     13  C   UNL     1       6.120   5.127  16.119  0.00  0.00    +0.000 C 
ATOM     14  C   UNL     1       4.751   5.695  15.860  0.00  0.00    +0.000 C 
ATOM     15  C   UNL     1       6.576   4.970  17.387  0.00  0.00    +0.000 C 
ATOM     16  C   UNL     1       7.934   4.457  17.804  0.00  0.00    +0.000 C 
BRANCH  13  17
ATOM     17  C   UNL     1       6.971   4.850  14.919  0.00  0.00    +0.000 C 
ATOM     18  O   UNL     1       7.791   5.631  14.449  0.00  0.00    +0.000 OA
BRANCH  17  19
ATOM     19  O   UNL     1       6.619   3.672  14.338  0.00  0.00    +0.000 OA
BRANCH  19  21
ATOM     20  C   UNL     1       6.557   3.298  11.964  0.00  0.00    +0.000 C 
ATOM     21  C   UNL     1       5.783   3.794  13.176  0.00  0.00    +0.000 C 
ENDBRANCH  19  21
ENDBRANCH  17  19
ENDBRANCH  13  17
ENDBRANCH  12  15
ENDBRANCH  10  12
ENDBRANCH   1  10
BRANCH   3  22
ATOM     22  O   UNL     1       2.022   7.879  20.734  0.00  0.00    +0.000 OA
BRANCH  22  23
ATOM     23  C   UNL     1       1.167   8.776  20.121  0.00  0.00    +0.000 A 
ATOM     24  C   UNL     1       1.351   9.180  18.794  0.00  0.00    +0.000 A 
ATOM     25  C   UNL     1       0.442  10.041  18.179  0.00  0.00    +0.000 A 
ATOM     26  C   UNL     1      -0.639  10.572  18.897  0.00  0.00    +0.000 A 
ATOM     27  C   UNL     1      -0.775  10.237  20.254  0.00  0.00    +0.000 A 
ATOM     28  C   UNL     1       0.124   9.350  20.863  0.00  0.00    +0.000 A 
ATOM     29 CL   UNL     1      -0.091   8.995  22.538  0.00  0.00    +0.000 Cl
BRANCH  26  30
ATOM     30  C   UNL     1      -1.629  11.490  18.218  0.00  0.00    +0.000 C 
ATOM     31  F   UNL     1      -2.389  10.857  17.278  0.00  0.00    +0.000 F 
ATOM     32  F   UNL     1      -2.510  12.043  19.094  0.00  0.00    +0.000 F 
ATOM     33  F   UNL     1      -1.027  12.526  17.576  0.00  0.00    +0.000 F 
ENDBRANCH  26  30
ENDBRANCH  22  23
ENDBRANCH   3  22
TORSDOF 10
ENDMDL
MODEL 8
REMARK VINA RESULT:      -7.8      2.247      3.371
REMARK  Name = 
REMARK  13 active torsions:
REMARK  status: ('A' for Active; 'I' for Inactive)
REMARK    1  A    between atoms: C_1  and  C_2
REMARK    2  A    between atoms: C_2  and  O_3
REMARK    3  A    between atoms: O_3  and  C_4
REMARK    4  A    between atoms: C_4  and  C_6
REMARK    5  A    between atoms: C_6  and  C_7
REMARK    6  A    between atoms: C_8  and  C_9
REMARK    7  A    between atoms: C_8  and  O_10
REMARK    8  A    between atoms: O_10  and  C_11
REMARK    9  A    between atoms: C_11  and  C_13
REMARK   10  A    between atoms: C_15  and  O_16
REMARK   11  A    between atoms: O_16  and  C_17
REMARK   12  A    between atoms: C_20  and  C_21
REMARK   13  A    between atoms: C_30  and  N_31
REMARK                            x       y       z     vdW  Elec       q    Type
REMARK                         _______ _______ _______ _____ _____    ______ ____
ROOT
ATOM      1  C   UNL     1       3.508   5.000  19.433  0.00  0.00    +0.000 A 
ATOM      2  C   UNL     1       3.243   6.307  19.902  0.00  0.00    +0.000 A 
ATOM      3  C   UNL     1       1.970   6.670  20.374  0.00  0.00    +0.000 A 
ATOM      4  C   UNL     1       0.946   5.718  20.399  0.00  0.00    +0.000 A 
ATOM      5  C   UNL     1       1.172   4.435  19.900  0.00  0.00    +0.000 A 
ATOM      6  C   UNL     1       2.452   4.087  19.438  0.00  0.00    +0.000 A 
ENDROOT
BRANCH   6   7
ATOM      7  N   UNL     1       2.664   2.694  19.133  0.00  0.00    +0.000 N 
ATOM      8  O   UNL     1       2.844   1.937  20.094  0.00  0.00    +0.000 OA
ATOM      9  O   UNL     1       2.585   2.358  17.945  0.00  0.00    +0.000 OA
ENDBRANCH   6   7
BRANCH   1  10
ATOM     10  C   UNL     1       4.917   4.680  19.075  0.00  0.00    +0.000 C 
ATOM     11  O   UNL     1       5.364   3.557  19.272  0.00  0.00    +0.000 OA
BRANCH  10  12
ATOM     12  O   UNL     1       5.604   5.754  18.591  0.00  0.00    +0.000 OA
BRANCH  12  15
ATOM     13  C   UNL     1       6.839   5.154  16.611  0.00  0.00    +0.000 C 
ATOM     14  C   UNL     1       7.823   4.413  17.476  0.00  0.00    +0.000 C 
ATOM     15  C   UNL     1       5.793   5.818  17.163  0.00  0.00    +0.000 C 
ATOM     16  C   UNL     1       4.705   6.566  16.429  0.00  0.00    +0.000 C 
BRANCH  13  17
ATOM     17  C   UNL     1       7.020   5.030  15.130  0.00  0.00    +0.000 C 
ATOM     18  O   UNL     1       7.874   5.622  14.478  0.00  0.00    +0.000 OA
BRANCH  17  19
ATOM     19  O   UNL     1       6.027   4.280  14.583  0.00  0.00    +0.000 OA
BRANCH  19  21
ATOM     20  C   UNL     1       5.049   3.575  12.502  0.00  0.00    +0.000 C 
ATOM     21  C   UNL     1       6.336   3.704  13.303  0.00  0.00    +0.000 C 
ENDBRANCH  19  21
ENDBRANCH  17  19
ENDBRANCH  13  17
ENDBRANCH  12  15
ENDBRANCH  10  12
ENDBRANCH   1  10
BRANCH   3  22
ATOM     22  O   UNL     1       1.840   7.956  20.869  0.00  0.00    +0.000 OA
BRANCH  22  23
ATOM     23  C   UNL     1       1.054   8.874  20.197  0.00  0.00    +0.000 A 
ATOM     24  C   UNL     1       1.362   9.298  18.900  0.00  0.00    +0.000 A 
ATOM     25  C   UNL     1       0.523  10.181  18.221  0.00  0.00    +0.000 A 
ATOM     26  C   UNL     1      -0.614  10.714  18.847  0.00  0.00    +0.000 A 
ATOM     27  C   UNL     1      -0.876  10.357  20.180  0.00  0.00    +0.000 A 
ATOM     28  C   UNL     1      -0.045   9.449  20.852  0.00  0.00    +0.000 A 
ATOM     29 CL   UNL     1      -0.416   9.068  22.494  0.00  0.00    +0.000 Cl
BRANCH  26  30
ATOM     30  C   UNL     1      -1.527  11.655  18.098  0.00  0.00    +0.000 C 
ATOM     31  F   UNL     1      -0.877  12.743  17.592  0.00  0.00    +0.000 F 
ATOM     32  F   UNL     1      -2.129  11.058  17.034  0.00  0.00    +0.000 F 
ATOM     33  F   UNL     1      -2.527  12.146  18.877  0.00  0.00    +0.000 F 
ENDBRANCH  26  30
ENDBRANCH  22  23
ENDBRANCH   3  22
TORSDOF 10
ENDMDL
MODEL 9
REMARK VINA RESULT:      -7.8      2.081      3.049
REMARK  Name = 
REMARK  13 active torsions:
REMARK  status: ('A' for Active; 'I' for Inactive)
REMARK    1  A    between atoms: C_1  and  C_2
REMARK    2  A    between atoms: C_2  and  O_3
REMARK    3  A    between atoms: O_3  and  C_4
REMARK    4  A    between atoms: C_4  and  C_6
REMARK    5  A    between atoms: C_6  and  C_7
REMARK    6  A    between atoms: C_8  and  C_9
REMARK    7  A    between atoms: C_8  and  O_10
REMARK    8  A    between atoms: O_10  and  C_11
REMARK    9  A    between atoms: C_11  and  C_13
REMARK   10  A    between atoms: C_15  and  O_16
REMARK   11  A    between atoms: O_16  and  C_17
REMARK   12  A    between atoms: C_20  and  C_21
REMARK   13  A    between atoms: C_30  and  N_31
REMARK                            x       y       z     vdW  Elec       q    Type
REMARK                         _______ _______ _______ _____ _____    ______ ____
ROOT
ATOM      1  C   UNL     1       3.357   4.206  19.802  0.00  0.00    +0.000 A 
ATOM      2  C   UNL     1       3.455   5.615  19.743  0.00  0.00    +0.000 A 
ATOM      3  C   UNL     1       2.346   6.437  20.006  0.00  0.00    +0.000 A 
ATOM      4  C   UNL     1       1.122   5.854  20.351  0.00  0.00    +0.000 A 
ATOM      5  C   UNL     1       0.990   4.466  20.371  0.00  0.00    +0.000 A 
ATOM      6  C   UNL     1       2.111   3.659  20.112  0.00  0.00    +0.000 A 
ENDROOT
BRANCH   6   7
ATOM      7  N   UNL     1       1.951   2.247  20.354  0.00  0.00    +0.000 N 
ATOM      8  O   UNL     1       1.974   1.880  21.533  0.00  0.00    +0.000 OA
ATOM      9  O   UNL     1       1.739   1.527  19.370  0.00  0.00    +0.000 OA
ENDBRANCH   6   7
BRANCH   1  10
ATOM     10  C   UNL     1       4.616   3.430  19.633  0.00  0.00    +0.000 C 
ATOM     11  O   UNL     1       4.684   2.271  20.022  0.00  0.00    +0.000 OA
BRANCH  10  12
ATOM     12  O   UNL     1       5.627   4.162  19.081  0.00  0.00    +0.000 OA
BRANCH  12  15
ATOM     13  C   UNL     1       6.229   5.550  17.205  0.00  0.00    +0.000 C 
ATOM     14  C   UNL     1       7.139   6.337  18.109  0.00  0.00    +0.000 C 
ATOM     15  C   UNL     1       5.486   4.525  17.692  0.00  0.00    +0.000 C 
ATOM     16  C   UNL     1       4.564   3.620  16.909  0.00  0.00    +0.000 C 
BRANCH  13  17
ATOM     17  C   UNL     1       6.269   5.891  15.748  0.00  0.00    +0.000 C 
ATOM     18  O   UNL     1       5.417   6.548  15.161  0.00  0.00    +0.000 OA
BRANCH  17  19
ATOM     19  O   UNL     1       7.306   5.263  15.133  0.00  0.00    +0.000 OA
BRANCH  19  21
ATOM     20  C   UNL     1       6.128   3.794  13.638  0.00  0.00    +0.000 C 
ATOM     21  C   UNL     1       7.097   4.962  13.744  0.00  0.00    +0.000 C 
ENDBRANCH  19  21
ENDBRANCH  17  19
ENDBRANCH  13  17
ENDBRANCH  12  15
ENDBRANCH  10  12
ENDBRANCH   1  10
BRANCH   3  22
ATOM     22  O   UNL     1       2.571   7.803  19.984  0.00  0.00    +0.000 OA
BRANCH  22  23
ATOM     23  C   UNL     1       1.563   8.658  19.578  0.00  0.00    +0.000 A 
ATOM     24  C   UNL     1       1.357   8.966  18.230  0.00  0.00    +0.000 A 
ATOM     25  C   UNL     1       0.298   9.786  17.841  0.00  0.00    +0.000 A 
ATOM     26  C   UNL     1      -0.545  10.371  18.798  0.00  0.00    +0.000 A 
ATOM     27  C   UNL     1      -0.285  10.133  20.157  0.00  0.00    +0.000 A 
ATOM     28  C   UNL     1       0.765   9.287  20.545  0.00  0.00    +0.000 A 
ATOM     29 CL   UNL     1       1.039   9.052  22.233  0.00  0.00    +0.000 Cl
BRANCH  26  30
ATOM     30  C   UNL     1      -1.700  11.242  18.366  0.00  0.00    +0.000 C 
ATOM     31  F   UNL     1      -2.539  10.623  17.486  0.00  0.00    +0.000 F 
ATOM     32  F   UNL     1      -2.481  11.626  19.413  0.00  0.00    +0.000 F 
ATOM     33  F   UNL     1      -1.294  12.386  17.754  0.00  0.00    +0.000 F 
ENDBRANCH  26  30
ENDBRANCH  22  23
ENDBRANCH   3  22
TORSDOF 10
ENDMDL
