MODEL 1
REMARK VINA RESULT:      -7.8      0.000      0.000
REMARK  Name = 
REMARK  12 active torsions:
REMARK  status: ('A' for Active; 'I' for Inactive)
REMARK    1  A    between atoms: N_1  and  C_2
REMARK    2  A    between atoms: C_2  and  C_3
REMARK    3  A    between atoms: C_3  and  C_4
REMARK    4  A    between atoms: C_4  and  CA_5
REMARK    5  A    between atoms: CA_5  and  N_6
REMARK    6  A    between atoms: CA_5  and  C_29
REMARK    7  A    between atoms: C_7  and  C_9
REMARK    8  A    between atoms: C_12  and  N_13
REMARK    9  A    between atoms: N_13  and  C_14
REMARK   10  A    between atoms: C_14  and  C_15
REMARK   11  A    between atoms: C_23  and  O_24
REMARK   12  A    between atoms: C_29  and  OXT_31
REMARK                            x       y       z     vdW  Elec       q    Type
REMARK                         _______ _______ _______ _____ _____    ______ ____
ROOT
ATOM      1  C   UNL     1       2.910   6.412  18.389  0.00  0.00    +0.000 A 
ATOM      2  C   UNL     1       2.706   7.615  17.709  0.00  0.00    +0.000 A 
ATOM      3  C   UNL     1       2.045   8.673  18.347  0.00  0.00    +0.000 A 
ATOM      4  C   UNL     1       1.551   8.541  19.653  0.00  0.00    +0.000 A 
ATOM      5  C   UNL     1       1.756   7.319  20.309  0.00  0.00    +0.000 A 
ATOM      6  C   UNL     1       2.412   6.255  19.681  0.00  0.00    +0.000 A 
ENDROOT
BRANCH   1   8
ATOM      7  N   UNL     1       4.817   5.614  17.118  0.00  0.00    +0.000 N 
ATOM      8  C   UNL     1       3.654   5.290  17.773  0.00  0.00    +0.000 C 
ATOM      9  O   UNL     1       3.239   4.138  17.822  0.00  0.00    +0.000 OA
ATOM     10  H   UNL     1       5.119   6.580  17.082  0.00  0.00    +0.000 HD
BRANCH   7  11
ATOM     11  CA  UNL     1       5.662   4.602  16.473  0.00  0.00    +0.000 C 
BRANCH  11  12
ATOM     12  C   UNL     1       5.692   4.837  14.950  0.00  0.00    +0.000 C 
ATOM     13  O   UNL     1       5.520   3.972  14.103  0.00  0.00    +0.000 OA
BRANCH  12  14
ATOM     14  OXT UNL     1       5.891   6.138  14.616  0.00  0.00    +0.000 OA
ATOM     15  HXT UNL     1       5.917   6.273  13.636  0.00  0.00    +0.000 HD
ENDBRANCH  12  14
ENDBRANCH  11  12
BRANCH  11  16
ATOM     16  C   UNL     1       7.079   4.614  17.061  0.00  0.00    +0.000 C 
BRANCH  16  17
ATOM     17  C   UNL     1       7.519   5.980  17.609  0.00  0.00    +0.000 C 
BRANCH  17  18
ATOM     18  C   UNL     1       7.752   6.013  19.121  0.00  0.00    +0.000 C 
BRANCH  18  19
ATOM     19  N   UNL     1       6.743   5.226  19.815  0.00  0.00    +0.000 NA
ATOM     20  H   UNL     1       6.719   5.490  20.800  0.00  0.00    +0.000 HD
ATOM     21  H   UNL     1       7.000   4.239  19.794  0.00  0.00    +0.000 HD
ENDBRANCH  18  19
ENDBRANCH  17  18
ENDBRANCH  16  17
ENDBRANCH  11  16
ENDBRANCH   7  11
ENDBRANCH   1   8
BRANCH   4  22
ATOM     22  N   UNL     1       0.999   9.661  20.294  0.00  0.00    +0.000 N 
ATOM     23  H   UNL     1       1.404   9.817  21.216  0.00  0.00    +0.000 HD
BRANCH  22  24
ATOM     24  C   UNL     1       0.883  10.893  19.522  0.00  0.00    +0.000 C 
BRANCH  24  25
ATOM     25  C   UNL     1      -0.556  11.164  19.191  0.00  0.00    +0.000 A 
ATOM     26  C   UNL     1      -1.387  11.841  20.070  0.00  0.00    +0.000 A 
ATOM     27  N   UNL     1      -2.698  12.108  19.833  0.00  0.00    +0.000 NA
ATOM     28  C   UNL     1      -3.243  11.732  18.671  0.00  0.00    +0.000 A 
ATOM     29  N   UNL     1      -4.519  12.040  18.439  0.00  0.00    +0.000 NA
ATOM     30  C   UNL     1      -5.048  11.708  17.262  0.00  0.00    +0.000 A 
ATOM     31  N   UNL     1      -6.346  12.097  17.013  0.00  0.00    +0.000 N 
ATOM     32  N   UNL     1      -4.423  11.027  16.305  0.00  0.00    +0.000 NA
ATOM     33  C   UNL     1      -3.154  10.726  16.572  0.00  0.00    +0.000 A 
ATOM     34  C   UNL     1      -2.481  11.054  17.731  0.00  0.00    +0.000 A 
ATOM     35  C   UNL     1      -1.126  10.763  17.992  0.00  0.00    +0.000 A 
ATOM     36  H   UNL     1      -6.847  12.268  17.874  0.00  0.00    +0.000 HD
ATOM     37  H   UNL     1      -6.784  11.517  16.314  0.00  0.00    +0.000 HD
BRANCH  33  38
ATOM     38  O   UNL     1      -2.533  10.056  15.563  0.00  0.00    +0.000 OA
ATOM     39  H   UNL     1      -1.598  10.232  15.782  0.00  0.00    +0.000 HD
ENDBRANCH  33  38
ENDBRANCH  24  25
ENDBRANCH  22  24
ENDBRANCH   4  22
TORSDOF 12
ENDMDL
MODEL 2
REMARK VINA RESULT:      -7.6      3.719      5.373
REMARK  Name = 
REMARK  12 active torsions:
REMARK  status: ('A' for Active; 'I' for Inactive)
REMARK    1  A    between atoms: N_1  and  C_2
REMARK    2  A    between atoms: C_2  and  C_3
REMARK    3  A    between atoms: C_3  and  C_4
REMARK    4  A    between atoms: C_4  and  CA_5
REMARK    5  A    between atoms: CA_5  and  N_6
REMARK    6  A    between atoms: CA_5  and  C_29
REMARK    7  A    between atoms: C_7  and  C_9
REMARK    8  A    between atoms: C_12  and  N_13
REMARK    9  A    between atoms: N_13  and  C_14
REMARK   10  A    between atoms: C_14  and  C_15
REMARK   11  A    between atoms: C_23  and  O_24
REMARK   12  A    between atoms: C_29  and  OXT_31
REMARK                            x       y       z     vdW  Elec       q    Type
REMARK                         _______ _______ _______ _____ _____    ______ ____
ROOT
ATOM      1  C   UNL     1       2.506   7.139  18.713  0.00  0.00    +0.000 A 
ATOM      2  C   UNL     1       2.043   7.303  20.021  0.00  0.00    +0.000 A 
ATOM      3  C   UNL     1       1.453   8.513  20.405  0.00  0.00    +0.000 A 
ATOM      4  C   UNL     1       1.342   9.587  19.508  0.00  0.00    +0.000 A 
ATOM      5  C   UNL     1       1.826   9.402  18.205  0.00  0.00    +0.000 A 
ATOM      6  C   UNL     1       2.420   8.198  17.811  0.00  0.00    +0.000 A 
ENDROOT
BRANCH   1   8
ATOM      7  N   UNL     1       2.913   4.775  19.079  0.00  0.00    +0.000 N 
ATOM      8  C   UNL     1       3.083   5.856  18.250  0.00  0.00    +0.000 C 
ATOM      9  O   UNL     1       3.703   5.773  17.196  0.00  0.00    +0.000 OA
ATOM     10  H   UNL     1       2.411   4.886  19.951  0.00  0.00    +0.000 HD
BRANCH   7  11
ATOM     11  CA  UNL     1       3.421   3.440  18.740  0.00  0.00    +0.000 C 
BRANCH  11  12
ATOM     12  C   UNL     1       4.835   3.253  19.324  0.00  0.00    +0.000 C 
ATOM     13  O   UNL     1       5.750   4.057  19.219  0.00  0.00    +0.000 OA
BRANCH  12  14
ATOM     14  OXT UNL     1       4.973   2.098  20.026  0.00  0.00    +0.000 OA
ATOM     15  HXT UNL     1       5.833   2.056  20.512  0.00  0.00    +0.000 HD
ENDBRANCH  12  14
ENDBRANCH  11  12
BRANCH  11  16
ATOM     16  C   UNL     1       2.469   2.347  19.240  0.00  0.00    +0.000 C 
BRANCH  16  17
ATOM     17  C   UNL     1       1.197   2.883  19.914  0.00  0.00    +0.000 C 
BRANCH  17  18
ATOM     18  C   UNL     1       1.210   2.814  21.443  0.00  0.00    +0.000 C 
BRANCH  18  19
ATOM     19  N   UNL     1       2.574   2.879  21.950  0.00  0.00    +0.000 NA
ATOM     20  H   UNL     1       2.608   2.495  22.894  0.00  0.00    +0.000 HD
ATOM     21  H   UNL     1       2.866   3.853  22.030  0.00  0.00    +0.000 HD
ENDBRANCH  18  19
ENDBRANCH  17  18
ENDBRANCH  16  17
ENDBRANCH  11  16
ENDBRANCH   7  11
ENDBRANCH   1   8
BRANCH   4  22
ATOM     22  N   UNL     1       0.641  10.738  19.899  0.00  0.00    +0.000 N 
ATOM     23  H   UNL     1       0.575  11.424  19.148  0.00  0.00    +0.000 HD
BRANCH  22  24
ATOM     24  C   UNL     1      -0.626  10.553  20.596  0.00  0.00    +0.000 C 
BRANCH  24  25
ATOM     25  C   UNL     1      -0.848  11.672  21.574  0.00  0.00    +0.000 A 
ATOM     26  C   UNL     1       0.080  12.688  21.735  0.00  0.00    +0.000 A 
ATOM     27  N   UNL     1      -0.058  13.720  22.608  0.00  0.00    +0.000 NA
ATOM     28  C   UNL     1      -1.165  13.804  23.353  0.00  0.00    +0.000 A 
ATOM     29  N   UNL     1      -1.301  14.845  24.173  0.00  0.00    +0.000 NA
ATOM     30  C   UNL     1      -2.426  14.955  24.879  0.00  0.00    +0.000 A 
ATOM     31  N   UNL     1      -2.580  16.074  25.667  0.00  0.00    +0.000 N 
ATOM     32  N   UNL     1      -3.417  14.065  24.887  0.00  0.00    +0.000 NA
ATOM     33  C   UNL     1      -3.245  13.032  24.065  0.00  0.00    +0.000 A 
ATOM     34  C   UNL     1      -2.149  12.831  23.251  0.00  0.00    +0.000 A 
ATOM     35  C   UNL     1      -1.991  11.753  22.356  0.00  0.00    +0.000 A 
ATOM     36  H   UNL     1      -1.686  16.491  25.887  0.00  0.00    +0.000 HD
ATOM     37  H   UNL     1      -3.230  15.916  26.421  0.00  0.00    +0.000 HD
BRANCH  33  38
ATOM     38  O   UNL     1      -4.286  12.156  24.073  0.00  0.00    +0.000 OA
ATOM     39  H   UNL     1      -4.469  12.105  25.030  0.00  0.00    +0.000 HD
ENDBRANCH  33  38
ENDBRANCH  24  25
ENDBRANCH  22  24
ENDBRANCH   4  22
TORSDOF 12
ENDMDL
MODEL 3
REMARK VINA RESULT:      -7.6      2.933      3.798
REMARK  Name = 
REMARK  12 active torsions:
REMARK  status: ('A' for Active; 'I' for Inactive)
REMARK    1  A    between atoms: N_1  and  C_2
REMARK    2  A    between atoms: C_2  and  C_3
REMARK    3  A    between atoms: C_3  and  C_4
REMARK    4  A    between atoms: C_4  and  CA_5
REMARK    5  A    between atoms: CA_5  and  N_6
REMARK    6  A    between atoms: CA_5  and  C_29
REMARK    7  A    between atoms: C_7  and  C_9
REMARK    8  A    between atoms: C_12  and  N_13
REMARK    9  A    between atoms: N_13  and  C_14
REMARK   10  A    between atoms: C_14  and  C_15
REMARK   11  A    between atoms: C_23  and  O_24
REMARK   12  A    between atoms: C_29  and  OXT_31
REMARK                            x       y       z     vdW  Elec       q    Type
REMARK                         _______ _______ _______ _____ _____    ______ ____
ROOT
ATOM      1  C   UNL     1       2.550   7.275  18.931  0.00  0.00    +0.000 A 
ATOM      2  C   UNL     1       1.917   7.706  20.100  0.00  0.00    +0.000 A 
ATOM      3  C   UNL     1       1.147   8.876  20.084  0.00  0.00    +0.000 A 
ATOM      4  C   UNL     1       1.021   9.650  18.920  0.00  0.00    +0.000 A 
ATOM      5  C   UNL     1       1.676   9.203  17.765  0.00  0.00    +0.000 A 
ATOM      6  C   UNL     1       2.450   8.037  17.769  0.00  0.00    +0.000 A 
ENDROOT
BRANCH   1   8
ATOM      7  N   UNL     1       3.565   5.484  17.645  0.00  0.00    +0.000 N 
ATOM      8  C   UNL     1       3.325   6.014  18.890  0.00  0.00    +0.000 C 
ATOM      9  O   UNL     1       3.706   5.459  19.914  0.00  0.00    +0.000 OA
ATOM     10  H   UNL     1       3.218   5.961  16.822  0.00  0.00    +0.000 HD
BRANCH   7  11
ATOM     11  CA  UNL     1       4.330   4.247  17.455  0.00  0.00    +0.000 C 
BRANCH  11  12
ATOM     12  C   UNL     1       3.393   3.028  17.567  0.00  0.00    +0.000 C 
ATOM     13  O   UNL     1       3.624   2.023  18.225  0.00  0.00    +0.000 OA
BRANCH  12  14
ATOM     14  OXT UNL     1       2.230   3.185  16.883  0.00  0.00    +0.000 OA
ATOM     15  HXT UNL     1       1.596   2.445  17.049  0.00  0.00    +0.000 HD
ENDBRANCH  12  14
ENDBRANCH  11  12
BRANCH  11  16
ATOM     16  C   UNL     1       5.063   4.256  16.107  0.00  0.00    +0.000 C 
BRANCH  16  17
ATOM     17  C   UNL     1       6.380   5.046  16.114  0.00  0.00    +0.000 C 
BRANCH  17  18
ATOM     18  C   UNL     1       7.059   5.137  17.483  0.00  0.00    +0.000 C 
BRANCH  18  19
ATOM     19  N   UNL     1       8.088   4.115  17.616  0.00  0.00    +0.000 NA
ATOM     20  H   UNL     1       7.861   3.498  18.395  0.00  0.00    +0.000 HD
ATOM     21  H   UNL     1       8.979   4.552  17.853  0.00  0.00    +0.000 HD
ENDBRANCH  18  19
ENDBRANCH  17  18
ENDBRANCH  16  17
ENDBRANCH  11  16
ENDBRANCH   7  11
ENDBRANCH   1   8
BRANCH   4  22
ATOM     22  N   UNL     1       0.148  10.749  18.918  0.00  0.00    +0.000 N 
ATOM     23  H   UNL     1      -0.831  10.465  18.941  0.00  0.00    +0.000 HD
BRANCH  22  24
ATOM     24  C   UNL     1       0.432  11.839  19.844  0.00  0.00    +0.000 C 
BRANCH  24  25
ATOM     25  C   UNL     1      -0.634  11.915  20.900  0.00  0.00    +0.000 A 
ATOM     26  C   UNL     1      -0.367  11.598  22.223  0.00  0.00    +0.000 A 
ATOM     27  N   UNL     1      -1.289  11.637  23.220  0.00  0.00    +0.000 NA
ATOM     28  C   UNL     1      -2.536  12.032  22.944  0.00  0.00    +0.000 A 
ATOM     29  N   UNL     1      -3.415  12.104  23.943  0.00  0.00    +0.000 NA
ATOM     30  C   UNL     1      -4.644  12.544  23.677  0.00  0.00    +0.000 A 
ATOM     31  N   UNL     1      -5.517  12.679  24.734  0.00  0.00    +0.000 N 
ATOM     32  N   UNL     1      -5.100  12.862  22.468  0.00  0.00    +0.000 NA
ATOM     33  C   UNL     1      -4.201  12.769  21.491  0.00  0.00    +0.000 A 
ATOM     34  C   UNL     1      -2.888  12.372  21.646  0.00  0.00    +0.000 A 
ATOM     35  C   UNL     1      -1.931  12.312  20.612  0.00  0.00    +0.000 A 
ATOM     36  H   UNL     1      -5.239  12.099  25.513  0.00  0.00    +0.000 HD
ATOM     37  H   UNL     1      -6.480  12.643  24.434  0.00  0.00    +0.000 HD
BRANCH  33  38
ATOM     38  O   UNL     1      -4.687  13.129  20.271  0.00  0.00    +0.000 OA
ATOM     39  H   UNL     1      -5.600  12.793  20.338  0.00  0.00    +0.000 HD
ENDBRANCH  33  38
ENDBRANCH  24  25
ENDBRANCH  22  24
ENDBRANCH   4  22
TORSDOF 12
ENDMDL
MODEL 4
REMARK VINA RESULT:      -7.6      3.295      4.024
REMARK  Name = 
REMARK  12 active torsions:
REMARK  status: ('A' for Active; 'I' for Inactive)
REMARK    1  A    between atoms: N_1  and  C_2
REMARK    2  A    between atoms: C_2  and  C_3
REMARK    3  A    between atoms: C_3  and  C_4
REMARK    4  A    between atoms: C_4  and  CA_5
REMARK    5  A    between atoms: CA_5  and  N_6
REMARK    6  A    between atoms: CA_5  and  C_29
REMARK    7  A    between atoms: C_7  and  C_9
REMARK    8  A    between atoms: C_12  and  N_13
REMARK    9  A    between atoms: N_13  and  C_14
REMARK   10  A    between atoms: C_14  and  C_15
REMARK   11  A    between atoms: C_23  and  O_24
REMARK   12  A    between atoms: C_29  and  OXT_31
REMARK                            x       y       z     vdW  Elec       q    Type
REMARK                         _______ _______ _______ _____ _____    ______ ____
ROOT
ATOM      1  C   UNL     1       2.760   7.001  18.909  0.00  0.00    +0.000 A 
ATOM      2  C   UNL     1       2.619   7.849  17.808  0.00  0.00    +0.000 A 
ATOM      3  C   UNL     1       1.860   9.020  17.922  0.00  0.00    +0.000 A 
ATOM      4  C   UNL     1       1.204   9.350  19.119  0.00  0.00    +0.000 A 
ATOM      5  C   UNL     1       1.350   8.476  20.205  0.00  0.00    +0.000 A 
ATOM      6  C   UNL     1       2.104   7.302  20.102  0.00  0.00    +0.000 A 
ENDROOT
BRANCH   1   8
ATOM      7  N   UNL     1       3.421   4.971  17.756  0.00  0.00    +0.000 N 
ATOM      8  C   UNL     1       3.601   5.784  18.848  0.00  0.00    +0.000 C 
ATOM      9  O   UNL     1       4.395   5.505  19.739  0.00  0.00    +0.000 OA
ATOM     10  H   UNL     1       2.742   5.224  17.049  0.00  0.00    +0.000 HD
BRANCH   7  11
ATOM     11  CA  UNL     1       4.196   3.740  17.560  0.00  0.00    +0.000 C 
BRANCH  11  12
ATOM     12  C   UNL     1       3.280   2.512  17.727  0.00  0.00    +0.000 C 
ATOM     13  O   UNL     1       2.091   2.478  17.443  0.00  0.00    +0.000 OA
BRANCH  12  14
ATOM     14  OXT UNL     1       3.936   1.417  18.194  0.00  0.00    +0.000 OA
ATOM     15  HXT UNL     1       3.350   0.623  18.244  0.00  0.00    +0.000 HD
ENDBRANCH  12  14
ENDBRANCH  11  12
BRANCH  11  16
ATOM     16  C   UNL     1       4.879   3.735  16.187  0.00  0.00    +0.000 C 
BRANCH  16  17
ATOM     17  C   UNL     1       5.873   4.887  15.976  0.00  0.00    +0.000 C 
BRANCH  17  18
ATOM     18  C   UNL     1       6.734   4.762  14.717  0.00  0.00    +0.000 C 
BRANCH  18  19
ATOM     19  N   UNL     1       6.342   3.595  13.939  0.00  0.00    +0.000 NA
ATOM     20  H   UNL     1       7.125   3.286  13.364  0.00  0.00    +0.000 HD
ATOM     21  H   UNL     1       5.598   3.849  13.288  0.00  0.00    +0.000 HD
ENDBRANCH  18  19
ENDBRANCH  17  18
ENDBRANCH  16  17
ENDBRANCH  11  16
ENDBRANCH   7  11
ENDBRANCH   1   8
BRANCH   4  22
ATOM     22  N   UNL     1       0.551  10.588  19.225  0.00  0.00    +0.000 N 
ATOM     23  H   UNL     1      -0.455  10.506  19.089  0.00  0.00    +0.000 HD
BRANCH  22  24
ATOM     24  C   UNL     1       0.893  11.437  20.361  0.00  0.00    +0.000 C 
BRANCH  24  25
ATOM     25  C   UNL     1      -0.308  11.632  21.242  0.00  0.00    +0.000 A 
ATOM     26  C   UNL     1      -0.443  10.953  22.443  0.00  0.00    +0.000 A 
ATOM     27  N   UNL     1      -1.509  11.079  23.277  0.00  0.00    +0.000 NA
ATOM     28  C   UNL     1      -2.492  11.928  22.961  0.00  0.00    +0.000 A 
ATOM     29  N   UNL     1      -3.507  12.069  23.812  0.00  0.00    +0.000 NA
ATOM     30  C   UNL     1      -4.462  12.951  23.521  0.00  0.00    +0.000 A 
ATOM     31  N   UNL     1      -5.466  13.135  24.445  0.00  0.00    +0.000 N 
ATOM     32  N   UNL     1      -4.527  13.671  22.402  0.00  0.00    +0.000 NA
ATOM     33  C   UNL     1      -3.503  13.499  21.569  0.00  0.00    +0.000 A 
ATOM     34  C   UNL     1      -2.433  12.652  21.779  0.00  0.00    +0.000 A 
ATOM     35  C   UNL     1      -1.335  12.503  20.908  0.00  0.00    +0.000 A 
ATOM     36  H   UNL     1      -5.550  12.335  25.057  0.00  0.00    +0.000 HD
ATOM     37  H   UNL     1      -6.306  13.500  24.021  0.00  0.00    +0.000 HD
BRANCH  33  38
ATOM     38  O   UNL     1      -3.581  14.269  20.449  0.00  0.00    +0.000 OA
ATOM     39  H   UNL     1      -4.534  14.478  20.443  0.00  0.00    +0.000 HD
ENDBRANCH  33  38
ENDBRANCH  24  25
ENDBRANCH  22  24
ENDBRANCH   4  22
TORSDOF 12
ENDMDL
MODEL 5
REMARK VINA RESULT:      -7.5      3.017      4.803
REMARK  Name = 
REMARK  12 active torsions:
REMARK  status: ('A' for Active; 'I' for Inactive)
REMARK    1  A    between atoms: N_1  and  C_2
REMARK    2  A    between atoms: C_2  and  C_3
REMARK    3  A    between atoms: C_3  and  C_4
REMARK    4  A    between atoms: C_4  and  CA_5
REMARK    5  A    between atoms: CA_5  and  N_6
REMARK    6  A    between atoms: CA_5  and  C_29
REMARK    7  A    between atoms: C_7  and  C_9
REMARK    8  A    between atoms: C_12  and  N_13
REMARK    9  A    between atoms: N_13  and  C_14
REMARK   10  A    between atoms: C_14  and  C_15
REMARK   11  A    between atoms: C_23  and  O_24
REMARK   12  A    between atoms: C_29  and  OXT_31
REMARK                            x       y       z     vdW  Elec       q    Type
REMARK                         _______ _______ _______ _____ _____    ______ ____
ROOT
ATOM      1  C   UNL     1       2.294   7.483  19.227  0.00  0.00    +0.000 A 
ATOM      2  C   UNL     1       1.611   8.104  20.276  0.00  0.00    +0.000 A 
ATOM      3  C   UNL     1       0.982   9.337  20.063  0.00  0.00    +0.000 A 
ATOM      4  C   UNL     1       1.048   9.985  18.820  0.00  0.00    +0.000 A 
ATOM      5  C   UNL     1       1.751   9.347  17.788  0.00  0.00    +0.000 A 
ATOM      6  C   UNL     1       2.386   8.117  17.989  0.00  0.00    +0.000 A 
ENDROOT
BRANCH   1   8
ATOM      7  N   UNL     1       2.081   5.112  19.699  0.00  0.00    +0.000 N 
ATOM      8  C   UNL     1       2.923   6.152  19.393  0.00  0.00    +0.000 C 
ATOM      9  O   UNL     1       4.134   5.996  19.289  0.00  0.00    +0.000 OA
ATOM     10  H   UNL     1       1.088   5.282  19.795  0.00  0.00    +0.000 HD
BRANCH   7  11
ATOM     11  CA  UNL     1       2.565   3.738  19.878  0.00  0.00    +0.000 C 
BRANCH  11  12
ATOM     12  C   UNL     1       1.925   3.116  21.134  0.00  0.00    +0.000 C 
ATOM     13  O   UNL     1       2.512   2.892  22.184  0.00  0.00    +0.000 OA
BRANCH  12  14
ATOM     14  OXT UNL     1       0.598   2.865  20.988  0.00  0.00    +0.000 OA
ATOM     15  HXT UNL     1       0.206   3.358  20.226  0.00  0.00    +0.000 HD
ENDBRANCH  12  14
ENDBRANCH  11  12
BRANCH  11  16
ATOM     16  C   UNL     1       2.277   2.888  18.634  0.00  0.00    +0.000 C 
BRANCH  16  17
ATOM     17  C   UNL     1       3.536   2.362  17.928  0.00  0.00    +0.000 C 
BRANCH  17  18
ATOM     18  C   UNL     1       4.262   3.398  17.069  0.00  0.00    +0.000 C 
BRANCH  18  19
ATOM     19  N   UNL     1       5.511   3.807  17.698  0.00  0.00    +0.000 NA
ATOM     20  H   UNL     1       5.540   4.823  17.777  0.00  0.00    +0.000 HD
ATOM     21  H   UNL     1       6.298   3.548  17.103  0.00  0.00    +0.000 HD
ENDBRANCH  18  19
ENDBRANCH  17  18
ENDBRANCH  16  17
ENDBRANCH  11  16
ENDBRANCH   7  11
ENDBRANCH   1   8
BRANCH   4  22
ATOM     22  N   UNL     1       0.308  11.160  18.618  0.00  0.00    +0.000 N 
ATOM     23  H   UNL     1       0.809  11.839  18.047  0.00  0.00    +0.000 HD
BRANCH  22  24
ATOM     24  C   UNL     1      -1.088  11.019  18.219  0.00  0.00    +0.000 C 
BRANCH  24  25
ATOM     25  C   UNL     1      -1.987  11.636  19.252  0.00  0.00    +0.000 A 
ATOM     26  C   UNL     1      -3.313  11.931  18.974  0.00  0.00    +0.000 A 
ATOM     27  N   UNL     1      -4.173  12.498  19.861  0.00  0.00    +0.000 NA
ATOM     28  C   UNL     1      -3.750  12.771  21.099  0.00  0.00    +0.000 A 
ATOM     29  N   UNL     1      -4.619  13.288  21.967  0.00  0.00    +0.000 NA
ATOM     30  C   UNL     1      -4.212  13.516  23.215  0.00  0.00    +0.000 A 
ATOM     31  N   UNL     1      -5.143  13.982  24.117  0.00  0.00    +0.000 N 
ATOM     32  N   UNL     1      -2.972  13.330  23.663  0.00  0.00    +0.000 NA
ATOM     33  C   UNL     1      -2.126  12.823  22.769  0.00  0.00    +0.000 A 
ATOM     34  C   UNL     1      -2.439  12.503  21.464  0.00  0.00    +0.000 A 
ATOM     35  C   UNL     1      -1.546  11.932  20.533  0.00  0.00    +0.000 A 
ATOM     36  H   UNL     1      -5.917  14.427  23.644  0.00  0.00    +0.000 HD
ATOM     37  H   UNL     1      -4.710  14.471  24.886  0.00  0.00    +0.000 HD
BRANCH  33  38
ATOM     38  O   UNL     1      -0.875  12.617  23.264  0.00  0.00    +0.000 OA
ATOM     39  H   UNL     1      -0.359  13.229  22.705  0.00  0.00    +0.000 HD
ENDBRANCH  33  38
ENDBRANCH  24  25
ENDBRANCH  22  24
ENDBRANCH   4  22
TORSDOF 12
ENDMDL
MODEL 6
REMARK VINA RESULT:      -7.5      1.995      2.468
REMARK  Name = 
REMARK  12 active torsions:
REMARK  status: ('A' for Active; 'I' for Inactive)
REMARK    1  A    between atoms: N_1  and  C_2
REMARK    2  A    between atoms: C_2  and  C_3
REMARK    3  A    between atoms: C_3  and  C_4
REMARK    4  A    between atoms: C_4  and  CA_5
REMARK    5  A    between atoms: CA_5  and  N_6
REMARK    6  A    between atoms: CA_5  and  C_29
REMARK    7  A    between atoms: C_7  and  C_9
REMARK    8  A    between atoms: C_12  and  N_13
REMARK    9  A    between atoms: N_13  and  C_14
REMARK   10  A    between atoms: C_14  and  C_15
REMARK   11  A    between atoms: C_23  and  O_24
REMARK   12  A    between atoms: C_29  and  OXT_31
REMARK                            x       y       z     vdW  Elec       q    Type
REMARK                         _______ _______ _______ _____ _____    ______ ____
ROOT
ATOM      1  C   UNL     1       2.522   6.976  19.149  0.00  0.00    +0.000 A 
ATOM      2  C   UNL     1       1.911   7.550  20.267  0.00  0.00    +0.000 A 
ATOM      3  C   UNL     1       1.394   8.849  20.188  0.00  0.00    +0.000 A 
ATOM      4  C   UNL     1       1.503   9.607  19.012  0.00  0.00    +0.000 A 
ATOM      5  C   UNL     1       2.131   9.014  17.909  0.00  0.00    +0.000 A 
ATOM      6  C   UNL     1       2.654   7.717  17.977  0.00  0.00    +0.000 A 
ENDROOT
BRANCH   1   8
ATOM      7  N   UNL     1       3.435   5.063  17.969  0.00  0.00    +0.000 N 
ATOM      8  C   UNL     1       3.029   5.585  19.172  0.00  0.00    +0.000 C 
ATOM      9  O   UNL     1       3.058   4.928  20.206  0.00  0.00    +0.000 OA
ATOM     10  H   UNL     1       3.379   5.629  17.132  0.00  0.00    +0.000 HD
BRANCH   7  11
ATOM     11  CA  UNL     1       3.971   3.702  17.846  0.00  0.00    +0.000 C 
BRANCH  11  12
ATOM     12  C   UNL     1       2.815   2.694  17.693  0.00  0.00    +0.000 C 
ATOM     13  O   UNL     1       1.715   2.953  17.225  0.00  0.00    +0.000 OA
BRANCH  12  14
ATOM     14  OXT UNL     1       3.145   1.440  18.098  0.00  0.00    +0.000 OA
ATOM     15  HXT UNL     1       2.571   1.123  18.839  0.00  0.00    +0.000 HD
ENDBRANCH  12  14
ENDBRANCH  11  12
BRANCH  11  16
ATOM     16  C   UNL     1       4.950   3.601  16.670  0.00  0.00    +0.000 C 
BRANCH  16  17
ATOM     17  C   UNL     1       5.243   4.943  15.981  0.00  0.00    +0.000 C 
BRANCH  17  18
ATOM     18  C   UNL     1       6.685   5.106  15.495  0.00  0.00    +0.000 C 
BRANCH  18  19
ATOM     19  N   UNL     1       7.388   6.099  16.295  0.00  0.00    +0.000 NA
ATOM     20  H   UNL     1       6.986   6.135  17.231  0.00  0.00    +0.000 HD
ATOM     21  H   UNL     1       7.250   7.027  15.893  0.00  0.00    +0.000 HD
ENDBRANCH  18  19
ENDBRANCH  17  18
ENDBRANCH  16  17
ENDBRANCH  11  16
ENDBRANCH   7  11
ENDBRANCH   1   8
BRANCH   4  22
ATOM     22  N   UNL     1       0.869  10.858  18.940  0.00  0.00    +0.000 N 
ATOM     23  H   UNL     1       0.379  10.992  18.057  0.00  0.00    +0.000 HD
BRANCH  22  24
ATOM     24  C   UNL     1       0.074  11.280  20.088  0.00  0.00    +0.000 C 
BRANCH  24  25
ATOM     25  C   UNL     1      -1.343  11.545  19.667  0.00  0.00    +0.000 A 
ATOM     26  C   UNL     1      -2.210  12.274  20.466  0.00  0.00    +0.000 A 
ATOM     27  N   UNL     1      -3.505  12.539  20.146  0.00  0.00    +0.000 NA
ATOM     28  C   UNL     1      -3.993  12.108  18.979  0.00  0.00    +0.000 A 
ATOM     29  N   UNL     1      -5.251  12.413  18.664  0.00  0.00    +0.000 NA
ATOM     30  C   UNL     1      -5.722  12.024  17.480  0.00  0.00    +0.000 A 
ATOM     31  N   UNL     1      -7.000  12.410  17.143  0.00  0.00    +0.000 N 
ATOM     32  N   UNL     1      -5.055  11.288  16.593  0.00  0.00    +0.000 NA
ATOM     33  C   UNL     1      -3.806  10.991  16.942  0.00  0.00    +0.000 A 
ATOM     34  C   UNL     1      -3.190  11.374  18.117  0.00  0.00    +0.000 A 
ATOM     35  C   UNL     1      -1.854  11.086  18.463  0.00  0.00    +0.000 A 
ATOM     36  H   UNL     1      -7.543  12.631  17.966  0.00  0.00    +0.000 HD
ATOM     37  H   UNL     1      -7.409  11.798  16.453  0.00  0.00    +0.000 HD
BRANCH  33  38
ATOM     38  O   UNL     1      -3.140  10.264  16.004  0.00  0.00    +0.000 OA
ATOM     39  H   UNL     1      -2.308  10.770  15.944  0.00  0.00    +0.000 HD
ENDBRANCH  33  38
ENDBRANCH  24  25
ENDBRANCH  22  24
ENDBRANCH   4  22
TORSDOF 12
ENDMDL
MODEL 7
REMARK VINA RESULT:      -7.5      2.816      9.793
REMARK  Name = 
REMARK  12 active torsions:
REMARK  status: ('A' for Active; 'I' for Inactive)
REMARK    1  A    between atoms: N_1  and  C_2
REMARK    2  A    between atoms: C_2  and  C_3
REMARK    3  A    between atoms: C_3  and  C_4
REMARK    4  A    between atoms: C_4  and  CA_5
REMARK    5  A    between atoms: CA_5  and  N_6
REMARK    6  A    between atoms: CA_5  and  C_29
REMARK    7  A    between atoms: C_7  and  C_9
REMARK    8  A    between atoms: C_12  and  N_13
REMARK    9  A    between atoms: N_13  and  C_14
REMARK   10  A    between atoms: C_14  and  C_15
REMARK   11  A    between atoms: C_23  and  O_24
REMARK   12  A    between atoms: C_29  and  OXT_31
REMARK                            x       y       z     vdW  Elec       q    Type
REMARK                         _______ _______ _______ _____ _____    ______ ____
ROOT
ATOM      1  C   UNL     1       1.365   8.990  19.451  0.00  0.00    +0.000 A 
ATOM      2  C   UNL     1       1.201   8.308  20.659  0.00  0.00    +0.000 A 
ATOM      3  C   UNL     1       1.673   6.996  20.788  0.00  0.00    +0.000 A 
ATOM      4  C   UNL     1       2.284   6.332  19.713  0.00  0.00    +0.000 A 
ATOM      5  C   UNL     1       2.425   7.034  18.507  0.00  0.00    +0.000 A 
ATOM      6  C   UNL     1       1.955   8.344  18.366  0.00  0.00    +0.000 A 
ENDROOT
BRANCH   1   8
ATOM      7  N   UNL     1      -0.275  10.734  19.852  0.00  0.00    +0.000 N 
ATOM      8  C   UNL     1       0.933  10.398  19.291  0.00  0.00    +0.000 C 
ATOM      9  O   UNL     1       1.606  11.210  18.666  0.00  0.00    +0.000 OA
ATOM     10  H   UNL     1      -0.812  10.032  20.345  0.00  0.00    +0.000 HD
BRANCH   7  11
ATOM     11  CA  UNL     1      -0.819  12.096  19.782  0.00  0.00    +0.000 C 
BRANCH  11  12
ATOM     12  C   UNL     1      -1.556  12.297  18.443  0.00  0.00    +0.000 C 
ATOM     13  O   UNL     1      -2.662  11.850  18.176  0.00  0.00    +0.000 OA
BRANCH  12  14
ATOM     14  OXT UNL     1      -0.867  13.075  17.568  0.00  0.00    +0.000 OA
ATOM     15  HXT UNL     1       0.111  12.961  17.656  0.00  0.00    +0.000 HD
ENDBRANCH  12  14
ENDBRANCH  11  12
BRANCH  11  16
ATOM     16  C   UNL     1      -1.747  12.378  20.970  0.00  0.00    +0.000 C 
BRANCH  16  17
ATOM     17  C   UNL     1      -1.039  12.375  22.333  0.00  0.00    +0.000 C 
BRANCH  17  18
ATOM     18  C   UNL     1      -1.339  11.152  23.202  0.00  0.00    +0.000 C 
BRANCH  18  19
ATOM     19  N   UNL     1      -0.186  10.263  23.256  0.00  0.00    +0.000 NA
ATOM     20  H   UNL     1      -0.411   9.442  23.818  0.00  0.00    +0.000 HD
ATOM     21  H   UNL     1       0.586  10.729  23.733  0.00  0.00    +0.000 HD
ENDBRANCH  18  19
ENDBRANCH  17  18
ENDBRANCH  16  17
ENDBRANCH  11  16
ENDBRANCH   7  11
ENDBRANCH   1   8
BRANCH   4  22
ATOM     22  N   UNL     1       2.846   5.063  19.920  0.00  0.00    +0.000 N 
ATOM     23  H   UNL     1       2.384   4.342  19.367  0.00  0.00    +0.000 HD
BRANCH  22  24
ATOM     24  C   UNL     1       4.299   4.951  19.877  0.00  0.00    +0.000 C 
BRANCH  24  25
ATOM     25  C   UNL     1       4.756   4.653  18.478  0.00  0.00    +0.000 A 
ATOM     26  C   UNL     1       4.184   3.634  17.731  0.00  0.00    +0.000 A 
ATOM     27  N   UNL     1       4.560   3.310  16.466  0.00  0.00    +0.000 NA
ATOM     28  C   UNL     1       5.519   4.021  15.864  0.00  0.00    +0.000 A 
ATOM     29  N   UNL     1       5.844   3.715  14.609  0.00  0.00    +0.000 NA
ATOM     30  C   UNL     1       6.765   4.455  13.993  0.00  0.00    +0.000 A 
ATOM     31  N   UNL     1       7.037   4.169  12.674  0.00  0.00    +0.000 N 
ATOM     32  N   UNL     1       7.449   5.451  14.553  0.00  0.00    +0.000 NA
ATOM     33  C   UNL     1       7.108   5.724  15.810  0.00  0.00    +0.000 A 
ATOM     34  C   UNL     1       6.140   5.063  16.538  0.00  0.00    +0.000 A 
ATOM     35  C   UNL     1       5.759   5.382  17.858  0.00  0.00    +0.000 A 
ATOM     36  H   UNL     1       6.770   3.222  12.444  0.00  0.00    +0.000 HD
ATOM     37  H   UNL     1       7.956   4.484  12.402  0.00  0.00    +0.000 HD
BRANCH  33  38
ATOM     38  O   UNL     1       7.803   6.765  16.345  0.00  0.00    +0.000 OA
ATOM     39  H   UNL     1       8.547   6.824  15.717  0.00  0.00    +0.000 HD
ENDBRANCH  33  38
ENDBRANCH  24  25
ENDBRANCH  22  24
ENDBRANCH   4  22
TORSDOF 12
ENDMDL
MODEL 8
REMARK VINA RESULT:      -7.4      1.551      2.013
REMARK  Name = 
REMARK  12 active torsions:
REMARK  status: ('A' for Active; 'I' for Inactive)
REMARK    1  A    between atoms: N_1  and  C_2
REMARK    2  A    between atoms: C_2  and  C_3
REMARK    3  A    between atoms: C_3  and  C_4
REMARK    4  A    between atoms: C_4  and  CA_5
REMARK    5  A    between atoms: CA_5  and  N_6
REMARK    6  A    between atoms: CA_5  and  C_29
REMARK    7  A    between atoms: C_7  and  C_9
REMARK    8  A    between atoms: C_12  and  N_13
REMARK    9  A    between atoms: N_13  and  C_14
REMARK   10  A    between atoms: C_14  and  C_15
REMARK   11  A    between atoms: C_23  and  O_24
REMARK   12  A    between atoms: C_29  and  OXT_31
REMARK                            x       y       z     vdW  Elec       q    Type
REMARK                         _______ _______ _______ _____ _____    ______ ____
ROOT
ATOM      1  C   UNL     1       3.416   6.308  18.525  0.00  0.00    +0.000 A 
ATOM      2  C   UNL     1       3.233   7.413  17.689  0.00  0.00    +0.000 A 
ATOM      3  C   UNL     1       2.385   8.454  18.087  0.00  0.00    +0.000 A 
ATOM      4  C   UNL     1       1.685   8.401  19.302  0.00  0.00    +0.000 A 
ATOM      5  C   UNL     1       1.875   7.276  20.116  0.00  0.00    +0.000 A 
ATOM      6  C   UNL     1       2.718   6.228  19.728  0.00  0.00    +0.000 A 
ENDROOT
BRANCH   1   8
ATOM      7  N   UNL     1       5.355   5.530  17.290  0.00  0.00    +0.000 N 
ATOM      8  C   UNL     1       4.348   5.214  18.169  0.00  0.00    +0.000 C 
ATOM      9  O   UNL     1       4.209   4.080  18.614  0.00  0.00    +0.000 OA
ATOM     10  H   UNL     1       5.428   6.473  16.929  0.00  0.00    +0.000 HD
BRANCH   7  11
ATOM     11  CA  UNL     1       6.357   4.547  16.861  0.00  0.00    +0.000 C 
BRANCH  11  12
ATOM     12  C   UNL     1       6.657   4.726  15.360  0.00  0.00    +0.000 C 
ATOM     13  O   UNL     1       7.562   5.408  14.901  0.00  0.00    +0.000 OA
BRANCH  12  14
ATOM     14  OXT UNL     1       5.828   4.003  14.561  0.00  0.00    +0.000 OA
ATOM     15  HXT UNL     1       5.167   4.573  14.097  0.00  0.00    +0.000 HD
ENDBRANCH  12  14
ENDBRANCH  11  12
BRANCH  11  16
ATOM     16  C   UNL     1       7.637   4.668  17.697  0.00  0.00    +0.000 C 
BRANCH  16  17
ATOM     17  C   UNL     1       7.648   5.864  18.660  0.00  0.00    +0.000 C 
BRANCH  17  18
ATOM     18  C   UNL     1       7.889   7.218  17.989  0.00  0.00    +0.000 C 
BRANCH  18  19
ATOM     19  N   UNL     1       8.637   8.104  18.870  0.00  0.00    +0.000 NA
ATOM     20  H   UNL     1       9.574   7.730  19.018  0.00  0.00    +0.000 HD
ATOM     21  H   UNL     1       8.195   8.131  19.788  0.00  0.00    +0.000 HD
ENDBRANCH  18  19
ENDBRANCH  17  18
ENDBRANCH  16  17
ENDBRANCH  11  16
ENDBRANCH   7  11
ENDBRANCH   1   8
BRANCH   4  22
ATOM     22  N   UNL     1       0.938   9.516  19.714  0.00  0.00    +0.000 N 
ATOM     23  H   UNL     1       1.243   9.870  20.620  0.00  0.00    +0.000 HD
BRANCH  22  24
ATOM     24  C   UNL     1       0.724  10.582  18.743  0.00  0.00    +0.000 C 
BRANCH  24  25
ATOM     25  C   UNL     1      -0.737  10.695  18.412  0.00  0.00    +0.000 A 
ATOM     26  C   UNL     1      -1.306   9.959  17.384  0.00  0.00    +0.000 A 
ATOM     27  N   UNL     1      -2.617  10.025  17.030  0.00  0.00    +0.000 NA
ATOM     28  C   UNL     1      -3.442  10.819  17.719  0.00  0.00    +0.000 A 
ATOM     29  N   UNL     1      -4.731  10.839  17.384  0.00  0.00    +0.000 NA
ATOM     30  C   UNL     1      -5.563  11.594  18.101  0.00  0.00    +0.000 A 
ATOM     31  N   UNL     1      -6.903  11.546  17.785  0.00  0.00    +0.000 N 
ATOM     32  N   UNL     1      -5.202  12.395  19.101  0.00  0.00    +0.000 NA
ATOM     33  C   UNL     1      -3.906  12.360  19.404  0.00  0.00    +0.000 A 
ATOM     34  C   UNL     1      -2.956  11.587  18.767  0.00  0.00    +0.000 A 
ATOM     35  C   UNL     1      -1.592  11.529  19.117  0.00  0.00    +0.000 A 
ATOM     36  H   UNL     1      -7.042  11.228  16.837  0.00  0.00    +0.000 HD
ATOM     37  H   UNL     1      -7.390  12.377  18.086  0.00  0.00    +0.000 HD
BRANCH  33  38
ATOM     38  O   UNL     1      -3.572  13.167  20.448  0.00  0.00    +0.000 OA
ATOM     39  H   UNL     1      -3.421  14.010  19.981  0.00  0.00    +0.000 HD
ENDBRANCH  33  38
ENDBRANCH  24  25
ENDBRANCH  22  24
ENDBRANCH   4  22
TORSDOF 12
ENDMDL
MODEL 9
REMARK VINA RESULT:      -7.4      1.854      2.560
REMARK  Name = 
REMARK  12 active torsions:
REMARK  status: ('A' for Active; 'I' for Inactive)
REMARK    1  A    between atoms: N_1  and  C_2
REMARK    2  A    between atoms: C_2  and  C_3
REMARK    3  A    between atoms: C_3  and  C_4
REMARK    4  A    between atoms: C_4  and  CA_5
REMARK    5  A    between atoms: CA_5  and  N_6
REMARK    6  A    between atoms: CA_5  and  C_29
REMARK    7  A    between atoms: C_7  and  C_9
REMARK    8  A    between atoms: C_12  and  N_13
REMARK    9  A    between atoms: N_13  and  C_14
REMARK   10  A    between atoms: C_14  and  C_15
REMARK   11  A    between atoms: C_23  and  O_24
REMARK   12  A    between atoms: C_29  and  OXT_31
REMARK                            x       y       z     vdW  Elec       q    Type
REMARK                         _______ _______ _______ _____ _____    ______ ____
ROOT
ATOM      1  C   UNL     1       2.268   7.092  19.082  0.00  0.00    +0.000 A 
ATOM      2  C   UNL     1       2.114   8.252  18.318  0.00  0.00    +0.000 A 
ATOM      3  C   UNL     1       1.555   9.398  18.897  0.00  0.00    +0.000 A 
ATOM      4  C   UNL     1       1.112   9.400  20.229  0.00  0.00    +0.000 A 
ATOM      5  C   UNL     1       1.265   8.219  20.970  0.00  0.00    +0.000 A 
ATOM      6  C   UNL     1       1.820   7.068  20.401  0.00  0.00    +0.000 A 
ENDROOT
BRANCH   1   8
ATOM      7  N   UNL     1       4.146   5.556  19.025  0.00  0.00    +0.000 N 
ATOM      8  C   UNL     1       2.907   5.877  18.526  0.00  0.00    +0.000 C 
ATOM      9  O   UNL     1       2.371   5.212  17.647  0.00  0.00    +0.000 OA
ATOM     10  H   UNL     1       4.566   6.139  19.737  0.00  0.00    +0.000 HD
BRANCH   7  11
ATOM     11  CA  UNL     1       4.889   4.373  18.575  0.00  0.00    +0.000 C 
BRANCH  11  12
ATOM     12  C   UNL     1       6.365   4.743  18.329  0.00  0.00    +0.000 C 
ATOM     13  O   UNL     1       6.905   4.787  17.233  0.00  0.00    +0.000 OA
BRANCH  12  14
ATOM     14  OXT UNL     1       7.030   5.067  19.469  0.00  0.00    +0.000 OA
ATOM     15  HXT UNL     1       7.799   4.469  19.636  0.00  0.00    +0.000 HD
ENDBRANCH  12  14
ENDBRANCH  11  12
BRANCH  11  16
ATOM     16  C   UNL     1       4.769   3.230  19.590  0.00  0.00    +0.000 C 
BRANCH  16  17
ATOM     17  C   UNL     1       3.468   2.422  19.475  0.00  0.00    +0.000 C 
BRANCH  17  18
ATOM     18  C   UNL     1       3.138   1.946  18.059  0.00  0.00    +0.000 C 
BRANCH  18  19
ATOM     19  N   UNL     1       1.698   1.925  17.844  0.00  0.00    +0.000 NA
ATOM     20  H   UNL     1       1.325   2.870  17.929  0.00  0.00    +0.000 HD
ATOM     21  H   UNL     1       1.248   1.377  18.576  0.00  0.00    +0.000 HD
ENDBRANCH  18  19
ENDBRANCH  17  18
ENDBRANCH  16  17
ENDBRANCH  11  16
ENDBRANCH   7  11
ENDBRANCH   1   8
BRANCH   4  22
ATOM     22  N   UNL     1       0.666  10.601  20.802  0.00  0.00    +0.000 N 
ATOM     23  H   UNL     1       1.196  10.851  21.636  0.00  0.00    +0.000 HD
BRANCH  22  24
ATOM     24  C   UNL     1       0.457  11.737  19.913  0.00  0.00    +0.000 C 
BRANCH  24  25
ATOM     25  C   UNL     1      -0.988  11.825  19.512  0.00  0.00    +0.000 A 
ATOM     26  C   UNL     1      -1.956  12.289  20.390  0.00  0.00    +0.000 A 
ATOM     27  N   UNL     1      -3.278  12.381  20.090  0.00  0.00    +0.000 NA
ATOM     28  C   UNL     1      -3.699  12.039  18.869  0.00  0.00    +0.000 A 
ATOM     29  N   UNL     1      -4.993  12.177  18.581  0.00  0.00    +0.000 NA
ATOM     30  C   UNL     1      -5.404  11.882  17.348  0.00  0.00    +0.000 A 
ATOM     31  N   UNL     1      -6.731  12.098  17.049  0.00  0.00    +0.000 N 
ATOM     32  N   UNL     1      -4.634  11.391  16.379  0.00  0.00    +0.000 NA
ATOM     33  C   UNL     1      -3.350  11.256  16.703  0.00  0.00    +0.000 A 
ATOM     34  C   UNL     1      -2.795  11.569  17.927  0.00  0.00    +0.000 A 
ATOM     35  C   UNL     1      -1.427  11.457  18.249  0.00  0.00    +0.000 A 
ATOM     36  H   UNL     1      -7.296  12.114  17.886  0.00  0.00    +0.000 HD
ATOM     37  H   UNL     1      -7.040  11.527  16.276  0.00  0.00    +0.000 HD
BRANCH  33  38
ATOM     38  O   UNL     1      -2.583  10.780  15.684  0.00  0.00    +0.000 OA
ATOM     39  H   UNL     1      -2.351   9.898  16.032  0.00  0.00    +0.000 HD
ENDBRANCH  33  38
ENDBRANCH  24  25
ENDBRANCH  22  24
ENDBRANCH   4  22
TORSDOF 12
ENDMDL
