MODEL 1
REMARK VINA RESULT:      -8.2      0.000      0.000
REMARK  Name = 
REMARK  4 active torsions:
REMARK  status: ('A' for Active; 'I' for Inactive)
REMARK    1  A    between atoms: C_1  and  C_2
REMARK    2  A    between atoms: C_5  and  C_7
REMARK    3  A    between atoms: C_17  and  O_18
REMARK    4  A    between atoms: C_17  and  C_19
REMARK                            x       y       z     vdW  Elec       q    Type
REMARK                         _______ _______ _______ _____ _____    ______ ____
ROOT
ATOM      1  C   UNL     1       8.090   5.425  18.946  0.00  0.00    +0.000 C 
ATOM      2  C   UNL     1       7.006   4.910  17.991  0.00  0.00    +0.000 C 
ATOM      3  C   UNL     1       5.726   4.544  18.766  0.00  0.00    +0.000 C 
ATOM      4  N   UNL     1       4.861   5.712  18.668  0.00  0.00    +0.000 N 
ATOM      5  C   UNL     1       3.554   5.677  19.140  0.00  0.00    +0.000 C 
ATOM      6  O   UNL     1       3.047   4.676  19.630  0.00  0.00    +0.000 OA
ATOM      7  C   UNL     1       5.428   6.707  17.768  0.00  0.00    +0.000 C 
ATOM      8  C   UNL     1       6.514   5.971  16.977  0.00  0.00    +0.000 C 
ENDROOT
BRANCH   5   9
ATOM      9  C   UNL     1       2.731   6.918  19.027  0.00  0.00    +0.000 A 
ATOM     10  C   UNL     1       2.632   7.576  17.802  0.00  0.00    +0.000 A 
ATOM     11  C   UNL     1       1.915   8.778  17.695  0.00  0.00    +0.000 A 
ATOM     12  C   UNL     1       1.310   9.340  18.845  0.00  0.00    +0.000 A 
ATOM     13  N   UNL     1       0.621  10.541  18.908  0.00  0.00    +0.000 NA
ATOM     14  C   UNL     1       0.207  10.743  20.140  0.00  0.00    +0.000 A 
ATOM     15  S   UNL     1       0.593   9.535  21.286  0.00  0.00    +0.000 S 
ATOM     16  C   UNL     1       1.393   8.641  20.050  0.00  0.00    +0.000 A 
ATOM     17  C   UNL     1       2.050   7.410  20.152  0.00  0.00    +0.000 A 
ENDBRANCH   5   9
BRANCH   8  18
ATOM     18  C   UNL     1       5.888   5.322  15.733  0.00  0.00    +0.000 C 
ATOM     19  C   UNL     1       6.814   5.166  14.490  0.00  0.00    +0.000 C 
ATOM     20  C   UNL     1       6.120   3.826  14.206  0.00  0.00    +0.000 C 
ATOM     21  C   UNL     1       5.722   3.777  15.695  0.00  0.00    +0.000 C 
ENDBRANCH   8  18
BRANCH   8  22
ATOM     22  O   UNL     1       7.550   6.857  16.564  0.00  0.00    +0.000 OA
ATOM     23  H   UNL     1       8.184   6.969  17.292  0.00  0.00    +0.000 HD
ENDBRANCH   8  22
TORSDOF 3
ENDMDL
MODEL 2
REMARK VINA RESULT:      -7.5      7.219      9.163
REMARK  Name = 
REMARK  4 active torsions:
REMARK  status: ('A' for Active; 'I' for Inactive)
REMARK    1  A    between atoms: C_1  and  C_2
REMARK    2  A    between atoms: C_5  and  C_7
REMARK    3  A    between atoms: C_17  and  O_18
REMARK    4  A    between atoms: C_17  and  C_19
REMARK                            x       y       z     vdW  Elec       q    Type
REMARK                         _______ _______ _______ _____ _____    ______ ____
ROOT
ATOM      1  C   UNL     1       1.729  12.383  18.546  0.00  0.00    +0.000 C 
ATOM      2  C   UNL     1       0.615  11.379  18.870  0.00  0.00    +0.000 C 
ATOM      3  C   UNL     1       0.666  10.971  20.355  0.00  0.00    +0.000 C 
ATOM      4  N   UNL     1      -0.298  11.830  21.030  0.00  0.00    +0.000 N 
ATOM      5  C   UNL     1      -0.616  11.636  22.369  0.00  0.00    +0.000 C 
ATOM      6  O   UNL     1      -0.140  10.732  23.044  0.00  0.00    +0.000 OA
ATOM      7  C   UNL     1      -1.053  12.623  20.069  0.00  0.00    +0.000 C 
ATOM      8  C   UNL     1      -0.811  11.958  18.710  0.00  0.00    +0.000 C 
ENDROOT
BRANCH   5   9
ATOM      9  C   UNL     1      -1.596  12.568  23.003  0.00  0.00    +0.000 A 
ATOM     10  C   UNL     1      -2.924  12.174  23.164  0.00  0.00    +0.000 A 
ATOM     11  C   UNL     1      -3.869  13.062  23.699  0.00  0.00    +0.000 A 
ATOM     12  C   UNL     1      -3.479  14.376  24.053  0.00  0.00    +0.000 A 
ATOM     13  N   UNL     1      -4.305  15.378  24.538  0.00  0.00    +0.000 NA
ATOM     14  C   UNL     1      -3.597  16.465  24.749  0.00  0.00    +0.000 A 
ATOM     15  S   UNL     1      -1.926  16.371  24.400  0.00  0.00    +0.000 S 
ATOM     16  C   UNL     1      -2.136  14.731  23.917  0.00  0.00    +0.000 A 
ATOM     17  C   UNL     1      -1.173  13.832  23.445  0.00  0.00    +0.000 A 
ENDBRANCH   5   9
BRANCH   8  18
ATOM     18  C   UNL     1      -1.854  10.850  18.491  0.00  0.00    +0.000 C 
ATOM     19  C   UNL     1      -3.251  11.305  17.976  0.00  0.00    +0.000 C 
ATOM     20  C   UNL     1      -3.301  10.021  17.135  0.00  0.00    +0.000 C 
ATOM     21  C   UNL     1      -1.762   9.975  17.211  0.00  0.00    +0.000 C 
ENDBRANCH   8  18
BRANCH   8  22
ATOM     22  O   UNL     1      -0.905  12.899  17.645  0.00  0.00    +0.000 OA
ATOM     23  H   UNL     1      -0.998  12.421  16.804  0.00  0.00    +0.000 HD
ENDBRANCH   8  22
TORSDOF 3
ENDMDL
MODEL 3
REMARK VINA RESULT:      -7.1      4.032      8.404
REMARK  Name = 
REMARK  4 active torsions:
REMARK  status: ('A' for Active; 'I' for Inactive)
REMARK    1  A    between atoms: C_1  and  C_2
REMARK    2  A    between atoms: C_5  and  C_7
REMARK    3  A    between atoms: C_17  and  O_18
REMARK    4  A    between atoms: C_17  and  C_19
REMARK                            x       y       z     vdW  Elec       q    Type
REMARK                         _______ _______ _______ _____ _____    ______ ____
ROOT
ATOM      1  C   UNL     1      -3.622  12.382  19.919  0.00  0.00    +0.000 C 
ATOM      2  C   UNL     1      -2.833  12.281  18.607  0.00  0.00    +0.000 C 
ATOM      3  C   UNL     1      -1.334  12.536  18.853  0.00  0.00    +0.000 C 
ATOM      4  N   UNL     1      -0.730  11.217  18.989  0.00  0.00    +0.000 N 
ATOM      5  C   UNL     1       0.649  11.066  19.081  0.00  0.00    +0.000 C 
ATOM      6  O   UNL     1       1.429  12.009  19.023  0.00  0.00    +0.000 OA
ATOM      7  C   UNL     1      -1.696  10.168  18.692  0.00  0.00    +0.000 C 
ATOM      8  C   UNL     1      -2.854  10.869  17.975  0.00  0.00    +0.000 C 
ENDROOT
BRANCH   5   9
ATOM      9  C   UNL     1       1.198   9.687  19.242  0.00  0.00    +0.000 A 
ATOM     10  C   UNL     1       0.975   8.985  20.426  0.00  0.00    +0.000 A 
ATOM     11  C   UNL     1       1.538   7.715  20.617  0.00  0.00    +0.000 A 
ATOM     12  C   UNL     1       2.361   7.152  19.612  0.00  0.00    +0.000 A 
ATOM     13  N   UNL     1       3.029   5.939  19.679  0.00  0.00    +0.000 NA
ATOM     14  C   UNL     1       3.701   5.748  18.565  0.00  0.00    +0.000 A 
ATOM     15  S   UNL     1       3.581   6.972  17.378  0.00  0.00    +0.000 S 
ATOM     16  C   UNL     1       2.537   7.859  18.422  0.00  0.00    +0.000 A 
ATOM     17  C   UNL     1       1.927   9.098  18.196  0.00  0.00    +0.000 A 
ENDBRANCH   5   9
BRANCH   8  18
ATOM     18  C   UNL     1      -2.564  10.916  16.466  0.00  0.00    +0.000 C 
ATOM     19  C   UNL     1      -2.288   9.551  15.770  0.00  0.00    +0.000 C 
ATOM     20  C   UNL     1      -3.043  10.083  14.543  0.00  0.00    +0.000 C 
ATOM     21  C   UNL     1      -3.753  11.081  15.479  0.00  0.00    +0.000 C 
ENDBRANCH   8  18
BRANCH   8  22
ATOM     22  O   UNL     1      -4.087  10.190  18.188  0.00  0.00    +0.000 OA
ATOM     23  H   UNL     1      -4.712  10.433  17.485  0.00  0.00    +0.000 HD
ENDBRANCH   8  22
TORSDOF 3
ENDMDL
MODEL 4
REMARK VINA RESULT:      -7.0      2.391      4.397
REMARK  Name = 
REMARK  4 active torsions:
REMARK  status: ('A' for Active; 'I' for Inactive)
REMARK    1  A    between atoms: C_1  and  C_2
REMARK    2  A    between atoms: C_5  and  C_7
REMARK    3  A    between atoms: C_17  and  O_18
REMARK    4  A    between atoms: C_17  and  C_19
REMARK                            x       y       z     vdW  Elec       q    Type
REMARK                         _______ _______ _______ _____ _____    ______ ____
ROOT
ATOM      1  C   UNL     1       2.762   2.734  16.195  0.00  0.00    +0.000 C 
ATOM      2  C   UNL     1       3.267   3.078  17.602  0.00  0.00    +0.000 C 
ATOM      3  C   UNL     1       4.062   4.398  17.588  0.00  0.00    +0.000 C 
ATOM      4  N   UNL     1       3.113   5.431  17.982  0.00  0.00    +0.000 N 
ATOM      5  C   UNL     1       3.531   6.737  18.211  0.00  0.00    +0.000 C 
ATOM      6  O   UNL     1       4.701   7.088  18.129  0.00  0.00    +0.000 OA
ATOM      7  C   UNL     1       1.844   4.845  18.391  0.00  0.00    +0.000 C 
ATOM      8  C   UNL     1       2.134   3.358  18.620  0.00  0.00    +0.000 C 
ENDROOT
BRANCH   5   9
ATOM      9  C   UNL     1       2.501   7.750  18.590  0.00  0.00    +0.000 A 
ATOM     10  C   UNL     1       2.030   8.650  17.635  0.00  0.00    +0.000 A 
ATOM     11  C   UNL     1       1.110   9.648  17.992  0.00  0.00    +0.000 A 
ATOM     12  C   UNL     1       0.678   9.760  19.336  0.00  0.00    +0.000 A 
ATOM     13  N   UNL     1      -0.178  10.722  19.848  0.00  0.00    +0.000 NA
ATOM     14  C   UNL     1      -0.346  10.517  21.136  0.00  0.00    +0.000 A 
ATOM     15  S   UNL     1       0.480   9.182  21.813  0.00  0.00    +0.000 S 
ATOM     16  C   UNL     1       1.137   8.822  20.262  0.00  0.00    +0.000 A 
ATOM     17  C   UNL     1       2.004   7.784  19.903  0.00  0.00    +0.000 A 
ENDBRANCH   5   9
BRANCH   8  18
ATOM     18  C   UNL     1       2.604   3.148  20.067  0.00  0.00    +0.000 C 
ATOM     19  C   UNL     1       2.268   4.284  21.078  0.00  0.00    +0.000 C 
ATOM     20  C   UNL     1       2.037   3.199  22.140  0.00  0.00    +0.000 C 
ATOM     21  C   UNL     1       1.788   2.202  20.992  0.00  0.00    +0.000 C 
ENDBRANCH   8  18
BRANCH   8  22
ATOM     22  O   UNL     1       0.978   2.560  18.388  0.00  0.00    +0.000 OA
ATOM     23  H   UNL     1       1.119   2.016  17.595  0.00  0.00    +0.000 HD
ENDBRANCH   8  22
TORSDOF 3
ENDMDL
MODEL 5
REMARK VINA RESULT:      -7.0      7.042      9.176
REMARK  Name = 
REMARK  4 active torsions:
REMARK  status: ('A' for Active; 'I' for Inactive)
REMARK    1  A    between atoms: C_1  and  C_2
REMARK    2  A    between atoms: C_5  and  C_7
REMARK    3  A    between atoms: C_17  and  O_18
REMARK    4  A    between atoms: C_17  and  C_19
REMARK                            x       y       z     vdW  Elec       q    Type
REMARK                         _______ _______ _______ _____ _____    ______ ____
ROOT
ATOM      1  C   UNL     1       1.904  11.892  18.949  0.00  0.00    +0.000 C 
ATOM      2  C   UNL     1       0.670  11.016  19.200  0.00  0.00    +0.000 C 
ATOM      3  C   UNL     1       0.486  10.754  20.707  0.00  0.00    +0.000 C 
ATOM      4  N   UNL     1      -0.476  11.749  21.163  0.00  0.00    +0.000 N 
ATOM      5  C   UNL     1      -0.984  11.714  22.456  0.00  0.00    +0.000 C 
ATOM      6  O   UNL     1      -0.687  10.846  23.268  0.00  0.00    +0.000 OA
ATOM      7  C   UNL     1      -1.021  12.500  20.041  0.00  0.00    +0.000 C 
ATOM      8  C   UNL     1      -0.663  11.688  18.792  0.00  0.00    +0.000 C 
ENDROOT
BRANCH   5   9
ATOM      9  C   UNL     1      -1.949  12.778  22.863  0.00  0.00    +0.000 A 
ATOM     10  C   UNL     1      -1.478  13.959  23.437  0.00  0.00    +0.000 A 
ATOM     11  C   UNL     1      -2.377  14.940  23.883  0.00  0.00    +0.000 A 
ATOM     12  C   UNL     1      -3.771  14.719  23.775  0.00  0.00    +0.000 A 
ATOM     13  N   UNL     1      -4.775  15.566  24.219  0.00  0.00    +0.000 NA
ATOM     14  C   UNL     1      -5.947  15.030  23.956  0.00  0.00    +0.000 A 
ATOM     15  S   UNL     1      -5.936  13.513  23.167  0.00  0.00    +0.000 S 
ATOM     16  C   UNL     1      -4.213  13.546  23.163  0.00  0.00    +0.000 A 
ATOM     17  C   UNL     1      -3.325  12.591  22.657  0.00  0.00    +0.000 A 
ENDBRANCH   5   9
BRANCH   8  18
ATOM     18  C   UNL     1      -1.765  10.650  18.527  0.00  0.00    +0.000 C 
ATOM     19  C   UNL     1      -3.163  11.209  18.129  0.00  0.00    +0.000 C 
ATOM     20  C   UNL     1      -3.312  10.013  17.177  0.00  0.00    +0.000 C 
ATOM     21  C   UNL     1      -1.775   9.897  17.167  0.00  0.00    +0.000 C 
ENDBRANCH   8  18
BRANCH   8  22
ATOM     22  O   UNL     1      -0.529  12.523  17.647  0.00  0.00    +0.000 OA
ATOM     23  H   UNL     1       0.278  13.058  17.734  0.00  0.00    +0.000 HD
ENDBRANCH   8  22
TORSDOF 3
ENDMDL
MODEL 6
REMARK VINA RESULT:      -6.9      3.917      7.427
REMARK  Name = 
REMARK  4 active torsions:
REMARK  status: ('A' for Active; 'I' for Inactive)
REMARK    1  A    between atoms: C_1  and  C_2
REMARK    2  A    between atoms: C_5  and  C_7
REMARK    3  A    between atoms: C_17  and  O_18
REMARK    4  A    between atoms: C_17  and  C_19
REMARK                            x       y       z     vdW  Elec       q    Type
REMARK                         _______ _______ _______ _____ _____    ______ ____
ROOT
ATOM      1  C   UNL     1       1.429  12.259  19.944  0.00  0.00    +0.000 C 
ATOM      2  C   UNL     1       0.867  11.526  18.719  0.00  0.00    +0.000 C 
ATOM      3  C   UNL     1       1.952  10.647  18.066  0.00  0.00    +0.000 C 
ATOM      4  N   UNL     1       1.750   9.310  18.608  0.00  0.00    +0.000 N 
ATOM      5  C   UNL     1       2.472   8.225  18.124  0.00  0.00    +0.000 C 
ATOM      6  O   UNL     1       3.284   8.316  17.212  0.00  0.00    +0.000 OA
ATOM      7  C   UNL     1       0.540   9.251  19.416  0.00  0.00    +0.000 C 
ATOM      8  C   UNL     1      -0.252  10.513  19.058  0.00  0.00    +0.000 C 
ENDROOT
BRANCH   5   9
ATOM      9  C   UNL     1       2.231   6.887  18.741  0.00  0.00    +0.000 A 
ATOM     10  C   UNL     1       2.003   6.786  20.113  0.00  0.00    +0.000 A 
ATOM     11  C   UNL     1       1.839   5.530  20.717  0.00  0.00    +0.000 A 
ATOM     12  C   UNL     1       1.932   4.355  19.933  0.00  0.00    +0.000 A 
ATOM     13  N   UNL     1       1.848   3.050  20.393  0.00  0.00    +0.000 NA
ATOM     14  C   UNL     1       1.987   2.220  19.382  0.00  0.00    +0.000 A 
ATOM     15  S   UNL     1       2.213   2.923  17.840  0.00  0.00    +0.000 S 
ATOM     16  C   UNL     1       2.123   4.487  18.557  0.00  0.00    +0.000 A 
ATOM     17  C   UNL     1       2.224   5.736  17.936  0.00  0.00    +0.000 A 
ENDBRANCH   5   9
BRANCH   8  18
ATOM     18  C   UNL     1      -1.148  10.225  17.843  0.00  0.00    +0.000 C 
ATOM     19  C   UNL     1      -2.559   9.639  18.144  0.00  0.00    +0.000 C 
ATOM     20  C   UNL     1      -3.099  10.482  16.979  0.00  0.00    +0.000 C 
ATOM     21  C   UNL     1      -1.881  11.410  17.154  0.00  0.00    +0.000 C 
ENDBRANCH   8  18
BRANCH   8  22
ATOM     22  O   UNL     1      -1.069  10.941  20.144  0.00  0.00    +0.000 OA
ATOM     23  H   UNL     1      -0.735  10.551  20.969  0.00  0.00    +0.000 HD
ENDBRANCH   8  22
TORSDOF 3
ENDMDL
MODEL 7
REMARK VINA RESULT:      -6.9      3.839      8.195
REMARK  Name = 
REMARK  4 active torsions:
REMARK  status: ('A' for Active; 'I' for Inactive)
REMARK    1  A    between atoms: C_1  and  C_2
REMARK    2  A    between atoms: C_5  and  C_7
REMARK    3  A    between atoms: C_17  and  O_18
REMARK    4  A    between atoms: C_17  and  C_19
REMARK                            x       y       z     vdW  Elec       q    Type
REMARK                         _______ _______ _______ _____ _____    ______ ____
ROOT
ATOM      1  C   UNL     1      -1.596  13.638  20.132  0.00  0.00    +0.000 C 
ATOM      2  C   UNL     1      -1.375  13.021  18.745  0.00  0.00    +0.000 C 
ATOM      3  C   UNL     1       0.123  12.762  18.497  0.00  0.00    +0.000 C 
ATOM      4  N   UNL     1       0.341  11.364  18.844  0.00  0.00    +0.000 N 
ATOM      5  C   UNL     1       1.565  10.749  18.604  0.00  0.00    +0.000 C 
ATOM      6  O   UNL     1       2.506  11.322  18.069  0.00  0.00    +0.000 OA
ATOM      7  C   UNL     1      -0.919  10.695  19.133  0.00  0.00    +0.000 C 
ATOM      8  C   UNL     1      -2.009  11.619  18.579  0.00  0.00    +0.000 C 
ENDROOT
BRANCH   5   9
ATOM      9  C   UNL     1       1.726   9.320  19.005  0.00  0.00    +0.000 A 
ATOM     10  C   UNL     1       1.260   8.892  20.248  0.00  0.00    +0.000 A 
ATOM     11  C   UNL     1       1.462   7.568  20.665  0.00  0.00    +0.000 A 
ATOM     12  C   UNL     1       2.167   6.667  19.831  0.00  0.00    +0.000 A 
ATOM     13  N   UNL     1       2.491   5.352  20.128  0.00  0.00    +0.000 NA
ATOM     14  C   UNL     1       3.155   4.827  19.121  0.00  0.00    +0.000 A 
ATOM     15  S   UNL     1       3.425   5.840  17.771  0.00  0.00    +0.000 S 
ATOM     16  C   UNL     1       2.589   7.112  18.577  0.00  0.00    +0.000 A 
ATOM     17  C   UNL     1       2.336   8.412  18.126  0.00  0.00    +0.000 A 
ENDBRANCH   5   9
BRANCH   8  18
ATOM     18  C   UNL     1      -2.262  11.280  17.102  0.00  0.00    +0.000 C 
ATOM     19  C   UNL     1      -2.086   9.787  16.693  0.00  0.00    +0.000 C 
ATOM     20  C   UNL     1      -3.272   9.965  15.733  0.00  0.00    +0.000 C 
ATOM     21  C   UNL     1      -3.728  11.154  16.601  0.00  0.00    +0.000 C 
ENDBRANCH   8  18
BRANCH   8  22
ATOM     22  O   UNL     1      -3.228  11.479  19.302  0.00  0.00    +0.000 OA
ATOM     23  H   UNL     1      -3.065  10.962  20.108  0.00  0.00    +0.000 HD
ENDBRANCH   8  22
TORSDOF 3
ENDMDL
MODEL 8
REMARK VINA RESULT:      -6.8      5.751      8.527
REMARK  Name = 
REMARK  4 active torsions:
REMARK  status: ('A' for Active; 'I' for Inactive)
REMARK    1  A    between atoms: C_1  and  C_2
REMARK    2  A    between atoms: C_5  and  C_7
REMARK    3  A    between atoms: C_17  and  O_18
REMARK    4  A    between atoms: C_17  and  C_19
REMARK                            x       y       z     vdW  Elec       q    Type
REMARK                         _______ _______ _______ _____ _____    ______ ____
ROOT
ATOM      1  C   UNL     1       1.590   8.768  19.924  0.00  0.00    +0.000 C 
ATOM      2  C   UNL     1       0.287   9.573  20.000  0.00  0.00    +0.000 C 
ATOM      3  C   UNL     1       0.427  10.744  20.992  0.00  0.00    +0.000 C 
ATOM      4  N   UNL     1       0.767  11.905  20.180  0.00  0.00    +0.000 N 
ATOM      5  C   UNL     1       0.830  13.176  20.740  0.00  0.00    +0.000 C 
ATOM      6  O   UNL     1       0.580  13.401  21.917  0.00  0.00    +0.000 OA
ATOM      7  C   UNL     1       0.693  11.589  18.760  0.00  0.00    +0.000 C 
ATOM      8  C   UNL     1      -0.090  10.275  18.674  0.00  0.00    +0.000 C 
ENDROOT
BRANCH   5   9
ATOM      9  C   UNL     1       1.206  14.318  19.854  0.00  0.00    +0.000 A 
ATOM     10  C   UNL     1       2.548  14.551  19.556  0.00  0.00    +0.000 A 
ATOM     11  C   UNL     1       2.922  15.658  18.778  0.00  0.00    +0.000 A 
ATOM     12  C   UNL     1       1.933  16.559  18.315  0.00  0.00    +0.000 A 
ATOM     13  N   UNL     1       2.151  17.719  17.589  0.00  0.00    +0.000 NA
ATOM     14  C   UNL     1       1.000  18.305  17.342  0.00  0.00    +0.000 A 
ATOM     15  S   UNL     1      -0.399  17.524  17.938  0.00  0.00    +0.000 S 
ATOM     16  C   UNL     1       0.594  16.280  18.596  0.00  0.00    +0.000 A 
ATOM     17  C   UNL     1       0.207  15.145  19.316  0.00  0.00    +0.000 A 
ENDBRANCH   5   9
BRANCH   8  18
ATOM     18  C   UNL     1      -1.594  10.582  18.599  0.00  0.00    +0.000 C 
ATOM     19  C   UNL     1      -1.996  11.910  17.891  0.00  0.00    +0.000 C 
ATOM     20  C   UNL     1      -3.221  11.175  17.325  0.00  0.00    +0.000 C 
ATOM     21  C   UNL     1      -2.457   9.853  17.532  0.00  0.00    +0.000 C 
ENDBRANCH   8  18
BRANCH   8  22
ATOM     22  O   UNL     1       0.285   9.519  17.527  0.00  0.00    +0.000 OA
ATOM     23  H   UNL     1      -0.487   9.026  17.202  0.00  0.00    +0.000 HD
ENDBRANCH   8  22
TORSDOF 3
ENDMDL
MODEL 9
REMARK VINA RESULT:      -6.8      3.536      6.844
REMARK  Name = 
REMARK  4 active torsions:
REMARK  status: ('A' for Active; 'I' for Inactive)
REMARK    1  A    between atoms: C_1  and  C_2
REMARK    2  A    between atoms: C_5  and  C_7
REMARK    3  A    between atoms: C_17  and  O_18
REMARK    4  A    between atoms: C_17  and  C_19
REMARK                            x       y       z     vdW  Elec       q    Type
REMARK                         _______ _______ _______ _____ _____    ______ ____
ROOT
ATOM      1  C   UNL     1       1.508   1.955  18.906  0.00  0.00    +0.000 C 
ATOM      2  C   UNL     1       1.931   3.396  19.218  0.00  0.00    +0.000 C 
ATOM      3  C   UNL     1       3.428   3.458  19.577  0.00  0.00    +0.000 C 
ATOM      4  N   UNL     1       4.112   3.823  18.344  0.00  0.00    +0.000 N 
ATOM      5  C   UNL     1       5.472   4.108  18.336  0.00  0.00    +0.000 C 
ATOM      6  O   UNL     1       6.162   4.100  19.348  0.00  0.00    +0.000 OA
ATOM      7  C   UNL     1       3.156   4.146  17.293  0.00  0.00    +0.000 C 
ATOM      8  C   UNL     1       1.817   4.355  18.008  0.00  0.00    +0.000 C 
ENDROOT
BRANCH   5   9
ATOM      9  C   UNL     1       6.113   4.453  17.032  0.00  0.00    +0.000 A 
ATOM     10  C   UNL     1       6.984   5.539  16.953  0.00  0.00    +0.000 A 
ATOM     11  C   UNL     1       7.543   5.914  15.722  0.00  0.00    +0.000 A 
ATOM     12  C   UNL     1       7.200   5.202  14.547  0.00  0.00    +0.000 A 
ATOM     13  N   UNL     1       7.625   5.487  13.259  0.00  0.00    +0.000 NA
ATOM     14  C   UNL     1       7.099   4.619  12.423  0.00  0.00    +0.000 A 
ATOM     15  S   UNL     1       6.088   3.418  13.101  0.00  0.00    +0.000 S 
ATOM     16  C   UNL     1       6.356   4.096  14.662  0.00  0.00    +0.000 A 
ATOM     17  C   UNL     1       5.845   3.675  15.894  0.00  0.00    +0.000 A 
ENDBRANCH   5   9
BRANCH   8  18
ATOM     18  C   UNL     1       1.700   5.821  18.452  0.00  0.00    +0.000 C 
ATOM     19  C   UNL     1       1.848   6.097  19.978  0.00  0.00    +0.000 C 
ATOM     20  C   UNL     1       2.584   7.396  19.617  0.00  0.00    +0.000 C 
ATOM     21  C   UNL     1       2.916   6.766  18.250  0.00  0.00    +0.000 C 
ENDBRANCH   8  18
BRANCH   8  22
ATOM     22  O   UNL     1       0.718   4.039  17.159  0.00  0.00    +0.000 OA
ATOM     23  H   UNL     1       0.592   4.758  16.518  0.00  0.00    +0.000 HD
ENDBRANCH   8  22
TORSDOF 3
ENDMDL
