MODEL 1
REMARK VINA RESULT:      -9.6      0.000      0.000
REMARK  Name = 
REMARK  7 active torsions:
REMARK  status: ('A' for Active; 'I' for Inactive)
REMARK    1  A    between atoms: C_2  and  C_3
REMARK    2  A    between atoms: C_3  and  O_4
REMARK    3  A    between atoms: O_4  and  C_5
REMARK    4  A    between atoms: C_5  and  C_7
REMARK    5  A    between atoms: C_12  and  C_13
REMARK    6  A    between atoms: N_18  and  C_19
REMARK    7  A    between atoms: N_27  and  C_28
REMARK                            x       y       z     vdW  Elec       q    Type
REMARK                         _______ _______ _______ _____ _____    ______ ____
ROOT
ATOM      1  C   UNL     1       3.420   3.997  19.887  0.00  0.00    +0.000 A 
ATOM      2  C   UNL     1       3.092   2.757  20.481  0.00  0.00    +0.000 A 
ATOM      3  C   UNL     1       1.801   2.478  20.960  0.00  0.00    +0.000 A 
ATOM      4  C   UNL     1       0.825   3.459  20.940  0.00  0.00    +0.000 A 
ATOM      5  C   UNL     1       1.110   4.676  20.332  0.00  0.00    +0.000 A 
ATOM      6  C   UNL     1       2.334   4.894  19.661  0.00  0.00    +0.000 A 
ENDROOT
BRANCH   6   7
ATOM      7  C   UNL     1       2.355   6.054  18.718  0.00  0.00    +0.000 C 
ATOM      8  O   UNL     1       2.450   5.757  17.517  0.00  0.00    +0.000 OA
ATOM      9  N   UNL     1       2.294   7.402  19.142  0.00  0.00    +0.000 N 
ATOM     10  C   UNL     1       2.454   8.460  18.138  0.00  0.00    +0.000 C 
ATOM     11  C   UNL     1       1.111   9.164  17.876  0.00  0.00    +0.000 C 
ATOM     12  N   UNL     1       0.562   9.801  19.108  0.00  0.00    +0.000 N 
ATOM     13  C   UNL     1       0.610   8.927  20.314  0.00  0.00    +0.000 C 
ATOM     14  C   UNL     1       1.853   8.001  20.424  0.00  0.00    +0.000 C 
BRANCH  12  15
ATOM     15  C   UNL     1      -0.656  10.518  18.921  0.00  0.00    +0.000 A 
ATOM     16  C   UNL     1      -1.061  11.574  19.764  0.00  0.00    +0.000 A 
ATOM     17  C   UNL     1      -2.308  12.210  19.632  0.00  0.00    +0.000 A 
ATOM     18  C   UNL     1      -3.177  11.835  18.619  0.00  0.00    +0.000 A 
ATOM     19  C   UNL     1      -2.775  10.862  17.711  0.00  0.00    +0.000 A 
ATOM     20  C   UNL     1      -1.532  10.229  17.852  0.00  0.00    +0.000 A 
ENDBRANCH  12  15
ENDBRANCH   6   7
BRANCH   1  21
ATOM     21  C   UNL     1       4.867   4.065  19.406  0.00  0.00    +0.000 C 
ATOM     22  O   UNL     1       5.527   3.033  19.363  0.00  0.00    +0.000 OA
BRANCH  21  23
ATOM     23  O   UNL     1       5.441   5.333  19.338  0.00  0.00    +0.000 OA
BRANCH  23  24
ATOM     24  C   UNL     1       6.709   5.476  18.618  0.00  0.00    +0.000 C 
BRANCH  24  26
ATOM     25  O   UNL     1       8.193   4.182  17.100  0.00  0.00    +0.000 OA
ATOM     26  C   UNL     1       7.159   4.856  17.171  0.00  0.00    +0.000 C 
ATOM     27  N   UNL     1       6.421   5.217  16.042  0.00  0.00    +0.000 N 
ATOM     28  H   UNL     1       5.630   5.814  16.210  0.00  0.00    +0.000 HD
BRANCH  27  29
ATOM     29  C   UNL     1       6.661   4.880  14.652  0.00  0.00    +0.000 A 
ATOM     30  C   UNL     1       7.622   5.454  13.802  0.00  0.00    +0.000 A 
ATOM     31  C   UNL     1       7.771   5.030  12.453  0.00  0.00    +0.000 A 
ATOM     32  C   UNL     1       6.961   4.033  11.932  0.00  0.00    +0.000 A 
ATOM     33  C   UNL     1       6.003   3.448  12.741  0.00  0.00    +0.000 A 
ATOM     34  C   UNL     1       5.853   3.870  14.088  0.00  0.00    +0.000 A 
ENDBRANCH  27  29
ENDBRANCH  24  26
ENDBRANCH  23  24
ENDBRANCH  21  23
ENDBRANCH   1  21
TORSDOF 7
ENDMDL
MODEL 2
REMARK VINA RESULT:      -8.6      0.848      1.227
REMARK  Name = 
REMARK  7 active torsions:
REMARK  status: ('A' for Active; 'I' for Inactive)
REMARK    1  A    between atoms: C_2  and  C_3
REMARK    2  A    between atoms: C_3  and  O_4
REMARK    3  A    between atoms: O_4  and  C_5
REMARK    4  A    between atoms: C_5  and  C_7
REMARK    5  A    between atoms: C_12  and  C_13
REMARK    6  A    between atoms: N_18  and  C_19
REMARK    7  A    between atoms: N_27  and  C_28
REMARK                            x       y       z     vdW  Elec       q    Type
REMARK                         _______ _______ _______ _____ _____    ______ ____
ROOT
ATOM      1  C   UNL     1       3.464   4.214  19.863  0.00  0.00    +0.000 A 
ATOM      2  C   UNL     1       3.226   2.916  20.370  0.00  0.00    +0.000 A 
ATOM      3  C   UNL     1       1.957   2.509  20.815  0.00  0.00    +0.000 A 
ATOM      4  C   UNL     1       0.910   3.414  20.850  0.00  0.00    +0.000 A 
ATOM      5  C   UNL     1       1.107   4.687  20.329  0.00  0.00    +0.000 A 
ATOM      6  C   UNL     1       2.314   5.041  19.687  0.00  0.00    +0.000 A 
ENDROOT
BRANCH   6   7
ATOM      7  C   UNL     1       2.254   6.261  18.824  0.00  0.00    +0.000 C 
ATOM      8  O   UNL     1       2.244   6.044  17.603  0.00  0.00    +0.000 OA
ATOM      9  N   UNL     1       2.230   7.578  19.340  0.00  0.00    +0.000 N 
ATOM     10  C   UNL     1       2.303   8.700  18.398  0.00  0.00    +0.000 C 
ATOM     11  C   UNL     1       0.942   9.412  18.301  0.00  0.00    +0.000 C 
ATOM     12  N   UNL     1       0.502   9.964  19.615  0.00  0.00    +0.000 N 
ATOM     13  C   UNL     1       0.655   9.013  20.752  0.00  0.00    +0.000 C 
ATOM     14  C   UNL     1       1.902   8.088  20.692  0.00  0.00    +0.000 C 
BRANCH  12  15
ATOM     15  C   UNL     1      -0.727  10.685  19.582  0.00  0.00    +0.000 A 
ATOM     16  C   UNL     1      -1.652  10.577  18.522  0.00  0.00    +0.000 A 
ATOM     17  C   UNL     1      -2.814  11.365  18.451  0.00  0.00    +0.000 A 
ATOM     18  C   UNL     1      -3.111  12.261  19.466  0.00  0.00    +0.000 A 
ATOM     19  C   UNL     1      -2.273  12.329  20.573  0.00  0.00    +0.000 A 
ATOM     20  C   UNL     1      -1.113  11.543  20.635  0.00  0.00    +0.000 A 
ENDBRANCH  12  15
ENDBRANCH   6   7
BRANCH   1  21
ATOM     21  C   UNL     1       4.904   4.422  19.404  0.00  0.00    +0.000 C 
ATOM     22  O   UNL     1       5.700   3.496  19.510  0.00  0.00    +0.000 OA
BRANCH  21  23
ATOM     23  O   UNL     1       5.301   5.739  19.178  0.00  0.00    +0.000 OA
BRANCH  23  24
ATOM     24  C   UNL     1       6.199   6.002  18.051  0.00  0.00    +0.000 C 
BRANCH  24  26
ATOM     25  O   UNL     1       4.819   5.804  15.993  0.00  0.00    +0.000 OA
ATOM     26  C   UNL     1       5.965   5.742  16.452  0.00  0.00    +0.000 C 
ATOM     27  N   UNL     1       7.059   5.336  15.685  0.00  0.00    +0.000 N 
ATOM     28  H   UNL     1       7.935   5.267  16.173  0.00  0.00    +0.000 HD
BRANCH  27  29
ATOM     29  C   UNL     1       7.099   4.960  14.284  0.00  0.00    +0.000 A 
ATOM     30  C   UNL     1       7.936   5.499  13.292  0.00  0.00    +0.000 A 
ATOM     31  C   UNL     1       7.890   5.038  11.948  0.00  0.00    +0.000 A 
ATOM     32  C   UNL     1       7.005   4.039  11.574  0.00  0.00    +0.000 A 
ATOM     33  C   UNL     1       6.165   3.487  12.524  0.00  0.00    +0.000 A 
ATOM     34  C   UNL     1       6.210   3.945  13.867  0.00  0.00    +0.000 A 
ENDBRANCH  27  29
ENDBRANCH  24  26
ENDBRANCH  23  24
ENDBRANCH  21  23
ENDBRANCH   1  21
TORSDOF 7
ENDMDL
MODEL 3
REMARK VINA RESULT:      -8.6      0.711      1.092
REMARK  Name = 
REMARK  7 active torsions:
REMARK  status: ('A' for Active; 'I' for Inactive)
REMARK    1  A    between atoms: C_2  and  C_3
REMARK    2  A    between atoms: C_3  and  O_4
REMARK    3  A    between atoms: O_4  and  C_5
REMARK    4  A    between atoms: C_5  and  C_7
REMARK    5  A    between atoms: C_12  and  C_13
REMARK    6  A    between atoms: N_18  and  C_19
REMARK    7  A    between atoms: N_27  and  C_28
REMARK                            x       y       z     vdW  Elec       q    Type
REMARK                         _______ _______ _______ _____ _____    ______ ____
ROOT
ATOM      1  C   UNL     1       3.583   4.449  19.680  0.00  0.00    +0.000 A 
ATOM      2  C   UNL     1       3.322   3.162  20.204  0.00  0.00    +0.000 A 
ATOM      3  C   UNL     1       2.062   2.803  20.711  0.00  0.00    +0.000 A 
ATOM      4  C   UNL     1       1.052   3.746  20.790  0.00  0.00    +0.000 A 
ATOM      5  C   UNL     1       1.269   5.009  20.254  0.00  0.00    +0.000 A 
ATOM      6  C   UNL     1       2.457   5.316  19.554  0.00  0.00    +0.000 A 
ENDROOT
BRANCH   6   7
ATOM      7  C   UNL     1       2.400   6.534  18.688  0.00  0.00    +0.000 C 
ATOM      8  O   UNL     1       2.550   6.327  17.474  0.00  0.00    +0.000 OA
ATOM      9  N   UNL     1       2.210   7.841  19.196  0.00  0.00    +0.000 N 
ATOM     10  C   UNL     1       2.302   8.973  18.268  0.00  0.00    +0.000 C 
ATOM     11  C   UNL     1       0.909   9.575  18.011  0.00  0.00    +0.000 C 
ATOM     12  N   UNL     1       0.276  10.079  19.264  0.00  0.00    +0.000 N 
ATOM     13  C   UNL     1       0.370   9.134  20.412  0.00  0.00    +0.000 C 
ATOM     14  C   UNL     1       1.686   8.312  20.500  0.00  0.00    +0.000 C 
BRANCH  12  15
ATOM     15  C   UNL     1      -0.995  10.699  19.086  0.00  0.00    +0.000 A 
ATOM     16  C   UNL     1      -1.454  11.756  19.902  0.00  0.00    +0.000 A 
ATOM     17  C   UNL     1      -2.747  12.295  19.782  0.00  0.00    +0.000 A 
ATOM     18  C   UNL     1      -3.612  11.820  18.808  0.00  0.00    +0.000 A 
ATOM     19  C   UNL     1      -3.165  10.845  17.926  0.00  0.00    +0.000 A 
ATOM     20  C   UNL     1      -1.876  10.308  18.053  0.00  0.00    +0.000 A 
ENDBRANCH  12  15
ENDBRANCH   6   7
BRANCH   1  21
ATOM     21  C   UNL     1       5.006   4.603  19.152  0.00  0.00    +0.000 C 
ATOM     22  O   UNL     1       5.641   3.596  18.857  0.00  0.00    +0.000 OA
BRANCH  21  23
ATOM     23  O   UNL     1       5.603   5.850  19.326  0.00  0.00    +0.000 OA
BRANCH  23  24
ATOM     24  C   UNL     1       5.985   6.602  18.128  0.00  0.00    +0.000 C 
BRANCH  24  26
ATOM     25  O   UNL     1       7.743   6.471  16.375  0.00  0.00    +0.000 OA
ATOM     26  C   UNL     1       6.629   6.063  16.723  0.00  0.00    +0.000 C 
ATOM     27  N   UNL     1       5.839   5.253  15.905  0.00  0.00    +0.000 N 
ATOM     28  H   UNL     1       4.928   5.027  16.264  0.00  0.00    +0.000 HD
BRANCH  27  29
ATOM     29  C   UNL     1       6.137   4.724  14.588  0.00  0.00    +0.000 A 
ATOM     30  C   UNL     1       5.428   3.722  13.904  0.00  0.00    +0.000 A 
ATOM     31  C   UNL     1       5.812   3.292  12.604  0.00  0.00    +0.000 A 
ATOM     32  C   UNL     1       6.912   3.852  11.972  0.00  0.00    +0.000 A 
ATOM     33  C   UNL     1       7.634   4.839  12.617  0.00  0.00    +0.000 A 
ATOM     34  C   UNL     1       7.251   5.270  13.915  0.00  0.00    +0.000 A 
ENDBRANCH  27  29
ENDBRANCH  24  26
ENDBRANCH  23  24
ENDBRANCH  21  23
ENDBRANCH   1  21
TORSDOF 7
ENDMDL
MODEL 4
REMARK VINA RESULT:      -8.2      2.291      3.144
REMARK  Name = 
REMARK  7 active torsions:
REMARK  status: ('A' for Active; 'I' for Inactive)
REMARK    1  A    between atoms: C_2  and  C_3
REMARK    2  A    between atoms: C_3  and  O_4
REMARK    3  A    between atoms: O_4  and  C_5
REMARK    4  A    between atoms: C_5  and  C_7
REMARK    5  A    between atoms: C_12  and  C_13
REMARK    6  A    between atoms: N_18  and  C_19
REMARK    7  A    between atoms: N_27  and  C_28
REMARK                            x       y       z     vdW  Elec       q    Type
REMARK                         _______ _______ _______ _____ _____    ______ ____
ROOT
ATOM      1  C   UNL     1       1.854   3.873  19.137  0.00  0.00    +0.000 A 
ATOM      2  C   UNL     1       1.417   2.871  20.034  0.00  0.00    +0.000 A 
ATOM      3  C   UNL     1       1.524   3.018  21.427  0.00  0.00    +0.000 A 
ATOM      4  C   UNL     1       2.152   4.130  21.962  0.00  0.00    +0.000 A 
ATOM      5  C   UNL     1       2.562   5.145  21.106  0.00  0.00    +0.000 A 
ATOM      6  C   UNL     1       2.271   5.105  19.724  0.00  0.00    +0.000 A 
ENDROOT
BRANCH   6   7
ATOM      7  C   UNL     1       2.391   6.407  19.000  0.00  0.00    +0.000 C 
ATOM      8  O   UNL     1       2.772   6.324  17.823  0.00  0.00    +0.000 OA
ATOM      9  N   UNL     1       2.113   7.658  19.600  0.00  0.00    +0.000 N 
ATOM     10  C   UNL     1       2.389   8.879  18.834  0.00  0.00    +0.000 C 
ATOM     11  C   UNL     1       1.076   9.541  18.381  0.00  0.00    +0.000 C 
ATOM     12  N   UNL     1       0.215   9.927  19.535  0.00  0.00    +0.000 N 
ATOM     13  C   UNL     1       0.080   8.865  20.572  0.00  0.00    +0.000 C 
ATOM     14  C   UNL     1       1.350   8.005  20.822  0.00  0.00    +0.000 C 
BRANCH  12  15
ATOM     15  C   UNL     1      -0.994  10.596  19.185  0.00  0.00    +0.000 A 
ATOM     16  C   UNL     1      -1.516  11.677  19.927  0.00  0.00    +0.000 A 
ATOM     17  C   UNL     1      -2.758  12.266  19.632  0.00  0.00    +0.000 A 
ATOM     18  C   UNL     1      -3.502  11.818  18.551  0.00  0.00    +0.000 A 
ATOM     19  C   UNL     1      -2.978  10.818  17.740  0.00  0.00    +0.000 A 
ATOM     20  C   UNL     1      -1.741  10.232  18.043  0.00  0.00    +0.000 A 
ENDBRANCH  12  15
ENDBRANCH   6   7
BRANCH   1  21
ATOM     21  C   UNL     1       1.606   3.516  17.675  0.00  0.00    +0.000 C 
ATOM     22  O   UNL     1       0.664   4.038  17.088  0.00  0.00    +0.000 OA
BRANCH  21  23
ATOM     23  O   UNL     1       2.273   2.394  17.185  0.00  0.00    +0.000 OA
BRANCH  23  24
ATOM     24  C   UNL     1       3.729   2.468  17.040  0.00  0.00    +0.000 C 
BRANCH  24  26
ATOM     25  O   UNL     1       4.955   4.142  15.670  0.00  0.00    +0.000 OA
ATOM     26  C   UNL     1       4.687   3.778  16.821  0.00  0.00    +0.000 C 
ATOM     27  N   UNL     1       5.268   4.364  17.947  0.00  0.00    +0.000 N 
ATOM     28  H   UNL     1       5.022   3.953  18.830  0.00  0.00    +0.000 HD
BRANCH  27  29
ATOM     29  C   UNL     1       6.212   5.463  18.016  0.00  0.00    +0.000 A 
ATOM     30  C   UNL     1       6.234   6.606  17.198  0.00  0.00    +0.000 A 
ATOM     31  C   UNL     1       7.208   7.626  17.370  0.00  0.00    +0.000 A 
ATOM     32  C   UNL     1       8.176   7.520  18.356  0.00  0.00    +0.000 A 
ATOM     33  C   UNL     1       8.186   6.407  19.178  0.00  0.00    +0.000 A 
ATOM     34  C   UNL     1       7.213   5.387  19.008  0.00  0.00    +0.000 A 
ENDBRANCH  27  29
ENDBRANCH  24  26
ENDBRANCH  23  24
ENDBRANCH  21  23
ENDBRANCH   1  21
TORSDOF 7
ENDMDL
MODEL 5
REMARK VINA RESULT:      -8.1      4.372      6.761
REMARK  Name = 
REMARK  7 active torsions:
REMARK  status: ('A' for Active; 'I' for Inactive)
REMARK    1  A    between atoms: C_2  and  C_3
REMARK    2  A    between atoms: C_3  and  O_4
REMARK    3  A    between atoms: O_4  and  C_5
REMARK    4  A    between atoms: C_5  and  C_7
REMARK    5  A    between atoms: C_12  and  C_13
REMARK    6  A    between atoms: N_18  and  C_19
REMARK    7  A    between atoms: N_27  and  C_28
REMARK                            x       y       z     vdW  Elec       q    Type
REMARK                         _______ _______ _______ _____ _____    ______ ____
ROOT
ATOM      1  C   UNL     1       6.880   5.222  17.265  0.00  0.00    +0.000 A 
ATOM      2  C   UNL     1       7.380   5.458  15.965  0.00  0.00    +0.000 A 
ATOM      3  C   UNL     1       6.853   4.813  14.833  0.00  0.00    +0.000 A 
ATOM      4  C   UNL     1       5.872   3.848  14.979  0.00  0.00    +0.000 A 
ATOM      5  C   UNL     1       5.339   3.618  16.242  0.00  0.00    +0.000 A 
ATOM      6  C   UNL     1       5.711   4.407  17.352  0.00  0.00    +0.000 A 
ENDROOT
BRANCH   6   7
ATOM      7  C   UNL     1       4.791   4.343  18.529  0.00  0.00    +0.000 C 
ATOM      8  O   UNL     1       5.269   3.816  19.545  0.00  0.00    +0.000 OA
ATOM      9  N   UNL     1       3.461   4.825  18.503  0.00  0.00    +0.000 N 
ATOM     10  C   UNL     1       2.609   4.592  19.674  0.00  0.00    +0.000 C 
ATOM     11  C   UNL     1       2.377   5.905  20.443  0.00  0.00    +0.000 C 
ATOM     12  N   UNL     1       1.704   6.936  19.603  0.00  0.00    +0.000 N 
ATOM     13  C   UNL     1       2.286   7.080  18.239  0.00  0.00    +0.000 C 
ATOM     14  C   UNL     1       2.783   5.764  17.578  0.00  0.00    +0.000 C 
BRANCH  12  15
ATOM     15  C   UNL     1       1.410   8.159  20.274  0.00  0.00    +0.000 A 
ATOM     16  C   UNL     1       1.348   8.267  21.680  0.00  0.00    +0.000 A 
ATOM     17  C   UNL     1       0.962   9.453  22.329  0.00  0.00    +0.000 A 
ATOM     18  C   UNL     1       0.665  10.588  21.589  0.00  0.00    +0.000 A 
ATOM     19  C   UNL     1       0.805  10.547  20.207  0.00  0.00    +0.000 A 
ATOM     20  C   UNL     1       1.186   9.360  19.566  0.00  0.00    +0.000 A 
ENDBRANCH  12  15
ENDBRANCH   6   7
BRANCH   1  21
ATOM     21  C   UNL     1       7.576   6.058  18.335  0.00  0.00    +0.000 C 
ATOM     22  O   UNL     1       7.831   5.543  19.418  0.00  0.00    +0.000 OA
BRANCH  21  23
ATOM     23  O   UNL     1       7.603   7.436  18.128  0.00  0.00    +0.000 OA
BRANCH  23  24
ATOM     24  C   UNL     1       8.717   8.196  18.703  0.00  0.00    +0.000 C 
BRANCH  24  26
ATOM     25  O   UNL     1       8.606  10.567  17.964  0.00  0.00    +0.000 OA
ATOM     26  C   UNL     1       8.877   9.812  18.905  0.00  0.00    +0.000 C 
ATOM     27  N   UNL     1       9.436  10.274  20.099  0.00  0.00    +0.000 N 
ATOM     28  H   UNL     1       9.669   9.567  20.774  0.00  0.00    +0.000 HD
BRANCH  27  29
ATOM     29  C   UNL     1       9.763  11.633  20.485  0.00  0.00    +0.000 A 
ATOM     30  C   UNL     1      10.733  12.463  19.898  0.00  0.00    +0.000 A 
ATOM     31  C   UNL     1      10.956  13.790  20.359  0.00  0.00    +0.000 A 
ATOM     32  C   UNL     1      10.219  14.304  21.415  0.00  0.00    +0.000 A 
ATOM     33  C   UNL     1       9.258  13.513  22.018  0.00  0.00    +0.000 A 
ATOM     34  C   UNL     1       9.033  12.188  21.558  0.00  0.00    +0.000 A 
ENDBRANCH  27  29
ENDBRANCH  24  26
ENDBRANCH  23  24
ENDBRANCH  21  23
ENDBRANCH   1  21
TORSDOF 7
ENDMDL
MODEL 6
REMARK VINA RESULT:      -8.0      1.861      9.098
REMARK  Name = 
REMARK  7 active torsions:
REMARK  status: ('A' for Active; 'I' for Inactive)
REMARK    1  A    between atoms: C_2  and  C_3
REMARK    2  A    between atoms: C_3  and  O_4
REMARK    3  A    between atoms: O_4  and  C_5
REMARK    4  A    between atoms: C_5  and  C_7
REMARK    5  A    between atoms: C_12  and  C_13
REMARK    6  A    between atoms: N_18  and  C_19
REMARK    7  A    between atoms: N_27  and  C_28
REMARK                            x       y       z     vdW  Elec       q    Type
REMARK                         _______ _______ _______ _____ _____    ______ ____
ROOT
ATOM      1  C   UNL     1       2.292   4.939  19.815  0.00  0.00    +0.000 A 
ATOM      2  C   UNL     1       1.131   4.539  20.515  0.00  0.00    +0.000 A 
ATOM      3  C   UNL     1       0.808   3.186  20.715  0.00  0.00    +0.000 A 
ATOM      4  C   UNL     1       1.587   2.195  20.145  0.00  0.00    +0.000 A 
ATOM      5  C   UNL     1       2.752   2.557  19.478  0.00  0.00    +0.000 A 
ATOM      6  C   UNL     1       3.198   3.897  19.452  0.00  0.00    +0.000 A 
ENDROOT
BRANCH   6   7
ATOM      7  C   UNL     1       4.632   4.094  19.078  0.00  0.00    +0.000 C 
ATOM      8  O   UNL     1       5.438   3.360  19.670  0.00  0.00    +0.000 OA
ATOM      9  N   UNL     1       5.064   5.056  18.135  0.00  0.00    +0.000 N 
ATOM     10  C   UNL     1       6.506   5.249  17.942  0.00  0.00    +0.000 C 
ATOM     11  C   UNL     1       6.951   4.675  16.586  0.00  0.00    +0.000 C 
ATOM     12  N   UNL     1       6.259   5.336  15.442  0.00  0.00    +0.000 N 
ATOM     13  C   UNL     1       4.788   5.485  15.630  0.00  0.00    +0.000 C 
ATOM     14  C   UNL     1       4.323   5.788  17.081  0.00  0.00    +0.000 C 
BRANCH  12  15
ATOM     15  C   UNL     1       6.668   4.888  14.152  0.00  0.00    +0.000 A 
ATOM     16  C   UNL     1       7.710   5.498  13.423  0.00  0.00    +0.000 A 
ATOM     17  C   UNL     1       8.041   5.112  12.112  0.00  0.00    +0.000 A 
ATOM     18  C   UNL     1       7.363   4.067  11.502  0.00  0.00    +0.000 A 
ATOM     19  C   UNL     1       6.393   3.381  12.222  0.00  0.00    +0.000 A 
ATOM     20  C   UNL     1       6.065   3.774  13.527  0.00  0.00    +0.000 A 
ENDBRANCH  12  15
ENDBRANCH   6   7
BRANCH   1  21
ATOM     21  C   UNL     1       2.461   6.454  19.753  0.00  0.00    +0.000 C 
ATOM     22  O   UNL     1       2.533   7.086  20.801  0.00  0.00    +0.000 OA
BRANCH  21  23
ATOM     23  O   UNL     1       2.218   7.057  18.521  0.00  0.00    +0.000 OA
BRANCH  23  24
ATOM     24  C   UNL     1       2.092   8.517  18.483  0.00  0.00    +0.000 C 
BRANCH  24  26
ATOM     25  O   UNL     1       0.143  10.059  18.456  0.00  0.00    +0.000 OA
ATOM     26  C   UNL     1       0.966   9.482  19.175  0.00  0.00    +0.000 C 
ATOM     27  N   UNL     1       1.055   9.716  20.549  0.00  0.00    +0.000 N 
ATOM     28  H   UNL     1       1.797   9.236  21.027  0.00  0.00    +0.000 HD
BRANCH  27  29
ATOM     29  C   UNL     1       0.246  10.589  21.378  0.00  0.00    +0.000 A 
ATOM     30  C   UNL     1      -0.657  10.198  22.381  0.00  0.00    +0.000 A 
ATOM     31  C   UNL     1      -1.389  11.153  23.138  0.00  0.00    +0.000 A 
ATOM     32  C   UNL     1      -1.235  12.510  22.901  0.00  0.00    +0.000 A 
ATOM     33  C   UNL     1      -0.357  12.931  21.919  0.00  0.00    +0.000 A 
ATOM     34  C   UNL     1       0.376  11.978  21.163  0.00  0.00    +0.000 A 
ENDBRANCH  27  29
ENDBRANCH  24  26
ENDBRANCH  23  24
ENDBRANCH  21  23
ENDBRANCH   1  21
TORSDOF 7
ENDMDL
MODEL 7
REMARK VINA RESULT:      -8.0      4.461      6.719
REMARK  Name = 
REMARK  7 active torsions:
REMARK  status: ('A' for Active; 'I' for Inactive)
REMARK    1  A    between atoms: C_2  and  C_3
REMARK    2  A    between atoms: C_3  and  O_4
REMARK    3  A    between atoms: O_4  and  C_5
REMARK    4  A    between atoms: C_5  and  C_7
REMARK    5  A    between atoms: C_12  and  C_13
REMARK    6  A    between atoms: N_18  and  C_19
REMARK    7  A    between atoms: N_27  and  C_28
REMARK                            x       y       z     vdW  Elec       q    Type
REMARK                         _______ _______ _______ _____ _____    ______ ____
ROOT
ATOM      1  C   UNL     1       6.938   5.250  17.058  0.00  0.00    +0.000 A 
ATOM      2  C   UNL     1       7.397   5.472  15.740  0.00  0.00    +0.000 A 
ATOM      3  C   UNL     1       6.857   4.789  14.637  0.00  0.00    +0.000 A 
ATOM      4  C   UNL     1       5.907   3.802  14.829  0.00  0.00    +0.000 A 
ATOM      5  C   UNL     1       5.415   3.584  16.109  0.00  0.00    +0.000 A 
ATOM      6  C   UNL     1       5.795   4.406  17.193  0.00  0.00    +0.000 A 
ENDROOT
BRANCH   6   7
ATOM      7  C   UNL     1       4.908   4.343  18.395  0.00  0.00    +0.000 C 
ATOM      8  O   UNL     1       5.423   3.840  19.405  0.00  0.00    +0.000 OA
ATOM      9  N   UNL     1       3.569   4.799  18.399  0.00  0.00    +0.000 N 
ATOM     10  C   UNL     1       2.753   4.568  19.596  0.00  0.00    +0.000 C 
ATOM     11  C   UNL     1       2.517   5.887  20.352  0.00  0.00    +0.000 C 
ATOM     12  N   UNL     1       1.801   6.893  19.516  0.00  0.00    +0.000 N 
ATOM     13  C   UNL     1       2.343   7.027  18.134  0.00  0.00    +0.000 C 
ATOM     14  C   UNL     1       2.848   5.711  17.480  0.00  0.00    +0.000 C 
BRANCH  12  15
ATOM     15  C   UNL     1       1.503   8.120  20.177  0.00  0.00    +0.000 A 
ATOM     16  C   UNL     1       1.473   8.247  21.582  0.00  0.00    +0.000 A 
ATOM     17  C   UNL     1       1.081   9.435  22.224  0.00  0.00    +0.000 A 
ATOM     18  C   UNL     1       0.747  10.553  21.476  0.00  0.00    +0.000 A 
ATOM     19  C   UNL     1       0.853  10.496  20.092  0.00  0.00    +0.000 A 
ATOM     20  C   UNL     1       1.240   9.306  19.458  0.00  0.00    +0.000 A 
ENDBRANCH  12  15
ENDBRANCH   6   7
BRANCH   1  21
ATOM     21  C   UNL     1       7.639   6.126  18.091  0.00  0.00    +0.000 C 
ATOM     22  O   UNL     1       7.754   5.713  19.240  0.00  0.00    +0.000 OA
BRANCH  21  23
ATOM     23  O   UNL     1       7.833   7.462  17.746  0.00  0.00    +0.000 OA
BRANCH  23  24
ATOM     24  C   UNL     1       8.538   8.324  18.699  0.00  0.00    +0.000 C 
BRANCH  24  26
ATOM     25  O   UNL     1       8.363  10.588  17.687  0.00  0.00    +0.000 OA
ATOM     26  C   UNL     1       8.817   9.936  18.633  0.00  0.00    +0.000 C 
ATOM     27  N   UNL     1       9.668  10.495  19.590  0.00  0.00    +0.000 N 
ATOM     28  H   UNL     1      10.023   9.861  20.283  0.00  0.00    +0.000 HD
BRANCH  27  29
ATOM     29  C   UNL     1      10.141  11.862  19.698  0.00  0.00    +0.000 A 
ATOM     30  C   UNL     1       9.377  12.992  20.037  0.00  0.00    +0.000 A 
ATOM     31  C   UNL     1       9.959  14.287  20.122  0.00  0.00    +0.000 A 
ATOM     32  C   UNL     1      11.309  14.472  19.865  0.00  0.00    +0.000 A 
ATOM     33  C   UNL     1      12.089  13.382  19.525  0.00  0.00    +0.000 A 
ATOM     34  C   UNL     1      11.510  12.089  19.441  0.00  0.00    +0.000 A 
ENDBRANCH  27  29
ENDBRANCH  24  26
ENDBRANCH  23  24
ENDBRANCH  21  23
ENDBRANCH   1  21
TORSDOF 7
ENDMDL
MODEL 8
REMARK VINA RESULT:      -7.9      4.302      7.381
REMARK  Name = 
REMARK  7 active torsions:
REMARK  status: ('A' for Active; 'I' for Inactive)
REMARK    1  A    between atoms: C_2  and  C_3
REMARK    2  A    between atoms: C_3  and  O_4
REMARK    3  A    between atoms: O_4  and  C_5
REMARK    4  A    between atoms: C_5  and  C_7
REMARK    5  A    between atoms: C_12  and  C_13
REMARK    6  A    between atoms: N_18  and  C_19
REMARK    7  A    between atoms: N_27  and  C_28
REMARK                            x       y       z     vdW  Elec       q    Type
REMARK                         _______ _______ _______ _____ _____    ______ ____
ROOT
ATOM      1  C   UNL     1      -0.371  10.375  19.311  0.00  0.00    +0.000 A 
ATOM      2  C   UNL     1      -1.183   9.966  18.228  0.00  0.00    +0.000 A 
ATOM      3  C   UNL     1      -2.351  10.658  17.867  0.00  0.00    +0.000 A 
ATOM      4  C   UNL     1      -2.789  11.726  18.631  0.00  0.00    +0.000 A 
ATOM      5  C   UNL     1      -1.995  12.170  19.681  0.00  0.00    +0.000 A 
ATOM      6  C   UNL     1      -0.718  11.617  19.923  0.00  0.00    +0.000 A 
ENDROOT
BRANCH   6   7
ATOM      7  C   UNL     1       0.188  12.433  20.788  0.00  0.00    +0.000 C 
ATOM      8  O   UNL     1       0.376  11.983  21.929  0.00  0.00    +0.000 OA
ATOM      9  N   UNL     1       0.782  13.645  20.366  0.00  0.00    +0.000 N 
ATOM     10  C   UNL     1       1.548  14.427  21.342  0.00  0.00    +0.000 C 
ATOM     11  C   UNL     1       3.054  14.343  21.041  0.00  0.00    +0.000 C 
ATOM     12  N   UNL     1       3.387  14.875  19.688  0.00  0.00    +0.000 N 
ATOM     13  C   UNL     1       2.482  14.390  18.608  0.00  0.00    +0.000 C 
ATOM     14  C   UNL     1       0.992  14.206  19.010  0.00  0.00    +0.000 C 
BRANCH  12  15
ATOM     15  C   UNL     1       4.776  14.876  19.367  0.00  0.00    +0.000 A 
ATOM     16  C   UNL     1       5.786  15.071  20.333  0.00  0.00    +0.000 A 
ATOM     17  C   UNL     1       7.146  15.168  19.993  0.00  0.00    +0.000 A 
ATOM     18  C   UNL     1       7.546  15.030  18.672  0.00  0.00    +0.000 A 
ATOM     19  C   UNL     1       6.590  14.745  17.705  0.00  0.00    +0.000 A 
ATOM     20  C   UNL     1       5.234  14.654  18.050  0.00  0.00    +0.000 A 
ENDBRANCH  12  15
ENDBRANCH   6   7
BRANCH   1  21
ATOM     21  C   UNL     1       0.864   9.499  19.497  0.00  0.00    +0.000 C 
ATOM     22  O   UNL     1       0.965   8.825  20.516  0.00  0.00    +0.000 OA
BRANCH  21  23
ATOM     23  O   UNL     1       1.940   9.751  18.647  0.00  0.00    +0.000 OA
BRANCH  23  24
ATOM     24  C   UNL     1       2.273   8.738  17.641  0.00  0.00    +0.000 C 
BRANCH  24  26
ATOM     25  O   UNL     1       4.195   7.176  17.419  0.00  0.00    +0.000 OA
ATOM     26  C   UNL     1       3.034   7.301  17.826  0.00  0.00    +0.000 C 
ATOM     27  N   UNL     1       2.297   6.226  18.328  0.00  0.00    +0.000 N 
ATOM     28  H   UNL     1       1.345   6.428  18.578  0.00  0.00    +0.000 HD
BRANCH  27  29
ATOM     29  C   UNL     1       2.705   4.845  18.503  0.00  0.00    +0.000 A 
ATOM     30  C   UNL     1       3.562   4.341  19.496  0.00  0.00    +0.000 A 
ATOM     31  C   UNL     1       3.881   2.957  19.571  0.00  0.00    +0.000 A 
ATOM     32  C   UNL     1       3.355   2.060  18.656  0.00  0.00    +0.000 A 
ATOM     33  C   UNL     1       2.509   2.522  17.664  0.00  0.00    +0.000 A 
ATOM     34  C   UNL     1       2.189   3.903  17.587  0.00  0.00    +0.000 A 
ENDBRANCH  27  29
ENDBRANCH  24  26
ENDBRANCH  23  24
ENDBRANCH  21  23
ENDBRANCH   1  21
TORSDOF 7
ENDMDL
MODEL 9
REMARK VINA RESULT:      -7.9      4.192      7.575
REMARK  Name = 
REMARK  7 active torsions:
REMARK  status: ('A' for Active; 'I' for Inactive)
REMARK    1  A    between atoms: C_2  and  C_3
REMARK    2  A    between atoms: C_3  and  O_4
REMARK    3  A    between atoms: O_4  and  C_5
REMARK    4  A    between atoms: C_5  and  C_7
REMARK    5  A    between atoms: C_12  and  C_13
REMARK    6  A    between atoms: N_18  and  C_19
REMARK    7  A    between atoms: N_27  and  C_28
REMARK                            x       y       z     vdW  Elec       q    Type
REMARK                         _______ _______ _______ _____ _____    ______ ____
ROOT
ATOM      1  C   UNL     1      -0.413  10.355  18.923  0.00  0.00    +0.000 A 
ATOM      2  C   UNL     1      -1.247  10.032  17.829  0.00  0.00    +0.000 A 
ATOM      3  C   UNL     1      -2.451  10.713  17.582  0.00  0.00    +0.000 A 
ATOM      4  C   UNL     1      -2.899  11.675  18.470  0.00  0.00    +0.000 A 
ATOM      5  C   UNL     1      -2.085  12.035  19.536  0.00  0.00    +0.000 A 
ATOM      6  C   UNL     1      -0.782  11.510  19.677  0.00  0.00    +0.000 A 
ENDROOT
BRANCH   6   7
ATOM      7  C   UNL     1       0.125  12.264  20.596  0.00  0.00    +0.000 C 
ATOM      8  O   UNL     1       0.332  11.725  21.694  0.00  0.00    +0.000 OA
ATOM      9  N   UNL     1       0.701  13.514  20.267  0.00  0.00    +0.000 N 
ATOM     10  C   UNL     1       1.469  14.223  21.296  0.00  0.00    +0.000 C 
ATOM     11  C   UNL     1       2.972  14.182  20.972  0.00  0.00    +0.000 C 
ATOM     12  N   UNL     1       3.283  14.827  19.664  0.00  0.00    +0.000 N 
ATOM     13  C   UNL     1       2.372  14.420  18.558  0.00  0.00    +0.000 C 
ATOM     14  C   UNL     1       0.889  14.186  18.960  0.00  0.00    +0.000 C 
BRANCH  12  15
ATOM     15  C   UNL     1       4.668  14.870  19.330  0.00  0.00    +0.000 A 
ATOM     16  C   UNL     1       5.145  14.709  18.012  0.00  0.00    +0.000 A 
ATOM     17  C   UNL     1       6.516  14.656  17.706  0.00  0.00    +0.000 A 
ATOM     18  C   UNL     1       7.460  14.806  18.711  0.00  0.00    +0.000 A 
ATOM     19  C   UNL     1       7.030  15.059  20.008  0.00  0.00    +0.000 A 
ATOM     20  C   UNL     1       5.661  15.107  20.306  0.00  0.00    +0.000 A 
ENDBRANCH  12  15
ENDBRANCH   6   7
BRANCH   1  21
ATOM     21  C   UNL     1       0.859   9.513  18.975  0.00  0.00    +0.000 C 
ATOM     22  O   UNL     1       1.407   9.333  20.057  0.00  0.00    +0.000 OA
BRANCH  21  23
ATOM     23  O   UNL     1       1.487   9.259  17.758  0.00  0.00    +0.000 OA
BRANCH  23  24
ATOM     24  C   UNL     1       2.742   8.503  17.776  0.00  0.00    +0.000 C 
BRANCH  24  26
ATOM     25  O   UNL     1       4.157   6.486  18.109  0.00  0.00    +0.000 OA
ATOM     26  C   UNL     1       3.009   6.939  18.181  0.00  0.00    +0.000 C 
ATOM     27  N   UNL     1       1.903   6.139  18.476  0.00  0.00    +0.000 N 
ATOM     28  H   UNL     1       1.011   6.600  18.452  0.00  0.00    +0.000 HD
BRANCH  27  29
ATOM     29  C   UNL     1       1.862   4.719  18.773  0.00  0.00    +0.000 A 
ATOM     30  C   UNL     1       1.512   4.127  19.999  0.00  0.00    +0.000 A 
ATOM     31  C   UNL     1       1.498   2.715  20.166  0.00  0.00    +0.000 A 
ATOM     32  C   UNL     1       1.836   1.876  19.116  0.00  0.00    +0.000 A 
ATOM     33  C   UNL     1       2.187   2.425  17.897  0.00  0.00    +0.000 A 
ATOM     34  C   UNL     1       2.202   3.835  17.727  0.00  0.00    +0.000 A 
ENDBRANCH  27  29
ENDBRANCH  24  26
ENDBRANCH  23  24
ENDBRANCH  21  23
ENDBRANCH   1  21
TORSDOF 7
ENDMDL
