MODEL 1
REMARK VINA RESULT:      -7.5      0.000      0.000
REMARK  Name = 
REMARK  8 active torsions:
REMARK  status: ('A' for Active; 'I' for Inactive)
REMARK    1  A    between atoms: C_1  and  O_2
REMARK    2  A    between atoms: O_2  and  C_3
REMARK    3  A    between atoms: C_5  and  C_6
REMARK    4  A    between atoms: C_6  and  C_7
REMARK    5  A    between atoms: C_6  and  O_8
REMARK    6  A    between atoms: N_10  and  C_11
REMARK    7  A    between atoms: C_11  and  C_12
REMARK    8  A    between atoms: C_12  and  C_13
REMARK                            x       y       z     vdW  Elec       q    Type
REMARK                         _______ _______ _______ _____ _____    ______ ____
ROOT
ATOM      1  C   UNL     1       7.180   5.037  17.564  0.00  0.00    +0.000 A 
ATOM      2  C   UNL     1       7.432   4.539  16.292  0.00  0.00    +0.000 A 
ATOM      3  C   UNL     1       6.563   4.838  15.240  0.00  0.00    +0.000 A 
ATOM      4  C   UNL     1       5.442   5.618  15.507  0.00  0.00    +0.000 A 
ATOM      5  N   UNL     1       5.230   6.131  16.741  0.00  0.00    +0.000 N 
ATOM      6  C   UNL     1       6.067   5.838  17.762  0.00  0.00    +0.000 A 
ENDROOT
BRANCH   1   8
ATOM      7  C   UNL     1       7.735   5.663  19.768  0.00  0.00    +0.000 C 
ATOM      8  O   UNL     1       7.917   4.756  18.675  0.00  0.00    +0.000 OA
ENDBRANCH   1   8
BRANCH   3   9
ATOM      9  C   UNL     1       6.807   4.309  13.849  0.00  0.00    +0.000 C 
ATOM     10  C   UNL     1       5.524   3.921  13.125  0.00  0.00    +0.000 C 
BRANCH   9  11
ATOM     11  O   UNL     1       7.520   5.315  13.143  0.00  0.00    +0.000 OA
ATOM     12  H   UNL     1       8.082   4.883  12.474  0.00  0.00    +0.000 HD
ENDBRANCH   9  11
ENDBRANCH   3   9
BRANCH   5  13
ATOM     13  C   UNL     1       4.040   6.965  16.997  0.00  0.00    +0.000 C 
BRANCH  13  14
ATOM     14  C   UNL     1       3.570   6.858  18.451  0.00  0.00    +0.000 C 
BRANCH  14  15
ATOM     15  C   UNL     1       2.329   6.004  18.782  0.00  0.00    +0.000 C 
ATOM     16  C   UNL     1       1.956   6.089  20.283  0.00  0.00    +0.000 C 
ATOM     17  N   UNL     1       1.195   4.890  20.637  0.00  0.00    +0.000 N 
ATOM     18  C   UNL     1       1.753   3.931  19.739  0.00  0.00    +0.000 A 
ATOM     19  C   UNL     1       1.594   2.564  19.874  0.00  0.00    +0.000 A 
ATOM     20  C   UNL     1       2.000   1.748  18.824  0.00  0.00    +0.000 A 
ATOM     21  C   UNL     1       2.466   2.325  17.630  0.00  0.00    +0.000 A 
ATOM     22  C   UNL     1       2.635   3.711  17.515  0.00  0.00    +0.000 A 
ATOM     23  C   UNL     1       2.325   4.514  18.599  0.00  0.00    +0.000 A 
ATOM     24  H   UNL     1       0.213   4.998  20.355  0.00  0.00    +0.000 HD
ENDBRANCH  14  15
ENDBRANCH  13  14
ENDBRANCH   5  13
TORSDOF 6
ENDMDL
MODEL 2
REMARK VINA RESULT:      -7.4      1.757      4.376
REMARK  Name = 
REMARK  8 active torsions:
REMARK  status: ('A' for Active; 'I' for Inactive)
REMARK    1  A    between atoms: C_1  and  O_2
REMARK    2  A    between atoms: O_2  and  C_3
REMARK    3  A    between atoms: C_5  and  C_6
REMARK    4  A    between atoms: C_6  and  C_7
REMARK    5  A    between atoms: C_6  and  O_8
REMARK    6  A    between atoms: N_10  and  C_11
REMARK    7  A    between atoms: C_11  and  C_12
REMARK    8  A    between atoms: C_12  and  C_13
REMARK                            x       y       z     vdW  Elec       q    Type
REMARK                         _______ _______ _______ _____ _____    ______ ____
ROOT
ATOM      1  C   UNL     1       5.626   4.458  15.890  0.00  0.00    +0.000 A 
ATOM      2  C   UNL     1       6.676   5.086  16.545  0.00  0.00    +0.000 A 
ATOM      3  C   UNL     1       6.746   5.062  17.940  0.00  0.00    +0.000 A 
ATOM      4  C   UNL     1       5.732   4.418  18.642  0.00  0.00    +0.000 A 
ATOM      5  N   UNL     1       4.736   3.774  17.992  0.00  0.00    +0.000 N 
ATOM      6  C   UNL     1       4.664   3.802  16.642  0.00  0.00    +0.000 A 
ENDROOT
BRANCH   1   8
ATOM      7  C   UNL     1       6.562   4.141  13.749  0.00  0.00    +0.000 C 
ATOM      8  O   UNL     1       5.419   4.476  14.543  0.00  0.00    +0.000 OA
ENDBRANCH   1   8
BRANCH   3   9
ATOM      9  C   UNL     1       7.872   5.738  18.679  0.00  0.00    +0.000 C 
ATOM     10  C   UNL     1       8.011   7.215  18.332  0.00  0.00    +0.000 C 
BRANCH   9  11
ATOM     11  O   UNL     1       7.630   5.549  20.066  0.00  0.00    +0.000 OA
ATOM     12  H   UNL     1       8.015   4.694  20.333  0.00  0.00    +0.000 HD
ENDBRANCH   9  11
ENDBRANCH   3   9
BRANCH   5  13
ATOM     13  C   UNL     1       3.678   3.089  18.759  0.00  0.00    +0.000 C 
BRANCH  13  14
ATOM     14  C   UNL     1       2.476   4.004  19.017  0.00  0.00    +0.000 C 
BRANCH  14  15
ATOM     15  C   UNL     1       2.687   5.335  19.765  0.00  0.00    +0.000 C 
ATOM     16  C   UNL     1       1.668   5.515  20.918  0.00  0.00    +0.000 C 
ATOM     17  N   UNL     1       1.535   6.946  21.195  0.00  0.00    +0.000 N 
ATOM     18  C   UNL     1       1.781   7.504  19.904  0.00  0.00    +0.000 A 
ATOM     19  C   UNL     1       1.472   8.806  19.555  0.00  0.00    +0.000 A 
ATOM     20  C   UNL     1       1.953   9.294  18.345  0.00  0.00    +0.000 A 
ATOM     21  C   UNL     1       2.806   8.499  17.560  0.00  0.00    +0.000 A 
ATOM     22  C   UNL     1       3.096   7.176  17.920  0.00  0.00    +0.000 A 
ATOM     23  C   UNL     1       2.534   6.660  19.075  0.00  0.00    +0.000 A 
ATOM     24  H   UNL     1       2.310   7.266  21.788  0.00  0.00    +0.000 HD
ENDBRANCH  14  15
ENDBRANCH  13  14
ENDBRANCH   5  13
TORSDOF 6
ENDMDL
MODEL 3
REMARK VINA RESULT:      -7.1      1.291      1.999
REMARK  Name = 
REMARK  8 active torsions:
REMARK  status: ('A' for Active; 'I' for Inactive)
REMARK    1  A    between atoms: C_1  and  O_2
REMARK    2  A    between atoms: O_2  and  C_3
REMARK    3  A    between atoms: C_5  and  C_6
REMARK    4  A    between atoms: C_6  and  C_7
REMARK    5  A    between atoms: C_6  and  O_8
REMARK    6  A    between atoms: N_10  and  C_11
REMARK    7  A    between atoms: C_11  and  C_12
REMARK    8  A    between atoms: C_12  and  C_13
REMARK                            x       y       z     vdW  Elec       q    Type
REMARK                         _______ _______ _______ _____ _____    ______ ____
ROOT
ATOM      1  C   UNL     1       7.197   5.124  17.553  0.00  0.00    +0.000 A 
ATOM      2  C   UNL     1       7.303   4.702  16.234  0.00  0.00    +0.000 A 
ATOM      3  C   UNL     1       6.328   5.067  15.302  0.00  0.00    +0.000 A 
ATOM      4  C   UNL     1       5.253   5.836  15.736  0.00  0.00    +0.000 A 
ATOM      5  N   UNL     1       5.182   6.276  17.013  0.00  0.00    +0.000 N 
ATOM      6  C   UNL     1       6.121   5.918  17.918  0.00  0.00    +0.000 A 
ENDROOT
BRANCH   1   8
ATOM      7  C   UNL     1       7.887   5.515  19.773  0.00  0.00    +0.000 C 
ATOM      8  O   UNL     1       8.046   4.774  18.558  0.00  0.00    +0.000 OA
ENDBRANCH   1   8
BRANCH   3   9
ATOM      9  C   UNL     1       6.414   4.622  13.865  0.00  0.00    +0.000 C 
ATOM     10  C   UNL     1       7.655   5.144  13.152  0.00  0.00    +0.000 C 
BRANCH   9  11
ATOM     11  O   UNL     1       6.372   3.201  13.868  0.00  0.00    +0.000 OA
ATOM     12  H   UNL     1       5.911   2.908  14.674  0.00  0.00    +0.000 HD
ENDBRANCH   9  11
ENDBRANCH   3   9
BRANCH   5  13
ATOM     13  C   UNL     1       4.037   7.099  17.446  0.00  0.00    +0.000 C 
BRANCH  13  14
ATOM     14  C   UNL     1       2.820   6.240  17.808  0.00  0.00    +0.000 C 
BRANCH  14  15
ATOM     15  C   UNL     1       3.025   4.756  18.172  0.00  0.00    +0.000 C 
ATOM     16  C   UNL     1       2.325   3.814  17.161  0.00  0.00    +0.000 C 
ATOM     17  N   UNL     1       2.066   2.536  17.826  0.00  0.00    +0.000 N 
ATOM     18  C   UNL     1       1.885   2.959  19.178  0.00  0.00    +0.000 A 
ATOM     19  C   UNL     1       1.313   2.172  20.162  0.00  0.00    +0.000 A 
ATOM     20  C   UNL     1       1.387   2.610  21.479  0.00  0.00    +0.000 A 
ATOM     21  C   UNL     1       2.113   3.774  21.789  0.00  0.00    +0.000 A 
ATOM     22  C   UNL     1       2.673   4.567  20.779  0.00  0.00    +0.000 A 
ATOM     23  C   UNL     1       2.510   4.182  19.460  0.00  0.00    +0.000 A 
ATOM     24  H   UNL     1       2.914   1.958  17.827  0.00  0.00    +0.000 HD
ENDBRANCH  14  15
ENDBRANCH  13  14
ENDBRANCH   5  13
TORSDOF 6
ENDMDL
MODEL 4
REMARK VINA RESULT:      -7.1      5.204      7.483
REMARK  Name = 
REMARK  8 active torsions:
REMARK  status: ('A' for Active; 'I' for Inactive)
REMARK    1  A    between atoms: C_1  and  O_2
REMARK    2  A    between atoms: O_2  and  C_3
REMARK    3  A    between atoms: C_5  and  C_6
REMARK    4  A    between atoms: C_6  and  C_7
REMARK    5  A    between atoms: C_6  and  O_8
REMARK    6  A    between atoms: N_10  and  C_11
REMARK    7  A    between atoms: C_11  and  C_12
REMARK    8  A    between atoms: C_12  and  C_13
REMARK                            x       y       z     vdW  Elec       q    Type
REMARK                         _______ _______ _______ _____ _____    ______ ____
ROOT
ATOM      1  C   UNL     1      -0.077  10.838  20.900  0.00  0.00    +0.000 A 
ATOM      2  C   UNL     1      -1.009  11.314  19.989  0.00  0.00    +0.000 A 
ATOM      3  C   UNL     1      -0.977  10.878  18.662  0.00  0.00    +0.000 A 
ATOM      4  C   UNL     1       0.017   9.981  18.284  0.00  0.00    +0.000 A 
ATOM      5  N   UNL     1       0.895   9.492  19.190  0.00  0.00    +0.000 N 
ATOM      6  C   UNL     1       0.870   9.919  20.473  0.00  0.00    +0.000 A 
ENDROOT
BRANCH   1   8
ATOM      7  C   UNL     1      -1.148  11.064  22.988  0.00  0.00    +0.000 C 
ATOM      8  O   UNL     1       0.031  11.243  22.196  0.00  0.00    +0.000 OA
ENDBRANCH   1   8
BRANCH   3   9
ATOM      9  C   UNL     1      -1.974  11.379  17.649  0.00  0.00    +0.000 C 
ATOM     10  C   UNL     1      -3.361  11.605  18.239  0.00  0.00    +0.000 C 
BRANCH   9  11
ATOM     11  O   UNL     1      -1.440  12.576  17.099  0.00  0.00    +0.000 OA
ATOM     12  H   UNL     1      -1.163  13.155  17.832  0.00  0.00    +0.000 HD
ENDBRANCH   9  11
ENDBRANCH   3   9
BRANCH   5  13
ATOM     13  C   UNL     1       1.934   8.535  18.766  0.00  0.00    +0.000 C 
BRANCH  13  14
ATOM     14  C   UNL     1       2.212   7.481  19.843  0.00  0.00    +0.000 C 
BRANCH  14  15
ATOM     15  C   UNL     1       2.887   6.153  19.443  0.00  0.00    +0.000 C 
ATOM     16  C   UNL     1       3.422   6.194  17.990  0.00  0.00    +0.000 C 
ATOM     17  N   UNL     1       3.514   4.820  17.494  0.00  0.00    +0.000 N 
ATOM     18  C   UNL     1       2.452   4.193  18.212  0.00  0.00    +0.000 A 
ATOM     19  C   UNL     1       1.918   2.962  17.879  0.00  0.00    +0.000 A 
ATOM     20  C   UNL     1       1.039   2.362  18.775  0.00  0.00    +0.000 A 
ATOM     21  C   UNL     1       0.792   2.965  20.021  0.00  0.00    +0.000 A 
ATOM     22  C   UNL     1       1.329   4.221  20.336  0.00  0.00    +0.000 A 
ATOM     23  C   UNL     1       2.122   4.862  19.400  0.00  0.00    +0.000 A 
ATOM     24  H   UNL     1       4.377   4.379  17.833  0.00  0.00    +0.000 HD
ENDBRANCH  14  15
ENDBRANCH  13  14
ENDBRANCH   5  13
TORSDOF 6
ENDMDL
MODEL 5
REMARK VINA RESULT:      -7.1      1.341      3.752
REMARK  Name = 
REMARK  8 active torsions:
REMARK  status: ('A' for Active; 'I' for Inactive)
REMARK    1  A    between atoms: C_1  and  O_2
REMARK    2  A    between atoms: O_2  and  C_3
REMARK    3  A    between atoms: C_5  and  C_6
REMARK    4  A    between atoms: C_6  and  C_7
REMARK    5  A    between atoms: C_6  and  O_8
REMARK    6  A    between atoms: N_10  and  C_11
REMARK    7  A    between atoms: C_11  and  C_12
REMARK    8  A    between atoms: C_12  and  C_13
REMARK                            x       y       z     vdW  Elec       q    Type
REMARK                         _______ _______ _______ _____ _____    ______ ____
ROOT
ATOM      1  C   UNL     1       6.695   4.869  15.173  0.00  0.00    +0.000 A 
ATOM      2  C   UNL     1       7.418   5.385  16.240  0.00  0.00    +0.000 A 
ATOM      3  C   UNL     1       7.021   5.113  17.552  0.00  0.00    +0.000 A 
ATOM      4  C   UNL     1       5.881   4.340  17.751  0.00  0.00    +0.000 A 
ATOM      5  N   UNL     1       5.208   3.809  16.705  0.00  0.00    +0.000 N 
ATOM      6  C   UNL     1       5.588   4.076  15.435  0.00  0.00    +0.000 A 
ENDROOT
BRANCH   1   8
ATOM      7  C   UNL     1       6.661   4.041  12.966  0.00  0.00    +0.000 C 
ATOM      8  O   UNL     1       6.948   5.123  13.859  0.00  0.00    +0.000 OA
ENDBRANCH   1   8
BRANCH   3   9
ATOM      9  C   UNL     1       7.784   5.661  18.730  0.00  0.00    +0.000 C 
ATOM     10  C   UNL     1       8.112   7.143  18.590  0.00  0.00    +0.000 C 
BRANCH   9  11
ATOM     11  O   UNL     1       6.998   5.408  19.887  0.00  0.00    +0.000 OA
ATOM     12  H   UNL     1       6.760   6.262  20.291  0.00  0.00    +0.000 HD
ENDBRANCH   9  11
ENDBRANCH   3   9
BRANCH   5  13
ATOM     13  C   UNL     1       4.009   2.984  16.943  0.00  0.00    +0.000 C 
BRANCH  13  14
ATOM     14  C   UNL     1       2.717   3.759  16.661  0.00  0.00    +0.000 C 
BRANCH  14  15
ATOM     15  C   UNL     1       1.980   4.446  17.827  0.00  0.00    +0.000 C 
ATOM     16  C   UNL     1       2.597   5.826  18.165  0.00  0.00    +0.000 C 
ATOM     17  N   UNL     1       2.269   6.150  19.554  0.00  0.00    +0.000 N 
ATOM     18  C   UNL     1       2.208   4.849  20.136  0.00  0.00    +0.000 A 
ATOM     19  C   UNL     1       2.231   4.611  21.498  0.00  0.00    +0.000 A 
ATOM     20  C   UNL     1       1.950   3.325  21.946  0.00  0.00    +0.000 A 
ATOM     21  C   UNL     1       1.561   2.334  21.028  0.00  0.00    +0.000 A 
ATOM     22  C   UNL     1       1.558   2.587  19.650  0.00  0.00    +0.000 A 
ATOM     23  C   UNL     1       1.936   3.840  19.200  0.00  0.00    +0.000 A 
ATOM     24  H   UNL     1       1.315   6.527  19.614  0.00  0.00    +0.000 HD
ENDBRANCH  14  15
ENDBRANCH  13  14
ENDBRANCH   5  13
TORSDOF 6
ENDMDL
MODEL 6
REMARK VINA RESULT:      -7.1      1.767      3.370
REMARK  Name = 
REMARK  8 active torsions:
REMARK  status: ('A' for Active; 'I' for Inactive)
REMARK    1  A    between atoms: C_1  and  O_2
REMARK    2  A    between atoms: O_2  and  C_3
REMARK    3  A    between atoms: C_5  and  C_6
REMARK    4  A    between atoms: C_6  and  C_7
REMARK    5  A    between atoms: C_6  and  O_8
REMARK    6  A    between atoms: N_10  and  C_11
REMARK    7  A    between atoms: C_11  and  C_12
REMARK    8  A    between atoms: C_12  and  C_13
REMARK                            x       y       z     vdW  Elec       q    Type
REMARK                         _______ _______ _______ _____ _____    ______ ____
ROOT
ATOM      1  C   UNL     1       7.029   5.223  17.342  0.00  0.00    +0.000 A 
ATOM      2  C   UNL     1       7.202   5.108  15.970  0.00  0.00    +0.000 A 
ATOM      3  C   UNL     1       6.197   4.538  15.183  0.00  0.00    +0.000 A 
ATOM      4  C   UNL     1       5.046   4.075  15.813  0.00  0.00    +0.000 A 
ATOM      5  N   UNL     1       4.872   4.230  17.146  0.00  0.00    +0.000 N 
ATOM      6  C   UNL     1       5.846   4.775  17.909  0.00  0.00    +0.000 A 
ENDROOT
BRANCH   1   8
ATOM      7  C   UNL     1       7.606   5.605  19.596  0.00  0.00    +0.000 C 
ATOM      8  O   UNL     1       7.964   5.696  18.213  0.00  0.00    +0.000 OA
ENDBRANCH   1   8
BRANCH   3   9
ATOM      9  C   UNL     1       6.357   4.396  13.691  0.00  0.00    +0.000 C 
ATOM     10  C   UNL     1       7.639   5.031  13.166  0.00  0.00    +0.000 C 
BRANCH   9  11
ATOM     11  O   UNL     1       6.305   3.007  13.399  0.00  0.00    +0.000 OA
ATOM     12  H   UNL     1       5.677   2.586  14.013  0.00  0.00    +0.000 HD
ENDBRANCH   9  11
ENDBRANCH   3   9
BRANCH   5  13
ATOM     13  C   UNL     1       3.638   3.740  17.789  0.00  0.00    +0.000 C 
BRANCH  13  14
ATOM     14  C   UNL     1       2.594   4.852  17.942  0.00  0.00    +0.000 C 
BRANCH  14  15
ATOM     15  C   UNL     1       2.818   5.958  18.992  0.00  0.00    +0.000 C 
ATOM     16  C   UNL     1       2.127   5.623  20.337  0.00  0.00    +0.000 C 
ATOM     17  N   UNL     1       1.885   6.875  21.055  0.00  0.00    +0.000 N 
ATOM     18  C   UNL     1       1.703   7.786  19.971  0.00  0.00    +0.000 A 
ATOM     19  C   UNL     1       1.144   9.044  20.106  0.00  0.00    +0.000 A 
ATOM     20  C   UNL     1       1.217   9.916  19.025  0.00  0.00    +0.000 A 
ATOM     21  C   UNL     1       1.929   9.541  17.872  0.00  0.00    +0.000 A 
ATOM     22  C   UNL     1       2.476   8.257  17.746  0.00  0.00    +0.000 A 
ATOM     23  C   UNL     1       2.314   7.357  18.784  0.00  0.00    +0.000 A 
ATOM     24  H   UNL     1       2.740   7.180  21.534  0.00  0.00    +0.000 HD
ENDBRANCH  14  15
ENDBRANCH  13  14
ENDBRANCH   5  13
TORSDOF 6
ENDMDL
MODEL 7
REMARK VINA RESULT:      -7.0      3.103      6.832
REMARK  Name = 
REMARK  8 active torsions:
REMARK  status: ('A' for Active; 'I' for Inactive)
REMARK    1  A    between atoms: C_1  and  O_2
REMARK    2  A    between atoms: O_2  and  C_3
REMARK    3  A    between atoms: C_5  and  C_6
REMARK    4  A    between atoms: C_6  and  C_7
REMARK    5  A    between atoms: C_6  and  O_8
REMARK    6  A    between atoms: N_10  and  C_11
REMARK    7  A    between atoms: C_11  and  C_12
REMARK    8  A    between atoms: C_12  and  C_13
REMARK                            x       y       z     vdW  Elec       q    Type
REMARK                         _______ _______ _______ _____ _____    ______ ____
ROOT
ATOM      1  C   UNL     1       1.677   3.513  20.092  0.00  0.00    +0.000 A 
ATOM      2  C   UNL     1       1.709   4.888  20.277  0.00  0.00    +0.000 A 
ATOM      3  C   UNL     1       2.519   5.685  19.464  0.00  0.00    +0.000 A 
ATOM      4  C   UNL     1       3.297   5.063  18.492  0.00  0.00    +0.000 A 
ATOM      5  N   UNL     1       3.226   3.727  18.294  0.00  0.00    +0.000 N 
ATOM      6  C   UNL     1       2.448   2.954  19.084  0.00  0.00    +0.000 A 
ENDROOT
BRANCH   1   8
ATOM      7  C   UNL     1       1.454   2.505  22.212  0.00  0.00    +0.000 C 
ATOM      8  O   UNL     1       0.981   2.633  20.866  0.00  0.00    +0.000 OA
ENDBRANCH   1   8
BRANCH   3   9
ATOM      9  C   UNL     1       2.578   7.180  19.643  0.00  0.00    +0.000 C 
ATOM     10  C   UNL     1       2.163   7.947  18.393  0.00  0.00    +0.000 C 
BRANCH   9  11
ATOM     11  O   UNL     1       1.745   7.498  20.750  0.00  0.00    +0.000 OA
ATOM     12  H   UNL     1       0.831   7.242  20.532  0.00  0.00    +0.000 HD
ENDBRANCH   9  11
ENDBRANCH   3   9
BRANCH   5  13
ATOM     13  C   UNL     1       4.053   3.093  17.250  0.00  0.00    +0.000 C 
BRANCH  13  14
ATOM     14  C   UNL     1       4.452   4.088  16.155  0.00  0.00    +0.000 C 
BRANCH  14  15
ATOM     15  C   UNL     1       5.916   4.134  15.674  0.00  0.00    +0.000 C 
ATOM     16  C   UNL     1       6.619   5.449  16.096  0.00  0.00    +0.000 C 
ATOM     17  N   UNL     1       7.734   5.689  15.179  0.00  0.00    +0.000 N 
ATOM     18  C   UNL     1       7.242   5.092  13.980  0.00  0.00    +0.000 A 
ATOM     19  C   UNL     1       7.786   5.315  12.728  0.00  0.00    +0.000 A 
ATOM     20  C   UNL     1       7.359   4.515  11.674  0.00  0.00    +0.000 A 
ATOM     21  C   UNL     1       6.472   3.451  11.918  0.00  0.00    +0.000 A 
ATOM     22  C   UNL     1       5.919   3.249  13.189  0.00  0.00    +0.000 A 
ATOM     23  C   UNL     1       6.268   4.111  14.214  0.00  0.00    +0.000 A 
ATOM     24  H   UNL     1       8.548   5.128  15.456  0.00  0.00    +0.000 HD
ENDBRANCH  14  15
ENDBRANCH  13  14
ENDBRANCH   5  13
TORSDOF 6
ENDMDL
MODEL 8
REMARK VINA RESULT:      -6.9      3.457      5.245
REMARK  Name = 
REMARK  8 active torsions:
REMARK  status: ('A' for Active; 'I' for Inactive)
REMARK    1  A    between atoms: C_1  and  O_2
REMARK    2  A    between atoms: O_2  and  C_3
REMARK    3  A    between atoms: C_5  and  C_6
REMARK    4  A    between atoms: C_6  and  C_7
REMARK    5  A    between atoms: C_6  and  O_8
REMARK    6  A    between atoms: N_10  and  C_11
REMARK    7  A    between atoms: C_11  and  C_12
REMARK    8  A    between atoms: C_12  and  C_13
REMARK                            x       y       z     vdW  Elec       q    Type
REMARK                         _______ _______ _______ _____ _____    ______ ____
ROOT
ATOM      1  C   UNL     1       3.385   3.926  17.393  0.00  0.00    +0.000 A 
ATOM      2  C   UNL     1       4.545   3.674  16.674  0.00  0.00    +0.000 A 
ATOM      3  C   UNL     1       5.378   4.730  16.297  0.00  0.00    +0.000 A 
ATOM      4  C   UNL     1       5.001   6.025  16.640  0.00  0.00    +0.000 A 
ATOM      5  N   UNL     1       3.889   6.255  17.376  0.00  0.00    +0.000 N 
ATOM      6  C   UNL     1       3.079   5.234  17.736  0.00  0.00    +0.000 A 
ENDROOT
BRANCH   1   8
ATOM      7  C   UNL     1       1.462   3.439  18.668  0.00  0.00    +0.000 C 
ATOM      8  O   UNL     1       2.466   2.986  17.754  0.00  0.00    +0.000 OA
ENDBRANCH   1   8
BRANCH   3   9
ATOM      9  C   UNL     1       6.643   4.489  15.514  0.00  0.00    +0.000 C 
ATOM     10  C   UNL     1       6.380   4.043  14.080  0.00  0.00    +0.000 C 
BRANCH   9  11
ATOM     11  O   UNL     1       7.394   5.694  15.556  0.00  0.00    +0.000 OA
ATOM     12  H   UNL     1       8.181   5.587  14.992  0.00  0.00    +0.000 HD
ENDBRANCH   9  11
ENDBRANCH   3   9
BRANCH   5  13
ATOM     13  C   UNL     1       3.517   7.636  17.735  0.00  0.00    +0.000 C 
BRANCH  13  14
ATOM     14  C   UNL     1       2.378   7.672  18.760  0.00  0.00    +0.000 C 
BRANCH  14  15
ATOM     15  C   UNL     1       1.341   8.811  18.697  0.00  0.00    +0.000 C 
ATOM     16  C   UNL     1       1.900  10.057  17.965  0.00  0.00    +0.000 C 
ATOM     17  N   UNL     1       1.150  11.230  18.417  0.00  0.00    +0.000 N 
ATOM     18  C   UNL     1       0.816  10.850  19.751  0.00  0.00    +0.000 A 
ATOM     19  C   UNL     1       0.370  11.734  20.717  0.00  0.00    +0.000 A 
ATOM     20  C   UNL     1      -0.125  11.214  21.907  0.00  0.00    +0.000 A 
ATOM     21  C   UNL     1      -0.250   9.822  22.063  0.00  0.00    +0.000 A 
ATOM     22  C   UNL     1       0.220   8.940  21.081  0.00  0.00    +0.000 A 
ATOM     23  C   UNL     1       0.806   9.460  19.940  0.00  0.00    +0.000 A 
ATOM     24  H   UNL     1       0.257  11.296  17.914  0.00  0.00    +0.000 HD
ENDBRANCH  14  15
ENDBRANCH  13  14
ENDBRANCH   5  13
TORSDOF 6
ENDMDL
MODEL 9
REMARK VINA RESULT:      -6.8      3.993      6.571
REMARK  Name = 
REMARK  8 active torsions:
REMARK  status: ('A' for Active; 'I' for Inactive)
REMARK    1  A    between atoms: C_1  and  O_2
REMARK    2  A    between atoms: O_2  and  C_3
REMARK    3  A    between atoms: C_5  and  C_6
REMARK    4  A    between atoms: C_6  and  C_7
REMARK    5  A    between atoms: C_6  and  O_8
REMARK    6  A    between atoms: N_10  and  C_11
REMARK    7  A    between atoms: C_11  and  C_12
REMARK    8  A    between atoms: C_12  and  C_13
REMARK                            x       y       z     vdW  Elec       q    Type
REMARK                         _______ _______ _______ _____ _____    ______ ____
ROOT
ATOM      1  C   UNL     1       4.760   4.384  19.098  0.00  0.00    +0.000 A 
ATOM      2  C   UNL     1       3.894   3.421  19.600  0.00  0.00    +0.000 A 
ATOM      3  C   UNL     1       2.548   3.731  19.808  0.00  0.00    +0.000 A 
ATOM      4  C   UNL     1       2.114   5.022  19.522  0.00  0.00    +0.000 A 
ATOM      5  N   UNL     1       2.957   5.939  18.995  0.00  0.00    +0.000 N 
ATOM      6  C   UNL     1       4.261   5.643  18.800  0.00  0.00    +0.000 A 
ENDROOT
BRANCH   1   8
ATOM      7  C   UNL     1       6.617   4.723  17.686  0.00  0.00    +0.000 C 
ATOM      8  O   UNL     1       6.100   4.217  18.922  0.00  0.00    +0.000 OA
ENDBRANCH   1   8
BRANCH   3   9
ATOM      9  C   UNL     1       1.584   2.708  20.354  0.00  0.00    +0.000 C 
ATOM     10  C   UNL     1       1.694   2.534  21.864  0.00  0.00    +0.000 C 
BRANCH   9  11
ATOM     11  O   UNL     1       0.280   3.120  19.969  0.00  0.00    +0.000 OA
ATOM     12  H   UNL     1       0.347   3.990  19.536  0.00  0.00    +0.000 HD
ENDBRANCH   9  11
ENDBRANCH   3   9
BRANCH   5  13
ATOM     13  C   UNL     1       2.470   7.298  18.690  0.00  0.00    +0.000 C 
BRANCH  13  14
ATOM     14  C   UNL     1       1.957   8.015  19.944  0.00  0.00    +0.000 C 
BRANCH  14  15
ATOM     15  C   UNL     1       0.775   8.997  19.822  0.00  0.00    +0.000 C 
ATOM     16  C   UNL     1       1.140  10.232  18.959  0.00  0.00    +0.000 C 
ATOM     17  N   UNL     1       0.253  11.334  19.335  0.00  0.00    +0.000 N 
ATOM     18  C   UNL     1       0.011  11.039  20.710  0.00  0.00    +0.000 A 
ATOM     19  C   UNL     1      -0.522  11.944  21.611  0.00  0.00    +0.000 A 
ATOM     20  C   UNL     1      -0.909  11.476  22.862  0.00  0.00    +0.000 A 
ATOM     21  C   UNL     1      -0.842  10.101  23.146  0.00  0.00    +0.000 A 
ATOM     22  C   UNL     1      -0.285   9.200  22.228  0.00  0.00    +0.000 A 
ATOM     23  C   UNL     1       0.193   9.684  21.023  0.00  0.00    +0.000 A 
ATOM     24  H   UNL     1      -0.655  11.234  18.865  0.00  0.00    +0.000 HD
ENDBRANCH  14  15
ENDBRANCH  13  14
ENDBRANCH   5  13
TORSDOF 6
ENDMDL
