MODEL 1
REMARK VINA RESULT:      -7.3      0.000      0.000
REMARK  Name = 
REMARK  7 active torsions:
REMARK  status: ('A' for Active; 'I' for Inactive)
REMARK    1  A    between atoms: C_1  and  C_2
REMARK    2  A    between atoms: C_8  and  C_9
REMARK    3  A    between atoms: C_22  and  N_23
REMARK    4  A    between atoms: N_23  and  C_24
REMARK    5  A    between atoms: C_24  and  C_25
REMARK    6  A    between atoms: C_24  and  C_26
REMARK    7  A    between atoms: C_24  and  C_27
REMARK                            x       y       z     vdW  Elec       q    Type
REMARK                         _______ _______ _______ _____ _____    ______ ____
ROOT
ATOM      1  C   UNL     1       1.381   9.287  18.388  0.00  0.00    +0.000 C 
ATOM      2  C   UNL     1       0.046   9.964  18.472  0.00  0.00    +0.000 A 
ATOM      3  N   UNL     1      -0.699   9.861  17.348  0.00  0.00    +0.000 NA
ATOM      4  C   UNL     1      -1.919  10.402  17.362  0.00  0.00    +0.000 A 
ATOM      5  C   UNL     1      -2.679  10.252  16.216  0.00  0.00    +0.000 A 
ATOM      6  C   UNL     1      -3.932  10.826  16.106  0.00  0.00    +0.000 A 
ATOM      7  C   UNL     1      -4.441  11.541  17.182  0.00  0.00    +0.000 A 
ATOM      8  C   UNL     1      -3.728  11.649  18.390  0.00  0.00    +0.000 A 
ATOM      9  C   UNL     1      -2.424  11.099  18.487  0.00  0.00    +0.000 A 
ATOM     10  N   UNL     1      -1.645  11.208  19.604  0.00  0.00    +0.000 NA
ATOM     11  C   UNL     1      -0.419  10.629  19.620  0.00  0.00    +0.000 A 
ENDROOT
BRANCH   8  12
ATOM     12  C   UNL     1      -4.381  12.353  19.518  0.00  0.00    +0.000 A 
ATOM     13  N   UNL     1      -3.756  13.388  20.189  0.00  0.00    +0.000 N 
ATOM     14  C   UNL     1      -4.566  13.878  21.175  0.00  0.00    +0.000 A 
ATOM     15  C   UNL     1      -5.748  13.170  21.165  0.00  0.00    +0.000 A 
ATOM     16  C   UNL     1      -5.612  12.195  20.145  0.00  0.00    +0.000 A 
ATOM     17 BR   UNL     1      -6.923  10.879  19.800  0.00  0.00    +0.000 Br
ATOM     18  C   UNL     1      -6.814  13.466  22.098  0.00  0.00    +0.000 C 
ATOM     19  O   UNL     1      -7.901  12.890  22.114  0.00  0.00    +0.000 OA
ATOM     20  N   UNL     1      -6.568  14.463  23.005  0.00  0.00    +0.000 N 
ATOM     21  C   UNL     1      -5.393  15.316  23.053  0.00  0.00    +0.000 C 
ATOM     22  C   UNL     1      -4.214  14.967  22.121  0.00  0.00    +0.000 C 
ATOM     23  H   UNL     1      -2.815  13.691  19.975  0.00  0.00    +0.000 HD
ATOM     24  H   UNL     1      -7.358  14.665  23.605  0.00  0.00    +0.000 HD
ENDBRANCH   8  12
BRANCH  11  25
ATOM     25  N   UNL     1       0.324  10.631  20.796  0.00  0.00    +0.000 N 
ATOM     26  H   UNL     1       0.679  11.548  21.043  0.00  0.00    +0.000 HD
BRANCH  25  27
ATOM     27  C   UNL     1       0.069   9.718  21.925  0.00  0.00    +0.000 C 
ATOM     28  C   UNL     1      -0.584   8.408  21.440  0.00  0.00    +0.000 C 
ATOM     29  C   UNL     1       1.444   9.394  22.552  0.00  0.00    +0.000 C 
ATOM     30  C   UNL     1      -0.783  10.366  23.021  0.00  0.00    +0.000 C 
ENDBRANCH  25  27
ENDBRANCH  11  25
TORSDOF 3
ENDMDL
MODEL 2
REMARK VINA RESULT:      -7.1      3.231      5.337
REMARK  Name = 
REMARK  7 active torsions:
REMARK  status: ('A' for Active; 'I' for Inactive)
REMARK    1  A    between atoms: C_1  and  C_2
REMARK    2  A    between atoms: C_8  and  C_9
REMARK    3  A    between atoms: C_22  and  N_23
REMARK    4  A    between atoms: N_23  and  C_24
REMARK    5  A    between atoms: C_24  and  C_25
REMARK    6  A    between atoms: C_24  and  C_26
REMARK    7  A    between atoms: C_24  and  C_27
REMARK                            x       y       z     vdW  Elec       q    Type
REMARK                         _______ _______ _______ _____ _____    ______ ____
ROOT
ATOM      1  C   UNL     1      -3.399  10.342  15.493  0.00  0.00    +0.000 C 
ATOM      2  C   UNL     1      -2.744  10.635  16.810  0.00  0.00    +0.000 A 
ATOM      3  N   UNL     1      -1.567   9.995  16.998  0.00  0.00    +0.000 NA
ATOM      4  C   UNL     1      -0.903  10.239  18.129  0.00  0.00    +0.000 A 
ATOM      5  C   UNL     1       0.316   9.604  18.284  0.00  0.00    +0.000 A 
ATOM      6  C   UNL     1       1.055   9.743  19.445  0.00  0.00    +0.000 A 
ATOM      7  C   UNL     1       0.569  10.559  20.457  0.00  0.00    +0.000 A 
ATOM      8  C   UNL     1      -0.629  11.280  20.303  0.00  0.00    +0.000 A 
ATOM      9  C   UNL     1      -1.409  11.103  19.131  0.00  0.00    +0.000 A 
ATOM     10  N   UNL     1      -2.610  11.722  18.928  0.00  0.00    +0.000 NA
ATOM     11  C   UNL     1      -3.277  11.516  17.767  0.00  0.00    +0.000 A 
ENDROOT
BRANCH   8  12
ATOM     12  C   UNL     1      -1.030  12.197  21.395  0.00  0.00    +0.000 A 
ATOM     13  N   UNL     1      -2.219  12.035  22.082  0.00  0.00    +0.000 N 
ATOM     14  C   UNL     1      -2.351  12.995  23.045  0.00  0.00    +0.000 A 
ATOM     15  C   UNL     1      -1.241  13.810  23.009  0.00  0.00    +0.000 A 
ATOM     16  C   UNL     1      -0.432  13.323  21.951  0.00  0.00    +0.000 A 
ATOM     17 BR   UNL     1       1.165  14.170  21.404  0.00  0.00    +0.000 Br
ATOM     18  C   UNL     1      -1.089  14.923  23.921  0.00  0.00    +0.000 C 
ATOM     19  O   UNL     1      -0.106  15.662  23.957  0.00  0.00    +0.000 OA
ATOM     20  N   UNL     1      -2.123  15.137  24.796  0.00  0.00    +0.000 N 
ATOM     21  C   UNL     1      -3.297  14.298  24.966  0.00  0.00    +0.000 C 
ATOM     22  C   UNL     1      -3.516  13.155  23.952  0.00  0.00    +0.000 C 
ATOM     23  H   UNL     1      -2.890  11.313  21.853  0.00  0.00    +0.000 HD
ATOM     24  H   UNL     1      -1.951  15.895  25.443  0.00  0.00    +0.000 HD
ENDBRANCH   8  12
BRANCH  11  25
ATOM     25  N   UNL     1      -4.436  12.240  17.505  0.00  0.00    +0.000 N 
ATOM     26  H   UNL     1      -4.536  12.496  16.529  0.00  0.00    +0.000 HD
BRANCH  25  27
ATOM     27  C   UNL     1      -5.694  12.066  18.252  0.00  0.00    +0.000 C 
ATOM     28  C   UNL     1      -5.665  12.855  19.576  0.00  0.00    +0.000 C 
ATOM     29  C   UNL     1      -6.823  12.625  17.357  0.00  0.00    +0.000 C 
ATOM     30  C   UNL     1      -6.019  10.592  18.517  0.00  0.00    +0.000 C 
ENDBRANCH  25  27
ENDBRANCH  11  25
TORSDOF 3
ENDMDL
MODEL 3
REMARK VINA RESULT:      -7.1      0.631      1.037
REMARK  Name = 
REMARK  7 active torsions:
REMARK  status: ('A' for Active; 'I' for Inactive)
REMARK    1  A    between atoms: C_1  and  C_2
REMARK    2  A    between atoms: C_8  and  C_9
REMARK    3  A    between atoms: C_22  and  N_23
REMARK    4  A    between atoms: N_23  and  C_24
REMARK    5  A    between atoms: C_24  and  C_25
REMARK    6  A    between atoms: C_24  and  C_26
REMARK    7  A    between atoms: C_24  and  C_27
REMARK                            x       y       z     vdW  Elec       q    Type
REMARK                         _______ _______ _______ _____ _____    ______ ____
ROOT
ATOM      1  C   UNL     1       1.037   9.560  18.228  0.00  0.00    +0.000 C 
ATOM      2  C   UNL     1      -0.277  10.234  18.486  0.00  0.00    +0.000 A 
ATOM      3  N   UNL     1      -1.129  10.207  17.437  0.00  0.00    +0.000 NA
ATOM      4  C   UNL     1      -2.336  10.751  17.605  0.00  0.00    +0.000 A 
ATOM      5  C   UNL     1      -3.206  10.679  16.532  0.00  0.00    +0.000 A 
ATOM      6  C   UNL     1      -4.458  11.264  16.582  0.00  0.00    +0.000 A 
ATOM      7  C   UNL     1      -4.852  11.909  17.747  0.00  0.00    +0.000 A 
ATOM      8  C   UNL     1      -4.023  11.936  18.883  0.00  0.00    +0.000 A 
ATOM      9  C   UNL     1      -2.721  11.375  18.817  0.00  0.00    +0.000 A 
ATOM     10  N   UNL     1      -1.836  11.408  19.856  0.00  0.00    +0.000 NA
ATOM     11  C   UNL     1      -0.621  10.825  19.714  0.00  0.00    +0.000 A 
ENDROOT
BRANCH   8  12
ATOM     12  C   UNL     1      -4.555  12.567  20.113  0.00  0.00    +0.000 A 
ATOM     13  N   UNL     1      -3.844  13.531  20.803  0.00  0.00    +0.000 N 
ATOM     14  C   UNL     1      -4.551  13.964  21.888  0.00  0.00    +0.000 A 
ATOM     15  C   UNL     1      -5.752  13.291  21.929  0.00  0.00    +0.000 A 
ATOM     16  C   UNL     1      -5.734  12.394  20.831  0.00  0.00    +0.000 A 
ATOM     17 BR   UNL     1      -7.111  11.143  20.503  0.00  0.00    +0.000 Br
ATOM     18  C   UNL     1      -6.726  13.541  22.969  0.00  0.00    +0.000 C 
ATOM     19  O   UNL     1      -7.826  12.994  23.036  0.00  0.00    +0.000 OA
ATOM     20  N   UNL     1      -6.372  14.459  23.924  0.00  0.00    +0.000 N 
ATOM     21  C   UNL     1      -5.170  15.275  23.933  0.00  0.00    +0.000 C 
ATOM     22  C   UNL     1      -4.085  14.968  22.879  0.00  0.00    +0.000 C 
ATOM     23  H   UNL     1      -2.914  13.825  20.532  0.00  0.00    +0.000 HD
ATOM     24  H   UNL     1      -7.101  14.634  24.602  0.00  0.00    +0.000 HD
ENDBRANCH   8  12
BRANCH  11  25
ATOM     25  N   UNL     1       0.234  10.748  20.810  0.00  0.00    +0.000 N 
ATOM     26  H   UNL     1       0.576  11.652  21.114  0.00  0.00    +0.000 HD
BRANCH  25  27
ATOM     27  C   UNL     1       0.126   9.719  21.859  0.00  0.00    +0.000 C 
ATOM     28  C   UNL     1       1.517   9.328  22.396  0.00  0.00    +0.000 C 
ATOM     29  C   UNL     1      -0.701  10.341  23.008  0.00  0.00    +0.000 C 
ATOM     30  C   UNL     1      -0.632   8.475  21.383  0.00  0.00    +0.000 C 
ENDBRANCH  25  27
ENDBRANCH  11  25
TORSDOF 3
ENDMDL
MODEL 4
REMARK VINA RESULT:      -6.8      1.701      2.012
REMARK  Name = 
REMARK  7 active torsions:
REMARK  status: ('A' for Active; 'I' for Inactive)
REMARK    1  A    between atoms: C_1  and  C_2
REMARK    2  A    between atoms: C_8  and  C_9
REMARK    3  A    between atoms: C_22  and  N_23
REMARK    4  A    between atoms: N_23  and  C_24
REMARK    5  A    between atoms: C_24  and  C_25
REMARK    6  A    between atoms: C_24  and  C_26
REMARK    7  A    between atoms: C_24  and  C_27
REMARK                            x       y       z     vdW  Elec       q    Type
REMARK                         _______ _______ _______ _____ _____    ______ ____
ROOT
ATOM      1  C   UNL     1       1.034   9.587  18.213  0.00  0.00    +0.000 C 
ATOM      2  C   UNL     1      -0.279  10.250  18.506  0.00  0.00    +0.000 A 
ATOM      3  N   UNL     1      -1.136  10.268  17.460  0.00  0.00    +0.000 NA
ATOM      4  C   UNL     1      -2.342  10.804  17.656  0.00  0.00    +0.000 A 
ATOM      5  C   UNL     1      -3.216  10.778  16.585  0.00  0.00    +0.000 A 
ATOM      6  C   UNL     1      -4.468  11.360  16.666  0.00  0.00    +0.000 A 
ATOM      7  C   UNL     1      -4.857  11.954  17.859  0.00  0.00    +0.000 A 
ATOM      8  C   UNL     1      -4.023  11.932  18.991  0.00  0.00    +0.000 A 
ATOM      9  C   UNL     1      -2.722  11.375  18.896  0.00  0.00    +0.000 A 
ATOM     10  N   UNL     1      -1.832  11.363  19.932  0.00  0.00    +0.000 NA
ATOM     11  C   UNL     1      -0.618  10.786  19.760  0.00  0.00    +0.000 A 
ENDROOT
BRANCH   8  12
ATOM     12  C   UNL     1      -4.550  12.509  20.250  0.00  0.00    +0.000 A 
ATOM     13  N   UNL     1      -5.709  12.037  20.838  0.00  0.00    +0.000 N 
ATOM     14  C   UNL     1      -5.975  12.721  21.991  0.00  0.00    +0.000 A 
ATOM     15  C   UNL     1      -4.985  13.659  22.184  0.00  0.00    +0.000 A 
ATOM     16  C   UNL     1      -4.113  13.542  21.073  0.00  0.00    +0.000 A 
ATOM     17 BR   UNL     1      -2.642  14.694  20.795  0.00  0.00    +0.000 Br
ATOM     18  C   UNL     1      -4.990  14.538  23.333  0.00  0.00    +0.000 C 
ATOM     19  O   UNL     1      -4.117  15.370  23.574  0.00  0.00    +0.000 OA
ATOM     20  N   UNL     1      -6.048  14.405  24.195  0.00  0.00    +0.000 N 
ATOM     21  C   UNL     1      -7.099  13.404  24.124  0.00  0.00    +0.000 C 
ATOM     22  C   UNL     1      -7.155  12.510  22.867  0.00  0.00    +0.000 C 
ATOM     23  H   UNL     1      -6.275  11.307  20.424  0.00  0.00    +0.000 HD
ATOM     24  H   UNL     1      -5.984  15.007  25.005  0.00  0.00    +0.000 HD
ENDBRANCH   8  12
BRANCH  11  25
ATOM     25  N   UNL     1       0.241  10.662  20.847  0.00  0.00    +0.000 N 
ATOM     26  H   UNL     1       0.672  11.538  21.119  0.00  0.00    +0.000 HD
BRANCH  25  27
ATOM     27  C   UNL     1       0.052   9.679  21.929  0.00  0.00    +0.000 C 
ATOM     28  C   UNL     1      -0.613   8.394  21.399  0.00  0.00    +0.000 C 
ATOM     29  C   UNL     1       1.460   9.333  22.465  0.00  0.00    +0.000 C 
ATOM     30  C   UNL     1      -0.749  10.250  23.105  0.00  0.00    +0.000 C 
ENDBRANCH  25  27
ENDBRANCH  11  25
TORSDOF 3
ENDMDL
MODEL 5
REMARK VINA RESULT:      -6.3      2.304      3.691
REMARK  Name = 
REMARK  7 active torsions:
REMARK  status: ('A' for Active; 'I' for Inactive)
REMARK    1  A    between atoms: C_1  and  C_2
REMARK    2  A    between atoms: C_8  and  C_9
REMARK    3  A    between atoms: C_22  and  N_23
REMARK    4  A    between atoms: N_23  and  C_24
REMARK    5  A    between atoms: C_24  and  C_25
REMARK    6  A    between atoms: C_24  and  C_26
REMARK    7  A    between atoms: C_24  and  C_27
REMARK                            x       y       z     vdW  Elec       q    Type
REMARK                         _______ _______ _______ _____ _____    ______ ____
ROOT
ATOM      1  C   UNL     1      -2.741  10.621  16.155  0.00  0.00    +0.000 C 
ATOM      2  C   UNL     1      -3.475  11.121  17.363  0.00  0.00    +0.000 A 
ATOM      3  N   UNL     1      -4.735  10.644  17.481  0.00  0.00    +0.000 NA
ATOM      4  C   UNL     1      -5.438  11.012  18.555  0.00  0.00    +0.000 A 
ATOM      5  C   UNL     1      -6.710  10.483  18.676  0.00  0.00    +0.000 A 
ATOM      6  C   UNL     1      -7.542  10.846  19.720  0.00  0.00    +0.000 A 
ATOM      7  C   UNL     1      -7.072  11.737  20.675  0.00  0.00    +0.000 A 
ATOM      8  C   UNL     1      -5.757  12.236  20.624  0.00  0.00    +0.000 A 
ATOM      9  C   UNL     1      -4.919  11.898  19.530  0.00  0.00    +0.000 A 
ATOM     10  N   UNL     1      -3.651  12.383  19.378  0.00  0.00    +0.000 NA
ATOM     11  C   UNL     1      -2.911  11.988  18.314  0.00  0.00    +0.000 A 
ENDROOT
BRANCH   8  12
ATOM     12  C   UNL     1      -5.306  13.111  21.731  0.00  0.00    +0.000 A 
ATOM     13  N   UNL     1      -4.161  12.837  22.456  0.00  0.00    +0.000 N 
ATOM     14  C   UNL     1      -3.954  13.796  23.407  0.00  0.00    +0.000 A 
ATOM     15  C   UNL     1      -4.965  14.727  23.320  0.00  0.00    +0.000 A 
ATOM     16  C   UNL     1      -5.826  14.275  22.288  0.00  0.00    +0.000 A 
ATOM     17 BR   UNL     1      -7.445  15.142  21.846  0.00  0.00    +0.000 Br
ATOM     18  C   UNL     1      -5.015  15.875  24.200  0.00  0.00    +0.000 C 
ATOM     19  O   UNL     1      -5.874  16.754  24.146  0.00  0.00    +0.000 OA
ATOM     20  N   UNL     1      -4.021  15.962  25.140  0.00  0.00    +0.000 N 
ATOM     21  C   UNL     1      -2.874  15.080  25.268  0.00  0.00    +0.000 C 
ATOM     22  C   UNL     1      -2.844  13.809  24.393  0.00  0.00    +0.000 C 
ATOM     23  H   UNL     1      -3.598  12.011  22.299  0.00  0.00    +0.000 HD
ATOM     24  H   UNL     1      -4.072  16.803  25.701  0.00  0.00    +0.000 HD
ENDBRANCH   8  12
BRANCH  11  25
ATOM     25  N   UNL     1      -1.579  12.381  18.223  0.00  0.00    +0.000 N 
ATOM     26  H   UNL     1      -1.465  13.343  17.925  0.00  0.00    +0.000 HD
BRANCH  25  27
ATOM     27  C   UNL     1      -0.510  11.848  19.085  0.00  0.00    +0.000 C 
ATOM     28  C   UNL     1      -0.202  10.377  18.740  0.00  0.00    +0.000 C 
ATOM     29  C   UNL     1       0.749  12.703  18.813  0.00  0.00    +0.000 C 
ATOM     30  C   UNL     1      -0.834  11.990  20.577  0.00  0.00    +0.000 C 
ENDBRANCH  25  27
ENDBRANCH  11  25
TORSDOF 3
ENDMDL
MODEL 6
REMARK VINA RESULT:      -6.3      2.561      4.659
REMARK  Name = 
REMARK  7 active torsions:
REMARK  status: ('A' for Active; 'I' for Inactive)
REMARK    1  A    between atoms: C_1  and  C_2
REMARK    2  A    between atoms: C_8  and  C_9
REMARK    3  A    between atoms: C_22  and  N_23
REMARK    4  A    between atoms: N_23  and  C_24
REMARK    5  A    between atoms: C_24  and  C_25
REMARK    6  A    between atoms: C_24  and  C_26
REMARK    7  A    between atoms: C_24  and  C_27
REMARK                            x       y       z     vdW  Elec       q    Type
REMARK                         _______ _______ _______ _____ _____    ______ ____
ROOT
ATOM      1  C   UNL     1       2.698  13.486  20.811  0.00  0.00    +0.000 C 
ATOM      2  C   UNL     1       1.228  13.534  21.106  0.00  0.00    +0.000 A 
ATOM      3  N   UNL     1       0.894  14.367  22.117  0.00  0.00    +0.000 NA
ATOM      4  C   UNL     1      -0.402  14.496  22.411  0.00  0.00    +0.000 A 
ATOM      5  C   UNL     1      -0.725  15.381  23.423  0.00  0.00    +0.000 A 
ATOM      6  C   UNL     1      -2.032  15.544  23.844  0.00  0.00    +0.000 A 
ATOM      7  C   UNL     1      -3.036  14.821  23.214  0.00  0.00    +0.000 A 
ATOM      8  C   UNL     1      -2.752  13.968  22.132  0.00  0.00    +0.000 A 
ATOM      9  C   UNL     1      -1.407  13.768  21.729  0.00  0.00    +0.000 A 
ATOM     10  N   UNL     1      -1.043  12.916  20.724  0.00  0.00    +0.000 NA
ATOM     11  C   UNL     1       0.265  12.805  20.388  0.00  0.00    +0.000 A 
ENDROOT
BRANCH   8  12
ATOM     12  C   UNL     1      -3.892  13.302  21.458  0.00  0.00    +0.000 A 
ATOM     13  N   UNL     1      -3.916  13.110  20.089  0.00  0.00    +0.000 N 
ATOM     14  C   UNL     1      -5.062  12.464  19.716  0.00  0.00    +0.000 A 
ATOM     15  C   UNL     1      -5.814  12.217  20.843  0.00  0.00    +0.000 A 
ATOM     16  C   UNL     1      -5.089  12.773  21.928  0.00  0.00    +0.000 A 
ATOM     17 BR   UNL     1      -5.750  12.806  23.697  0.00  0.00    +0.000 Br
ATOM     18  C   UNL     1      -7.088  11.536  20.768  0.00  0.00    +0.000 C 
ATOM     19  O   UNL     1      -7.787  11.259  21.742  0.00  0.00    +0.000 OA
ATOM     20  N   UNL     1      -7.515  11.183  19.514  0.00  0.00    +0.000 N 
ATOM     21  C   UNL     1      -6.769  11.329  18.275  0.00  0.00    +0.000 C 
ATOM     22  C   UNL     1      -5.446  12.122  18.323  0.00  0.00    +0.000 C 
ATOM     23  H   UNL     1      -3.185  13.444  19.475  0.00  0.00    +0.000 HD
ATOM     24  H   UNL     1      -8.387  10.670  19.515  0.00  0.00    +0.000 HD
ENDBRANCH   8  12
BRANCH  11  25
ATOM     25  N   UNL     1       0.625  12.035  19.286  0.00  0.00    +0.000 N 
ATOM     26  H   UNL     1       1.472  12.359  18.831  0.00  0.00    +0.000 HD
BRANCH  25  27
ATOM     27  C   UNL     1       0.351  10.592  19.173  0.00  0.00    +0.000 C 
ATOM     28  C   UNL     1       1.291   9.929  18.146  0.00  0.00    +0.000 C 
ATOM     29  C   UNL     1       0.615   9.979  20.567  0.00  0.00    +0.000 C 
ATOM     30  C   UNL     1      -1.113  10.299  18.824  0.00  0.00    +0.000 C 
ENDBRANCH  25  27
ENDBRANCH  11  25
TORSDOF 3
ENDMDL
MODEL 7
REMARK VINA RESULT:      -6.3      2.076      3.295
REMARK  Name = 
REMARK  7 active torsions:
REMARK  status: ('A' for Active; 'I' for Inactive)
REMARK    1  A    between atoms: C_1  and  C_2
REMARK    2  A    between atoms: C_8  and  C_9
REMARK    3  A    between atoms: C_22  and  N_23
REMARK    4  A    between atoms: N_23  and  C_24
REMARK    5  A    between atoms: C_24  and  C_25
REMARK    6  A    between atoms: C_24  and  C_26
REMARK    7  A    between atoms: C_24  and  C_27
REMARK                            x       y       z     vdW  Elec       q    Type
REMARK                         _______ _______ _______ _____ _____    ______ ____
ROOT
ATOM      1  C   UNL     1      -2.683  10.127  15.242  0.00  0.00    +0.000 C 
ATOM      2  C   UNL     1      -3.403  10.825  16.356  0.00  0.00    +0.000 A 
ATOM      3  N   UNL     1      -4.515  11.488  15.968  0.00  0.00    +0.000 NA
ATOM      4  C   UNL     1      -5.234  12.099  16.912  0.00  0.00    +0.000 A 
ATOM      5  C   UNL     1      -6.388  12.739  16.498  0.00  0.00    +0.000 A 
ATOM      6  C   UNL     1      -7.172  13.452  17.387  0.00  0.00    +0.000 A 
ATOM      7  C   UNL     1      -6.800  13.497  18.724  0.00  0.00    +0.000 A 
ATOM      8  C   UNL     1      -5.674  12.795  19.193  0.00  0.00    +0.000 A 
ATOM      9  C   UNL     1      -4.846  12.100  18.274  0.00  0.00    +0.000 A 
ATOM     10  N   UNL     1      -3.707  11.441  18.640  0.00  0.00    +0.000 NA
ATOM     11  C   UNL     1      -2.988  10.782  17.699  0.00  0.00    +0.000 A 
ENDROOT
BRANCH   8  12
ATOM     12  C   UNL     1      -5.399  12.822  20.648  0.00  0.00    +0.000 A 
ATOM     13  N   UNL     1      -4.175  13.222  21.150  0.00  0.00    +0.000 N 
ATOM     14  C   UNL     1      -4.176  13.173  22.515  0.00  0.00    +0.000 A 
ATOM     15  C   UNL     1      -5.414  12.740  22.938  0.00  0.00    +0.000 A 
ATOM     16  C   UNL     1      -6.165  12.492  21.762  0.00  0.00    +0.000 A 
ATOM     17 BR   UNL     1      -7.907  11.763  21.789  0.00  0.00    +0.000 Br
ATOM     18  C   UNL     1      -5.724  12.592  24.344  0.00  0.00    +0.000 C 
ATOM     19  O   UNL     1      -6.819  12.241  24.780  0.00  0.00    +0.000 OA
ATOM     20  N   UNL     1      -4.710  12.875  25.222  0.00  0.00    +0.000 N 
ATOM     21  C   UNL     1      -3.400  13.407  24.887  0.00  0.00    +0.000 C 
ATOM     22  C   UNL     1      -3.023  13.497  23.393  0.00  0.00    +0.000 C 
ATOM     23  H   UNL     1      -3.396  13.477  20.556  0.00  0.00    +0.000 HD
ATOM     24  H   UNL     1      -4.987  12.802  26.193  0.00  0.00    +0.000 HD
ENDBRANCH   8  12
BRANCH  11  25
ATOM     25  N   UNL     1      -1.899  10.008  18.087  0.00  0.00    +0.000 N 
ATOM     26  H   UNL     1      -1.772   9.180  17.515  0.00  0.00    +0.000 HD
BRANCH  25  27
ATOM     27  C   UNL     1      -0.674  10.564  18.687  0.00  0.00    +0.000 C 
ATOM     28  C   UNL     1      -0.657  10.348  20.213  0.00  0.00    +0.000 C 
ATOM     29  C   UNL     1       0.514   9.802  18.057  0.00  0.00    +0.000 C 
ATOM     30  C   UNL     1      -0.481  12.048  18.356  0.00  0.00    +0.000 C 
ENDBRANCH  25  27
ENDBRANCH  11  25
TORSDOF 3
ENDMDL
MODEL 8
REMARK VINA RESULT:      -6.3      3.116      5.195
REMARK  Name = 
REMARK  7 active torsions:
REMARK  status: ('A' for Active; 'I' for Inactive)
REMARK    1  A    between atoms: C_1  and  C_2
REMARK    2  A    between atoms: C_8  and  C_9
REMARK    3  A    between atoms: C_22  and  N_23
REMARK    4  A    between atoms: N_23  and  C_24
REMARK    5  A    between atoms: C_24  and  C_25
REMARK    6  A    between atoms: C_24  and  C_26
REMARK    7  A    between atoms: C_24  and  C_27
REMARK                            x       y       z     vdW  Elec       q    Type
REMARK                         _______ _______ _______ _____ _____    ______ ____
ROOT
ATOM      1  C   UNL     1      -2.997   9.942  15.746  0.00  0.00    +0.000 C 
ATOM      2  C   UNL     1      -2.473  10.424  17.066  0.00  0.00    +0.000 A 
ATOM      3  N   UNL     1      -1.316   9.839  17.449  0.00  0.00    +0.000 NA
ATOM      4  C   UNL     1      -0.765  10.247  18.594  0.00  0.00    +0.000 A 
ATOM      5  C   UNL     1       0.438   9.663  18.948  0.00  0.00    +0.000 A 
ATOM      6  C   UNL     1       1.062   9.973  20.143  0.00  0.00    +0.000 A 
ATOM      7  C   UNL     1       0.475  10.909  20.985  0.00  0.00    +0.000 A 
ATOM      8  C   UNL     1      -0.708  11.577  20.621  0.00  0.00    +0.000 A 
ATOM      9  C   UNL     1      -1.371  11.228  19.416  0.00  0.00    +0.000 A 
ATOM     10  N   UNL     1      -2.551  11.790  19.019  0.00  0.00    +0.000 NA
ATOM     11  C   UNL     1      -3.102  11.415  17.839  0.00  0.00    +0.000 A 
ENDROOT
BRANCH   8  12
ATOM     12  C   UNL     1      -1.218  12.626  21.535  0.00  0.00    +0.000 A 
ATOM     13  N   UNL     1      -2.506  12.590  22.037  0.00  0.00    +0.000 N 
ATOM     14  C   UNL     1      -2.729  13.656  22.862  0.00  0.00    +0.000 A 
ATOM     15  C   UNL     1      -1.581  14.415  22.921  0.00  0.00    +0.000 A 
ATOM     16  C   UNL     1      -0.648  13.781  22.061  0.00  0.00    +0.000 A 
ATOM     17 BR   UNL     1       1.061  14.495  21.692  0.00  0.00    +0.000 Br
ATOM     18  C   UNL     1      -1.506  15.615  23.726  0.00  0.00    +0.000 C 
ATOM     19  O   UNL     1      -0.500  16.312  23.842  0.00  0.00    +0.000 OA
ATOM     20  N   UNL     1      -2.648  15.967  24.397  0.00  0.00    +0.000 N 
ATOM     21  C   UNL     1      -3.882  15.202  24.463  0.00  0.00    +0.000 C 
ATOM     22  C   UNL     1      -4.008  13.964  23.551  0.00  0.00    +0.000 C 
ATOM     23  H   UNL     1      -3.175  11.876  21.779  0.00  0.00    +0.000 HD
ATOM     24  H   UNL     1      -2.535  16.785  24.982  0.00  0.00    +0.000 HD
ENDBRANCH   8  12
BRANCH  11  25
ATOM     25  N   UNL     1      -4.236  12.074  17.373  0.00  0.00    +0.000 N 
ATOM     26  H   UNL     1      -4.291  12.108  16.361  0.00  0.00    +0.000 HD
BRANCH  25  27
ATOM     27  C   UNL     1      -5.526  12.082  18.085  0.00  0.00    +0.000 C 
ATOM     28  C   UNL     1      -6.642  12.674  17.200  0.00  0.00    +0.000 C 
ATOM     29  C   UNL     1      -5.866  10.609  18.405  0.00  0.00    +0.000 C 
ATOM     30  C   UNL     1      -5.453  12.828  19.422  0.00  0.00    +0.000 C 
ENDBRANCH  25  27
ENDBRANCH  11  25
TORSDOF 3
ENDMDL
MODEL 9
REMARK VINA RESULT:      -6.3      1.074      1.167
REMARK  Name = 
REMARK  7 active torsions:
REMARK  status: ('A' for Active; 'I' for Inactive)
REMARK    1  A    between atoms: C_1  and  C_2
REMARK    2  A    between atoms: C_8  and  C_9
REMARK    3  A    between atoms: C_22  and  N_23
REMARK    4  A    between atoms: N_23  and  C_24
REMARK    5  A    between atoms: C_24  and  C_25
REMARK    6  A    between atoms: C_24  and  C_26
REMARK    7  A    between atoms: C_24  and  C_27
REMARK                            x       y       z     vdW  Elec       q    Type
REMARK                         _______ _______ _______ _____ _____    ______ ____
ROOT
ATOM      1  C   UNL     1       1.277   9.103  17.827  0.00  0.00    +0.000 C 
ATOM      2  C   UNL     1       0.045   9.869  18.207  0.00  0.00    +0.000 A 
ATOM      3  N   UNL     1      -0.884   9.947  17.227  0.00  0.00    +0.000 NA
ATOM      4  C   UNL     1      -2.027  10.577  17.506  0.00  0.00    +0.000 A 
ATOM      5  C   UNL     1      -2.978  10.613  16.502  0.00  0.00    +0.000 A 
ATOM      6  C   UNL     1      -4.171  11.291  16.668  0.00  0.00    +0.000 A 
ATOM      7  C   UNL     1      -4.423  11.922  17.879  0.00  0.00    +0.000 A 
ATOM      8  C   UNL     1      -3.511  11.842  18.947  0.00  0.00    +0.000 A 
ATOM      9  C   UNL     1      -2.268  11.184  18.763  0.00  0.00    +0.000 A 
ATOM     10  N   UNL     1      -1.307  11.110  19.730  0.00  0.00    +0.000 NA
ATOM     11  C   UNL     1      -0.157  10.439  19.476  0.00  0.00    +0.000 A 
ENDROOT
BRANCH   8  12
ATOM     12  C   UNL     1      -3.896  12.468  20.234  0.00  0.00    +0.000 A 
ATOM     13  N   UNL     1      -2.989  13.176  21.000  0.00  0.00    +0.000 N 
ATOM     14  C   UNL     1      -3.589  13.663  22.126  0.00  0.00    +0.000 A 
ATOM     15  C   UNL     1      -4.913  13.283  22.119  0.00  0.00    +0.000 A 
ATOM     16  C   UNL     1      -5.091  12.508  20.945  0.00  0.00    +0.000 A 
ATOM     17 BR   UNL     1      -6.716  11.643  20.522  0.00  0.00    +0.000 Br
ATOM     18  C   UNL     1      -5.814  13.658  23.187  0.00  0.00    +0.000 C 
ATOM     19  O   UNL     1      -7.011  13.376  23.217  0.00  0.00    +0.000 OA
ATOM     20  N   UNL     1      -5.268  14.381  24.216  0.00  0.00    +0.000 N 
ATOM     21  C   UNL     1      -3.910  14.894  24.286  0.00  0.00    +0.000 C 
ATOM     22  C   UNL     1      -2.915  14.439  23.198  0.00  0.00    +0.000 C 
ATOM     23  H   UNL     1      -2.014  13.270  20.746  0.00  0.00    +0.000 HD
ATOM     24  H   UNL     1      -5.945  14.659  24.915  0.00  0.00    +0.000 HD
ENDBRANCH   8  12
BRANCH  11  25
ATOM     25  N   UNL     1       0.769  10.255  20.499  0.00  0.00    +0.000 N 
ATOM     26  H   UNL     1       1.136  11.125  20.867  0.00  0.00    +0.000 HD
BRANCH  25  27
ATOM     27  C   UNL     1       0.725   9.127  21.447  0.00  0.00    +0.000 C 
ATOM     28  C   UNL     1      -0.713   8.593  21.606  0.00  0.00    +0.000 C 
ATOM     29  C   UNL     1       1.613   8.012  20.851  0.00  0.00    +0.000 C 
ATOM     30  C   UNL     1       1.315   9.489  22.815  0.00  0.00    +0.000 C 
ENDBRANCH  25  27
ENDBRANCH  11  25
TORSDOF 3
ENDMDL
