MODEL 1
REMARK VINA RESULT:      -7.3      0.000      0.000
REMARK  Name = 
REMARK  10 active torsions:
REMARK  status: ('A' for Active; 'I' for Inactive)
REMARK    1  A    between atoms: C_1  and  O_2
REMARK    2  A    between atoms: O_2  and  C_3
REMARK    3  A    between atoms: C_6  and  C_7
REMARK    4  A    between atoms: C_7  and  N_8
REMARK    5  A    between atoms: C_7  and  P_19
REMARK    6  A    between atoms: C_12  and  C_13
REMARK    7  A    between atoms: P_19  and  O_21
REMARK    8  A    between atoms: P_19  and  O_23
REMARK    9  A    between atoms: O_21  and  C_22
REMARK   10  A    between atoms: O_23  and  C_24
REMARK                            x       y       z     vdW  Elec       q    Type
REMARK                         _______ _______ _______ _____ _____    ______ ____
ROOT
ATOM      1  C   UNL     1       6.583   4.212  16.156  0.00  0.00    +0.000 C 
ENDROOT
BRANCH   1   2
ATOM      2  N   UNL     1       5.483   3.431  16.769  0.00  0.00    +0.000 N 
ATOM      3  C   UNL     1       4.550   4.056  17.534  0.00  0.00    +0.000 A 
ATOM      4  N   UNL     1       4.085   5.261  17.342  0.00  0.00    +0.000 NA
ATOM      5  C   UNL     1       3.321   5.674  18.427  0.00  0.00    +0.000 A 
ATOM      6  C   UNL     1       2.770   6.966  18.612  0.00  0.00    +0.000 A 
ATOM      7  C   UNL     1       2.934   8.067  17.603  0.00  0.00    +0.000 C 
ATOM      8  C   UNL     1       2.039   7.224  19.791  0.00  0.00    +0.000 A 
ATOM      9  C   UNL     1       1.838   6.234  20.748  0.00  0.00    +0.000 A 
ATOM     10  C   UNL     1       2.365   4.955  20.566  0.00  0.00    +0.000 A 
ATOM     11  C   UNL     1       3.116   4.699  19.404  0.00  0.00    +0.000 A 
ATOM     12  S   UNL     1       3.921   3.253  18.924  0.00  0.00    +0.000 S 
ATOM     13  H   UNL     1       5.816   2.562  17.170  0.00  0.00    +0.000 HD
ENDBRANCH   1   2
BRANCH   1  17
ATOM     14  C   UNL     1       8.180   7.370  18.676  0.00  0.00    +0.000 A 
ATOM     15  C   UNL     1       7.606   7.684  17.440  0.00  0.00    +0.000 A 
ATOM     16  C   UNL     1       7.052   6.686  16.628  0.00  0.00    +0.000 A 
ATOM     17  C   UNL     1       7.089   5.349  17.039  0.00  0.00    +0.000 A 
ATOM     18  C   UNL     1       7.662   5.055  18.286  0.00  0.00    +0.000 A 
ATOM     19  C   UNL     1       8.199   6.049  19.100  0.00  0.00    +0.000 A 
BRANCH  14  21
ATOM     20  C   UNL     1       8.826   9.650  18.653  0.00  0.00    +0.000 C 
ATOM     21  O   UNL     1       8.744   8.413  19.360  0.00  0.00    +0.000 OA
ENDBRANCH  14  21
ENDBRANCH   1  17
BRANCH   1  22
ATOM     22  P   UNL     1       6.280   4.658  14.397  0.00  0.00    +0.000 P 
ATOM     23  O   UNL     1       5.092   5.510  14.046  0.00  0.00    +0.000 OA
BRANCH  22  24
ATOM     24  O   UNL     1       7.688   5.364  14.003  0.00  0.00    +0.000 OA
ATOM     25  C   UNL     1       8.072   5.402  12.646  0.00  0.00    +0.000 C 
ENDBRANCH  22  24
BRANCH  22  26
ATOM     26  O   UNL     1       6.367   3.290  13.535  0.00  0.00    +0.000 OA
ATOM     27  C   UNL     1       5.473   3.176  12.443  0.00  0.00    +0.000 C 
ENDBRANCH  22  26
ENDBRANCH   1  22
TORSDOF 6
ENDMDL
MODEL 2
REMARK VINA RESULT:      -6.8      1.869      4.828
REMARK  Name = 
REMARK  10 active torsions:
REMARK  status: ('A' for Active; 'I' for Inactive)
REMARK    1  A    between atoms: C_1  and  O_2
REMARK    2  A    between atoms: O_2  and  C_3
REMARK    3  A    between atoms: C_6  and  C_7
REMARK    4  A    between atoms: C_7  and  N_8
REMARK    5  A    between atoms: C_7  and  P_19
REMARK    6  A    between atoms: C_12  and  C_13
REMARK    7  A    between atoms: P_19  and  O_21
REMARK    8  A    between atoms: P_19  and  O_23
REMARK    9  A    between atoms: O_21  and  C_22
REMARK   10  A    between atoms: O_23  and  C_24
REMARK                            x       y       z     vdW  Elec       q    Type
REMARK                         _______ _______ _______ _____ _____    ______ ____
ROOT
ATOM      1  C   UNL     1       5.621   5.233  16.114  0.00  0.00    +0.000 C 
ENDROOT
BRANCH   1   2
ATOM      2  N   UNL     1       4.508   4.518  16.782  0.00  0.00    +0.000 N 
ATOM      3  C   UNL     1       3.659   5.192  17.601  0.00  0.00    +0.000 A 
ATOM      4  N   UNL     1       3.263   6.426  17.443  0.00  0.00    +0.000 NA
ATOM      5  C   UNL     1       2.587   6.876  18.572  0.00  0.00    +0.000 A 
ATOM      6  C   UNL     1       2.130   8.199  18.795  0.00  0.00    +0.000 A 
ATOM      7  C   UNL     1       2.309   9.297  17.786  0.00  0.00    +0.000 C 
ATOM      8  C   UNL     1       1.483   8.490  20.014  0.00  0.00    +0.000 A 
ATOM      9  C   UNL     1       1.272   7.505  20.974  0.00  0.00    +0.000 A 
ATOM     10  C   UNL     1       1.705   6.197  20.755  0.00  0.00    +0.000 A 
ATOM     11  C   UNL     1       2.374   5.906  19.552  0.00  0.00    +0.000 A 
ATOM     12  S   UNL     1       3.058   4.417  19.018  0.00  0.00    +0.000 S 
ATOM     13  H   UNL     1       4.806   3.625  17.158  0.00  0.00    +0.000 HD
ENDBRANCH   1   2
BRANCH   1  17
ATOM     14  C   UNL     1       6.596   3.576  12.218  0.00  0.00    +0.000 A 
ATOM     15  C   UNL     1       7.508   4.411  12.871  0.00  0.00    +0.000 A 
ATOM     16  C   UNL     1       7.230   4.926  14.144  0.00  0.00    +0.000 A 
ATOM     17  C   UNL     1       6.014   4.627  14.770  0.00  0.00    +0.000 A 
ATOM     18  C   UNL     1       5.116   3.782  14.101  0.00  0.00    +0.000 A 
ATOM     19  C   UNL     1       5.399   3.258  12.843  0.00  0.00    +0.000 A 
BRANCH  14  21
ATOM     20  C   UNL     1       7.216   1.787  10.793  0.00  0.00    +0.000 C 
ATOM     21  O   UNL     1       6.943   3.179  10.955  0.00  0.00    +0.000 OA
ENDBRANCH  14  21
ENDBRANCH   1  17
BRANCH   1  22
ATOM     22  P   UNL     1       7.022   5.630  17.238  0.00  0.00    +0.000 P 
ATOM     23  O   UNL     1       8.179   4.675  17.341  0.00  0.00    +0.000 OA
BRANCH  22  24
ATOM     24  O   UNL     1       7.469   7.089  16.684  0.00  0.00    +0.000 OA
ATOM     25  C   UNL     1       7.849   8.082  17.612  0.00  0.00    +0.000 C 
ENDBRANCH  22  24
BRANCH  22  26
ATOM     26  O   UNL     1       6.386   6.026  18.674  0.00  0.00    +0.000 OA
ATOM     27  C   UNL     1       6.925   5.367  19.805  0.00  0.00    +0.000 C 
ENDBRANCH  22  26
ENDBRANCH   1  22
TORSDOF 6
ENDMDL
MODEL 3
REMARK VINA RESULT:      -6.6      2.239      5.039
REMARK  Name = 
REMARK  10 active torsions:
REMARK  status: ('A' for Active; 'I' for Inactive)
REMARK    1  A    between atoms: C_1  and  O_2
REMARK    2  A    between atoms: O_2  and  C_3
REMARK    3  A    between atoms: C_6  and  C_7
REMARK    4  A    between atoms: C_7  and  N_8
REMARK    5  A    between atoms: C_7  and  P_19
REMARK    6  A    between atoms: C_12  and  C_13
REMARK    7  A    between atoms: P_19  and  O_21
REMARK    8  A    between atoms: P_19  and  O_23
REMARK    9  A    between atoms: O_21  and  C_22
REMARK   10  A    between atoms: O_23  and  C_24
REMARK                            x       y       z     vdW  Elec       q    Type
REMARK                         _______ _______ _______ _____ _____    ______ ____
ROOT
ATOM      1  C   UNL     1       5.732   4.907  16.571  0.00  0.00    +0.000 C 
ENDROOT
BRANCH   1   2
ATOM      2  N   UNL     1       5.841   3.741  17.478  0.00  0.00    +0.000 N 
ATOM      3  C   UNL     1       4.790   3.388  18.263  0.00  0.00    +0.000 A 
ATOM      4  N   UNL     1       3.528   3.490  17.943  0.00  0.00    +0.000 NA
ATOM      5  C   UNL     1       2.718   3.260  19.049  0.00  0.00    +0.000 A 
ATOM      6  C   UNL     1       1.310   3.410  19.094  0.00  0.00    +0.000 A 
ATOM      7  C   UNL     1       0.503   3.826  17.897  0.00  0.00    +0.000 C 
ATOM      8  C   UNL     1       0.645   3.158  20.312  0.00  0.00    +0.000 A 
ATOM      9  C   UNL     1       1.341   2.750  21.445  0.00  0.00    +0.000 A 
ATOM     10  C   UNL     1       2.726   2.584  21.404  0.00  0.00    +0.000 A 
ATOM     11  C   UNL     1       3.398   2.859  20.199  0.00  0.00    +0.000 A 
ATOM     12  S   UNL     1       5.085   2.792  19.853  0.00  0.00    +0.000 S 
ATOM     13  H   UNL     1       6.730   3.724  17.965  0.00  0.00    +0.000 HD
ENDBRANCH   1   2
BRANCH   1  17
ATOM     14  C   UNL     1       6.855   3.920  12.492  0.00  0.00    +0.000 A 
ATOM     15  C   UNL     1       5.658   3.432  13.025  0.00  0.00    +0.000 A 
ATOM     16  C   UNL     1       5.259   3.768  14.326  0.00  0.00    +0.000 A 
ATOM     17  C   UNL     1       6.073   4.584  15.119  0.00  0.00    +0.000 A 
ATOM     18  C   UNL     1       7.265   5.070  14.563  0.00  0.00    +0.000 A 
ATOM     19  C   UNL     1       7.655   4.748  13.265  0.00  0.00    +0.000 A 
BRANCH  14  21
ATOM     20  C   UNL     1       7.282   2.067  11.078  0.00  0.00    +0.000 C 
ATOM     21  O   UNL     1       7.177   3.481  11.236  0.00  0.00    +0.000 OA
ENDBRANCH  14  21
ENDBRANCH   1  17
BRANCH   1  22
ATOM     22  P   UNL     1       6.509   6.435  17.239  0.00  0.00    +0.000 P 
ATOM     23  O   UNL     1       7.735   6.992  16.571  0.00  0.00    +0.000 OA
BRANCH  22  24
ATOM     24  O   UNL     1       5.258   7.469  17.201  0.00  0.00    +0.000 OA
ATOM     25  C   UNL     1       3.973   6.993  17.538  0.00  0.00    +0.000 C 
ENDBRANCH  22  24
BRANCH  22  26
ATOM     26  O   UNL     1       6.687   6.223  18.835  0.00  0.00    +0.000 OA
ATOM     27  C   UNL     1       7.969   5.819  19.277  0.00  0.00    +0.000 C 
ENDBRANCH  22  26
ENDBRANCH   1  22
TORSDOF 6
ENDMDL
MODEL 4
REMARK VINA RESULT:      -6.5      7.379      9.877
REMARK  Name = 
REMARK  10 active torsions:
REMARK  status: ('A' for Active; 'I' for Inactive)
REMARK    1  A    between atoms: C_1  and  O_2
REMARK    2  A    between atoms: O_2  and  C_3
REMARK    3  A    between atoms: C_6  and  C_7
REMARK    4  A    between atoms: C_7  and  N_8
REMARK    5  A    between atoms: C_7  and  P_19
REMARK    6  A    between atoms: C_12  and  C_13
REMARK    7  A    between atoms: P_19  and  O_21
REMARK    8  A    between atoms: P_19  and  O_23
REMARK    9  A    between atoms: O_21  and  C_22
REMARK   10  A    between atoms: O_23  and  C_24
REMARK                            x       y       z     vdW  Elec       q    Type
REMARK                         _______ _______ _______ _____ _____    ______ ____
ROOT
ATOM      1  C   UNL     1       0.403  11.650  19.366  0.00  0.00    +0.000 C 
ENDROOT
BRANCH   1   2
ATOM      2  N   UNL     1      -0.708  11.648  20.346  0.00  0.00    +0.000 N 
ATOM      3  C   UNL     1      -1.991  11.784  19.921  0.00  0.00    +0.000 A 
ATOM      4  N   UNL     1      -2.481  11.314  18.806  0.00  0.00    +0.000 NA
ATOM      5  C   UNL     1      -3.753  11.823  18.573  0.00  0.00    +0.000 A 
ATOM      6  C   UNL     1      -4.527  11.625  17.402  0.00  0.00    +0.000 A 
ATOM      7  C   UNL     1      -4.049  10.787  16.250  0.00  0.00    +0.000 C 
ATOM      8  C   UNL     1      -5.794  12.240  17.320  0.00  0.00    +0.000 A 
ATOM      9  C   UNL     1      -6.293  13.008  18.366  0.00  0.00    +0.000 A 
ATOM     10  C   UNL     1      -5.545  13.195  19.529  0.00  0.00    +0.000 A 
ATOM     11  C   UNL     1      -4.270  12.606  19.606  0.00  0.00    +0.000 A 
ATOM     12  S   UNL     1      -3.105  12.691  20.873  0.00  0.00    +0.000 S 
ATOM     13  H   UNL     1      -0.492  12.211  21.161  0.00  0.00    +0.000 HD
ENDBRANCH   1   2
BRANCH   1  17
ATOM     14  C   UNL     1       2.222   7.719  19.013  0.00  0.00    +0.000 A 
ATOM     15  C   UNL     1       2.262   8.608  17.934  0.00  0.00    +0.000 A 
ATOM     16  C   UNL     1       1.715   9.893  18.038  0.00  0.00    +0.000 A 
ATOM     17  C   UNL     1       1.095  10.296  19.227  0.00  0.00    +0.000 A 
ATOM     18  C   UNL     1       1.072   9.393  20.300  0.00  0.00    +0.000 A 
ATOM     19  C   UNL     1       1.629   8.121  20.201  0.00  0.00    +0.000 A 
BRANCH  14  21
ATOM     20  C   UNL     1       3.839   6.405  17.885  0.00  0.00    +0.000 C 
ATOM     21  O   UNL     1       2.732   6.470  18.783  0.00  0.00    +0.000 OA
ENDBRANCH  14  21
ENDBRANCH   1  17
BRANCH   1  22
ATOM     22  P   UNL     1       1.530  13.095  19.530  0.00  0.00    +0.000 P 
ATOM     23  O   UNL     1       2.470  13.430  18.406  0.00  0.00    +0.000 OA
BRANCH  22  24
ATOM     24  O   UNL     1       0.470  14.289  19.831  0.00  0.00    +0.000 OA
ATOM     25  C   UNL     1       0.135  15.177  18.787  0.00  0.00    +0.000 C 
ENDBRANCH  22  24
BRANCH  22  26
ATOM     26  O   UNL     1       2.266  12.966  20.967  0.00  0.00    +0.000 OA
ATOM     27  C   UNL     1       3.163  14.005  21.311  0.00  0.00    +0.000 C 
ENDBRANCH  22  26
ENDBRANCH   1  22
TORSDOF 6
ENDMDL
MODEL 5
REMARK VINA RESULT:      -6.4      7.373      9.889
REMARK  Name = 
REMARK  10 active torsions:
REMARK  status: ('A' for Active; 'I' for Inactive)
REMARK    1  A    between atoms: C_1  and  O_2
REMARK    2  A    between atoms: O_2  and  C_3
REMARK    3  A    between atoms: C_6  and  C_7
REMARK    4  A    between atoms: C_7  and  N_8
REMARK    5  A    between atoms: C_7  and  P_19
REMARK    6  A    between atoms: C_12  and  C_13
REMARK    7  A    between atoms: P_19  and  O_21
REMARK    8  A    between atoms: P_19  and  O_23
REMARK    9  A    between atoms: O_21  and  C_22
REMARK   10  A    between atoms: O_23  and  C_24
REMARK                            x       y       z     vdW  Elec       q    Type
REMARK                         _______ _______ _______ _____ _____    ______ ____
ROOT
ATOM      1  C   UNL     1       0.298  11.606  19.588  0.00  0.00    +0.000 C 
ENDROOT
BRANCH   1   2
ATOM      2  N   UNL     1      -0.879  11.592  20.487  0.00  0.00    +0.000 N 
ATOM      3  C   UNL     1      -2.129  11.742  19.975  0.00  0.00    +0.000 A 
ATOM      4  N   UNL     1      -2.540  11.293  18.820  0.00  0.00    +0.000 NA
ATOM      5  C   UNL     1      -3.791  11.812  18.506  0.00  0.00    +0.000 A 
ATOM      6  C   UNL     1      -4.480  11.637  17.281  0.00  0.00    +0.000 A 
ATOM      7  C   UNL     1      -3.925  10.816  16.152  0.00  0.00    +0.000 C 
ATOM      8  C   UNL     1      -5.736  12.259  17.119  0.00  0.00    +0.000 A 
ATOM      9  C   UNL     1      -6.306  13.012  18.141  0.00  0.00    +0.000 A 
ATOM     10  C   UNL     1      -5.641  13.176  19.356  0.00  0.00    +0.000 A 
ATOM     11  C   UNL     1      -4.376  12.579  19.514  0.00  0.00    +0.000 A 
ATOM     12  S   UNL     1      -3.304  12.638  20.861  0.00  0.00    +0.000 S 
ATOM     13  H   UNL     1      -0.719  12.141  21.325  0.00  0.00    +0.000 HD
ENDBRANCH   1   2
BRANCH   1  17
ATOM     14  C   UNL     1       2.209   7.760  18.926  0.00  0.00    +0.000 A 
ATOM     15  C   UNL     1       1.731   8.094  20.197  0.00  0.00    +0.000 A 
ATOM     16  C   UNL     1       1.079   9.313  20.425  0.00  0.00    +0.000 A 
ATOM     17  C   UNL     1       0.919  10.227  19.377  0.00  0.00    +0.000 A 
ATOM     18  C   UNL     1       1.398   9.870  18.108  0.00  0.00    +0.000 A 
ATOM     19  C   UNL     1       2.033   8.652  17.878  0.00  0.00    +0.000 A 
BRANCH  14  21
ATOM     20  C   UNL     1       3.813   6.470  17.752  0.00  0.00    +0.000 C 
ATOM     21  O   UNL     1       2.882   6.572  18.829  0.00  0.00    +0.000 OA
ENDBRANCH  14  21
ENDBRANCH   1  17
BRANCH   1  22
ATOM     22  P   UNL     1       1.492  12.956  19.956  0.00  0.00    +0.000 P 
ATOM     23  O   UNL     1       2.318  12.891  21.210  0.00  0.00    +0.000 OA
BRANCH  22  24
ATOM     24  O   UNL     1       2.403  12.948  18.611  0.00  0.00    +0.000 OA
ATOM     25  C   UNL     1       2.968  14.162  18.167  0.00  0.00    +0.000 C 
ENDBRANCH  22  24
BRANCH  22  26
ATOM     26  O   UNL     1       0.697  14.357  19.782  0.00  0.00    +0.000 OA
ATOM     27  C   UNL     1       0.434  15.082  20.969  0.00  0.00    +0.000 C 
ENDBRANCH  22  26
ENDBRANCH   1  22
TORSDOF 6
ENDMDL
MODEL 6
REMARK VINA RESULT:      -6.4      7.294      9.757
REMARK  Name = 
REMARK  10 active torsions:
REMARK  status: ('A' for Active; 'I' for Inactive)
REMARK    1  A    between atoms: C_1  and  O_2
REMARK    2  A    between atoms: O_2  and  C_3
REMARK    3  A    between atoms: C_6  and  C_7
REMARK    4  A    between atoms: C_7  and  N_8
REMARK    5  A    between atoms: C_7  and  P_19
REMARK    6  A    between atoms: C_12  and  C_13
REMARK    7  A    between atoms: P_19  and  O_21
REMARK    8  A    between atoms: P_19  and  O_23
REMARK    9  A    between atoms: O_21  and  C_22
REMARK   10  A    between atoms: O_23  and  C_24
REMARK                            x       y       z     vdW  Elec       q    Type
REMARK                         _______ _______ _______ _____ _____    ______ ____
ROOT
ATOM      1  C   UNL     1       0.365  11.357  19.200  0.00  0.00    +0.000 C 
ENDROOT
BRANCH   1   2
ATOM      2  N   UNL     1      -0.719  11.423  20.207  0.00  0.00    +0.000 N 
ATOM      3  C   UNL     1      -2.002  11.636  19.813  0.00  0.00    +0.000 A 
ATOM      4  N   UNL     1      -2.547  11.194  18.713  0.00  0.00    +0.000 NA
ATOM      5  C   UNL     1      -3.792  11.778  18.509  0.00  0.00    +0.000 A 
ATOM      6  C   UNL     1      -4.605  11.624  17.359  0.00  0.00    +0.000 A 
ATOM      7  C   UNL     1      -4.206  10.758  16.198  0.00  0.00    +0.000 C 
ATOM      8  C   UNL     1      -5.834  12.314  17.306  0.00  0.00    +0.000 A 
ATOM      9  C   UNL     1      -6.261  13.112  18.362  0.00  0.00    +0.000 A 
ATOM     10  C   UNL     1      -5.474  13.256  19.505  0.00  0.00    +0.000 A 
ATOM     11  C   UNL     1      -4.234  12.592  19.553  0.00  0.00    +0.000 A 
ATOM     12  S   UNL     1      -3.035  12.609  20.790  0.00  0.00    +0.000 S 
ATOM     13  H   UNL     1      -0.449  11.974  21.015  0.00  0.00    +0.000 HD
ENDBRANCH   1   2
BRANCH   1  17
ATOM     14  C   UNL     1       2.429   7.544  18.917  0.00  0.00    +0.000 A 
ATOM     15  C   UNL     1       1.810   7.917  20.114  0.00  0.00    +0.000 A 
ATOM     16  C   UNL     1       1.108   9.125  20.217  0.00  0.00    +0.000 A 
ATOM     17  C   UNL     1       1.038   9.990  19.118  0.00  0.00    +0.000 A 
ATOM     18  C   UNL     1       1.659   9.593  17.924  0.00  0.00    +0.000 A 
ATOM     19  C   UNL     1       2.344   8.385  17.818  0.00  0.00    +0.000 A 
BRANCH  14  21
ATOM     20  C   UNL     1       3.952   6.110  17.805  0.00  0.00    +0.000 C 
ATOM     21  O   UNL     1       3.137   6.373  18.946  0.00  0.00    +0.000 OA
ENDBRANCH  14  21
ENDBRANCH   1  17
BRANCH   1  22
ATOM     22  P   UNL     1       1.512  12.794  19.255  0.00  0.00    +0.000 P 
ATOM     23  O   UNL     1       2.719  12.811  18.359  0.00  0.00    +0.000 OA
BRANCH  22  24
ATOM     24  O   UNL     1       0.494  14.023  18.949  0.00  0.00    +0.000 OA
ATOM     25  C   UNL     1       1.005  15.338  18.924  0.00  0.00    +0.000 C 
ENDBRANCH  22  24
BRANCH  22  26
ATOM     26  O   UNL     1       1.864  13.065  20.812  0.00  0.00    +0.000 OA
ATOM     27  C   UNL     1       3.117  13.669  21.079  0.00  0.00    +0.000 C 
ENDBRANCH  22  26
ENDBRANCH   1  22
TORSDOF 6
ENDMDL
MODEL 7
REMARK VINA RESULT:      -6.3     10.646     14.060
REMARK  Name = 
REMARK  10 active torsions:
REMARK  status: ('A' for Active; 'I' for Inactive)
REMARK    1  A    between atoms: C_1  and  O_2
REMARK    2  A    between atoms: O_2  and  C_3
REMARK    3  A    between atoms: C_6  and  C_7
REMARK    4  A    between atoms: C_7  and  N_8
REMARK    5  A    between atoms: C_7  and  P_19
REMARK    6  A    between atoms: C_12  and  C_13
REMARK    7  A    between atoms: P_19  and  O_21
REMARK    8  A    between atoms: P_19  and  O_23
REMARK    9  A    between atoms: O_21  and  C_22
REMARK   10  A    between atoms: O_23  and  C_24
REMARK                            x       y       z     vdW  Elec       q    Type
REMARK                         _______ _______ _______ _____ _____    ______ ____
ROOT
ATOM      1  C   UNL     1      -4.270  12.858  21.964  0.00  0.00    +0.000 C 
ENDROOT
BRANCH   1   2
ATOM      2  N   UNL     1      -2.926  13.420  21.692  0.00  0.00    +0.000 N 
ATOM      3  C   UNL     1      -2.067  12.763  20.869  0.00  0.00    +0.000 A 
ATOM      4  N   UNL     1      -2.399  12.072  19.813  0.00  0.00    +0.000 NA
ATOM      5  C   UNL     1      -1.312  11.348  19.335  0.00  0.00    +0.000 A 
ATOM      6  C   UNL     1      -1.343  10.399  18.283  0.00  0.00    +0.000 A 
ATOM      7  C   UNL     1      -2.597  10.078  17.521  0.00  0.00    +0.000 C 
ATOM      8  C   UNL     1      -0.147   9.732  17.943  0.00  0.00    +0.000 A 
ATOM      9  C   UNL     1       1.046  10.008  18.602  0.00  0.00    +0.000 A 
ATOM     10  C   UNL     1       1.088  10.952  19.628  0.00  0.00    +0.000 A 
ATOM     11  C   UNL     1      -0.107  11.601  19.990  0.00  0.00    +0.000 A 
ATOM     12  S   UNL     1      -0.382  12.767  21.229  0.00  0.00    +0.000 S 
ATOM     13  H   UNL     1      -2.486  13.769  22.536  0.00  0.00    +0.000 HD
ENDBRANCH   1   2
BRANCH   1  17
ATOM     14  C   UNL     1      -7.080  13.916  18.823  0.00  0.00    +0.000 A 
ATOM     15  C   UNL     1      -6.965  12.586  19.240  0.00  0.00    +0.000 A 
ATOM     16  C   UNL     1      -6.092  12.228  20.276  0.00  0.00    +0.000 A 
ATOM     17  C   UNL     1      -5.302  13.204  20.894  0.00  0.00    +0.000 A 
ATOM     18  C   UNL     1      -5.438  14.533  20.467  0.00  0.00    +0.000 A 
ATOM     19  C   UNL     1      -6.316  14.892  19.447  0.00  0.00    +0.000 A 
BRANCH  14  21
ATOM     20  C   UNL     1      -7.281  14.432  16.519  0.00  0.00    +0.000 C 
ATOM     21  O   UNL     1      -7.916  14.144  17.764  0.00  0.00    +0.000 OA
ENDBRANCH  14  21
ENDBRANCH   1  17
BRANCH   1  22
ATOM     22  P   UNL     1      -4.830  13.092  23.700  0.00  0.00    +0.000 P 
ATOM     23  O   UNL     1      -4.655  11.974  24.689  0.00  0.00    +0.000 OA
BRANCH  22  24
ATOM     24  O   UNL     1      -4.006  14.428  24.121  0.00  0.00    +0.000 OA
ATOM     25  C   UNL     1      -4.684  15.665  24.140  0.00  0.00    +0.000 C 
ENDBRANCH  22  24
BRANCH  22  26
ATOM     26  O   UNL     1      -6.343  13.667  23.642  0.00  0.00    +0.000 OA
ATOM     27  C   UNL     1      -7.377  12.750  23.942  0.00  0.00    +0.000 C 
ENDBRANCH  22  26
ENDBRANCH   1  22
TORSDOF 6
ENDMDL
MODEL 8
REMARK VINA RESULT:      -6.2      8.020     10.349
REMARK  Name = 
REMARK  10 active torsions:
REMARK  status: ('A' for Active; 'I' for Inactive)
REMARK    1  A    between atoms: C_1  and  O_2
REMARK    2  A    between atoms: O_2  and  C_3
REMARK    3  A    between atoms: C_6  and  C_7
REMARK    4  A    between atoms: C_7  and  N_8
REMARK    5  A    between atoms: C_7  and  P_19
REMARK    6  A    between atoms: C_12  and  C_13
REMARK    7  A    between atoms: P_19  and  O_21
REMARK    8  A    between atoms: P_19  and  O_23
REMARK    9  A    between atoms: O_21  and  C_22
REMARK   10  A    between atoms: O_23  and  C_24
REMARK                            x       y       z     vdW  Elec       q    Type
REMARK                         _______ _______ _______ _____ _____    ______ ____
ROOT
ATOM      1  C   UNL     1      -0.289  11.042  20.349  0.00  0.00    +0.000 C 
ENDROOT
BRANCH   1   2
ATOM      2  N   UNL     1       0.408  12.135  21.066  0.00  0.00    +0.000 N 
ATOM      3  C   UNL     1      -0.285  12.949  21.905  0.00  0.00    +0.000 A 
ATOM      4  N   UNL     1      -1.288  12.593  22.660  0.00  0.00    +0.000 NA
ATOM      5  C   UNL     1      -1.908  13.707  23.215  0.00  0.00    +0.000 A 
ATOM      6  C   UNL     1      -3.100  13.700  23.982  0.00  0.00    +0.000 A 
ATOM      7  C   UNL     1      -3.838  12.435  24.316  0.00  0.00    +0.000 C 
ATOM      8  C   UNL     1      -3.608  14.931  24.448  0.00  0.00    +0.000 A 
ATOM      9  C   UNL     1      -2.951  16.129  24.186  0.00  0.00    +0.000 A 
ATOM     10  C   UNL     1      -1.770  16.143  23.444  0.00  0.00    +0.000 A 
ATOM     11  C   UNL     1      -1.272  14.921  22.955  0.00  0.00    +0.000 A 
ATOM     12  S   UNL     1       0.120  14.623  21.984  0.00  0.00    +0.000 S 
ATOM     13  H   UNL     1       1.049  12.634  20.459  0.00  0.00    +0.000 HD
ENDBRANCH   1   2
BRANCH   1  17
ATOM     14  C   UNL     1       2.231   7.734  19.092  0.00  0.00    +0.000 A 
ATOM     15  C   UNL     1       2.011   8.812  18.229  0.00  0.00    +0.000 A 
ATOM     16  C   UNL     1       1.232   9.906  18.628  0.00  0.00    +0.000 A 
ATOM     17  C   UNL     1       0.641   9.920  19.897  0.00  0.00    +0.000 A 
ATOM     18  C   UNL     1       0.881   8.833  20.750  0.00  0.00    +0.000 A 
ATOM     19  C   UNL     1       1.668   7.752  20.359  0.00  0.00    +0.000 A 
BRANCH  14  21
ATOM     20  C   UNL     1       3.878   7.026  17.542  0.00  0.00    +0.000 C 
ATOM     21  O   UNL     1       2.957   6.692  18.579  0.00  0.00    +0.000 OA
ENDBRANCH  14  21
ENDBRANCH   1  17
BRANCH   1  22
ATOM     22  P   UNL     1      -1.481  11.635  19.079  0.00  0.00    +0.000 P 
ATOM     23  O   UNL     1      -1.016  12.602  18.025  0.00  0.00    +0.000 OA
BRANCH  22  24
ATOM     24  O   UNL     1      -1.995  10.229  18.448  0.00  0.00    +0.000 OA
ATOM     25  C   UNL     1      -1.976  10.067  17.046  0.00  0.00    +0.000 C 
ENDBRANCH  22  24
BRANCH  22  26
ATOM     26  O   UNL     1      -2.809  12.127  19.862  0.00  0.00    +0.000 OA
ATOM     27  C   UNL     1      -4.011  12.147  19.114  0.00  0.00    +0.000 C 
ENDBRANCH  22  26
ENDBRANCH   1  22
TORSDOF 6
ENDMDL
MODEL 9
REMARK VINA RESULT:      -6.2      8.582     11.539
REMARK  Name = 
REMARK  10 active torsions:
REMARK  status: ('A' for Active; 'I' for Inactive)
REMARK    1  A    between atoms: C_1  and  O_2
REMARK    2  A    between atoms: O_2  and  C_3
REMARK    3  A    between atoms: C_6  and  C_7
REMARK    4  A    between atoms: C_7  and  N_8
REMARK    5  A    between atoms: C_7  and  P_19
REMARK    6  A    between atoms: C_12  and  C_13
REMARK    7  A    between atoms: P_19  and  O_21
REMARK    8  A    between atoms: P_19  and  O_23
REMARK    9  A    between atoms: O_21  and  C_22
REMARK   10  A    between atoms: O_23  and  C_24
REMARK                            x       y       z     vdW  Elec       q    Type
REMARK                         _______ _______ _______ _____ _____    ______ ____
ROOT
ATOM      1  C   UNL     1      -0.439  12.082  20.050  0.00  0.00    +0.000 C 
ENDROOT
BRANCH   1   2
ATOM      2  N   UNL     1       0.872  12.684  20.387  0.00  0.00    +0.000 N 
ATOM      3  C   UNL     1       1.251  13.856  19.815  0.00  0.00    +0.000 A 
ATOM      4  N   UNL     1       0.459  14.846  19.505  0.00  0.00    +0.000 NA
ATOM      5  C   UNL     1       1.127  15.790  18.734  0.00  0.00    +0.000 A 
ATOM      6  C   UNL     1       0.544  16.927  18.120  0.00  0.00    +0.000 A 
ATOM      7  C   UNL     1      -0.913  17.264  18.264  0.00  0.00    +0.000 C 
ATOM      8  C   UNL     1       1.368  17.770  17.345  0.00  0.00    +0.000 A 
ATOM      9  C   UNL     1       2.727  17.516  17.198  0.00  0.00    +0.000 A 
ATOM     10  C   UNL     1       3.312  16.408  17.811  0.00  0.00    +0.000 A 
ATOM     11  C   UNL     1       2.491  15.548  18.564  0.00  0.00    +0.000 A 
ATOM     12  S   UNL     1       2.905  14.095  19.392  0.00  0.00    +0.000 S 
ATOM     13  H   UNL     1       1.611  11.989  20.409  0.00  0.00    +0.000 HD
ENDBRANCH   1   2
BRANCH   1  17
ATOM     14  C   UNL     1      -3.504  12.383  23.115  0.00  0.00    +0.000 A 
ATOM     15  C   UNL     1      -2.207  11.988  23.459  0.00  0.00    +0.000 A 
ATOM     16  C   UNL     1      -1.194  11.920  22.493  0.00  0.00    +0.000 A 
ATOM     17  C   UNL     1      -1.479  12.227  21.157  0.00  0.00    +0.000 A 
ATOM     18  C   UNL     1      -2.783  12.628  20.834  0.00  0.00    +0.000 A 
ATOM     19  C   UNL     1      -3.787  12.711  21.797  0.00  0.00    +0.000 A 
BRANCH  14  21
ATOM     20  C   UNL     1      -5.601  13.143  23.915  0.00  0.00    +0.000 C 
ATOM     21  O   UNL     1      -4.428  12.357  24.124  0.00  0.00    +0.000 OA
ENDBRANCH  14  21
ENDBRANCH   1  17
BRANCH   1  22
ATOM     22  P   UNL     1      -0.311  10.404  19.307  0.00  0.00    +0.000 P 
ATOM     23  O   UNL     1      -1.177  10.049  18.130  0.00  0.00    +0.000 OA
BRANCH  22  24
ATOM     24  O   UNL     1       1.273  10.333  18.956  0.00  0.00    +0.000 OA
ATOM     25  C   UNL     1       1.701   9.481  17.916  0.00  0.00    +0.000 C 
ENDBRANCH  22  24
BRANCH  22  26
ATOM     26  O   UNL     1      -0.407   9.335  20.520  0.00  0.00    +0.000 OA
ATOM     27  C   UNL     1       0.779   9.115  21.261  0.00  0.00    +0.000 C 
ENDBRANCH  22  26
ENDBRANCH   1  22
TORSDOF 6
ENDMDL
