MODEL 1
REMARK VINA RESULT:      -8.6      0.000      0.000
REMARK  Name = 
REMARK  8 active torsions:
REMARK  status: ('A' for Active; 'I' for Inactive)
REMARK    1  A    between atoms: C_1  and  O_2
REMARK    2  A    between atoms: O_2  and  C_3
REMARK    3  A    between atoms: C_5  and  C_6
REMARK    4  A    between atoms: C_7  and  C_8
REMARK    5  A    between atoms: C_22  and  O_23
REMARK    6  A    between atoms: O_23  and  C_24
REMARK    7  A    between atoms: C_25  and  O_26
REMARK    8  A    between atoms: O_26  and  C_27
REMARK                            x       y       z     vdW  Elec       q    Type
REMARK                         _______ _______ _______ _____ _____    ______ ____
ROOT
ATOM      1  C   UNL     1       3.735   3.693  17.345  0.00  0.00    +0.000 C 
ATOM      2  C   UNL     1       2.914   4.329  18.234  0.00  0.00    +0.000 C 
ATOM      3  C   UNL     1       1.876   3.249  18.611  0.00  0.00    +0.000 C 
ATOM      4  O   UNL     1       0.871   3.398  19.277  0.00  0.00    +0.000 OA
ATOM      5  N   UNL     1       2.291   2.056  18.093  0.00  0.00    +0.000 N 
ATOM      6  C   UNL     1       3.337   2.217  17.167  0.00  0.00    +0.000 C 
ATOM      7  H   UNL     1       1.692   1.250  18.179  0.00  0.00    +0.000 HD
ENDROOT
BRANCH   2   8
ATOM      8  C   UNL     1       2.730   5.585  18.922  0.00  0.00    +0.000 A 
ATOM      9  C   UNL     1       3.009   5.660  20.284  0.00  0.00    +0.000 A 
ATOM     10  N   UNL     1       1.928   6.354  20.768  0.00  0.00    +0.000 N 
ATOM     11  C   UNL     1       1.851   7.433  19.926  0.00  0.00    +0.000 A 
ATOM     12  C   UNL     1       1.370   8.716  20.189  0.00  0.00    +0.000 A 
ATOM     13  C   UNL     1       1.503   9.639  19.166  0.00  0.00    +0.000 A 
ATOM     14  C   UNL     1       1.994   9.244  17.921  0.00  0.00    +0.000 A 
ATOM     15  C   UNL     1       2.354   7.901  17.644  0.00  0.00    +0.000 A 
ATOM     16  C   UNL     1       2.347   6.958  18.692  0.00  0.00    +0.000 A 
ATOM     17  H   UNL     1       1.098   5.918  21.156  0.00  0.00    +0.000 HD
ENDBRANCH   2   8
BRANCH   1  20
ATOM     18  C   UNL     1       6.238   3.971  14.497  0.00  0.00    +0.000 A 
ATOM     19  C   UNL     1       5.254   3.434  15.366  0.00  0.00    +0.000 A 
ATOM     20  C   UNL     1       4.973   4.020  16.587  0.00  0.00    +0.000 A 
ATOM     21  C   UNL     1       5.803   5.103  16.967  0.00  0.00    +0.000 A 
ATOM     22  C   UNL     1       6.839   5.610  16.148  0.00  0.00    +0.000 A 
ATOM     23  C   UNL     1       7.073   5.037  14.894  0.00  0.00    +0.000 A 
BRANCH  18  25
ATOM     24  C   UNL     1       5.139   3.439  12.486  0.00  0.00    +0.000 C 
ATOM     25  O   UNL     1       6.357   3.439  13.238  0.00  0.00    +0.000 OA
ENDBRANCH  18  25
BRANCH  22  26
ATOM     26  O   UNL     1       7.459   6.696  16.727  0.00  0.00    +0.000 OA
ATOM     27  C   UNL     1       7.689   6.722  18.131  0.00  0.00    +0.000 C 
ENDBRANCH  22  26
BRANCH  23  28
ATOM     28  O   UNL     1       8.100   5.577  14.176  0.00  0.00    +0.000 OA
ATOM     29  C   UNL     1       8.089   5.603  12.760  0.00  0.00    +0.000 C 
ENDBRANCH  23  28
ENDBRANCH   1  20
TORSDOF 5
ENDMDL
MODEL 2
REMARK VINA RESULT:      -8.6      0.495      2.545
REMARK  Name = 
REMARK  8 active torsions:
REMARK  status: ('A' for Active; 'I' for Inactive)
REMARK    1  A    between atoms: C_1  and  O_2
REMARK    2  A    between atoms: O_2  and  C_3
REMARK    3  A    between atoms: C_5  and  C_6
REMARK    4  A    between atoms: C_7  and  C_8
REMARK    5  A    between atoms: C_22  and  O_23
REMARK    6  A    between atoms: O_23  and  C_24
REMARK    7  A    between atoms: C_25  and  O_26
REMARK    8  A    between atoms: O_26  and  C_27
REMARK                            x       y       z     vdW  Elec       q    Type
REMARK                         _______ _______ _______ _____ _____    ______ ____
ROOT
ATOM      1  C   UNL     1       3.521   4.262  17.327  0.00  0.00    +0.000 C 
ATOM      2  C   UNL     1       2.752   4.848  18.293  0.00  0.00    +0.000 C 
ATOM      3  C   UNL     1       1.866   3.692  18.806  0.00  0.00    +0.000 C 
ATOM      4  O   UNL     1       0.932   3.770  19.581  0.00  0.00    +0.000 OA
ATOM      5  N   UNL     1       2.325   2.526  18.265  0.00  0.00    +0.000 N 
ATOM      6  C   UNL     1       3.241   2.752  17.221  0.00  0.00    +0.000 C 
ATOM      7  H   UNL     1       1.815   1.673  18.433  0.00  0.00    +0.000 HD
ENDROOT
BRANCH   2   8
ATOM      8  C   UNL     1       2.534   6.102  18.975  0.00  0.00    +0.000 A 
ATOM      9  C   UNL     1       2.809   6.189  20.337  0.00  0.00    +0.000 A 
ATOM     10  N   UNL     1       1.709   6.857  20.816  0.00  0.00    +0.000 N 
ATOM     11  C   UNL     1       1.607   7.930  19.969  0.00  0.00    +0.000 A 
ATOM     12  C   UNL     1       1.092   9.202  20.226  0.00  0.00    +0.000 A 
ATOM     13  C   UNL     1       1.203  10.124  19.199  0.00  0.00    +0.000 A 
ATOM     14  C   UNL     1       1.706   9.736  17.957  0.00  0.00    +0.000 A 
ATOM     15  C   UNL     1       2.101   8.401  17.686  0.00  0.00    +0.000 A 
ATOM     16  C   UNL     1       2.117   7.464  18.738  0.00  0.00    +0.000 A 
ATOM     17  H   UNL     1       0.890   6.402  21.204  0.00  0.00    +0.000 HD
ENDBRANCH   2   8
BRANCH   1  20
ATOM     18  C   UNL     1       6.740   5.863  16.089  0.00  0.00    +0.000 A 
ATOM     19  C   UNL     1       5.507   5.690  16.769  0.00  0.00    +0.000 A 
ATOM     20  C   UNL     1       4.631   4.675  16.425  0.00  0.00    +0.000 A 
ATOM     21  C   UNL     1       4.979   3.906  15.288  0.00  0.00    +0.000 A 
ATOM     22  C   UNL     1       6.169   4.109  14.550  0.00  0.00    +0.000 A 
ATOM     23  C   UNL     1       7.067   5.106  14.945  0.00  0.00    +0.000 A 
BRANCH  18  25
ATOM     24  C   UNL     1       7.667   6.860  18.008  0.00  0.00    +0.000 C 
ATOM     25  O   UNL     1       7.630   6.785  16.579  0.00  0.00    +0.000 OA
ENDBRANCH  18  25
BRANCH  22  26
ATOM     26  O   UNL     1       6.293   3.196  13.525  0.00  0.00    +0.000 OA
ATOM     27  C   UNL     1       5.560   3.375  12.318  0.00  0.00    +0.000 C 
ENDBRANCH  22  26
BRANCH  23  28
ATOM     28  O   UNL     1       8.181   5.244  14.169  0.00  0.00    +0.000 OA
ATOM     29  C   UNL     1       8.121   5.796  12.866  0.00  0.00    +0.000 C 
ENDBRANCH  23  28
ENDBRANCH   1  20
TORSDOF 5
ENDMDL
MODEL 3
REMARK VINA RESULT:      -8.2      2.878      6.930
REMARK  Name = 
REMARK  8 active torsions:
REMARK  status: ('A' for Active; 'I' for Inactive)
REMARK    1  A    between atoms: C_1  and  O_2
REMARK    2  A    between atoms: O_2  and  C_3
REMARK    3  A    between atoms: C_5  and  C_6
REMARK    4  A    between atoms: C_7  and  C_8
REMARK    5  A    between atoms: C_22  and  O_23
REMARK    6  A    between atoms: O_23  and  C_24
REMARK    7  A    between atoms: C_25  and  O_26
REMARK    8  A    between atoms: O_26  and  C_27
REMARK                            x       y       z     vdW  Elec       q    Type
REMARK                         _______ _______ _______ _____ _____    ______ ____
ROOT
ATOM      1  C   UNL     1       2.563   5.427  20.025  0.00  0.00    +0.000 C 
ATOM      2  C   UNL     1       3.593   4.703  19.493  0.00  0.00    +0.000 C 
ATOM      3  C   UNL     1       3.276   3.252  19.913  0.00  0.00    +0.000 C 
ATOM      4  O   UNL     1       3.986   2.275  19.774  0.00  0.00    +0.000 OA
ATOM      5  N   UNL     1       2.021   3.225  20.451  0.00  0.00    +0.000 N 
ATOM      6  C   UNL     1       1.533   4.517  20.718  0.00  0.00    +0.000 C 
ATOM      7  H   UNL     1       1.678   2.365  20.850  0.00  0.00    +0.000 HD
ENDROOT
BRANCH   2   8
ATOM      8  C   UNL     1       4.784   4.835  18.687  0.00  0.00    +0.000 A 
ATOM      9  C   UNL     1       5.971   5.239  19.292  0.00  0.00    +0.000 A 
ATOM     10  N   UNL     1       6.447   6.174  18.407  0.00  0.00    +0.000 N 
ATOM     11  C   UNL     1       6.366   5.528  17.201  0.00  0.00    +0.000 A 
ATOM     12  C   UNL     1       7.158   5.694  16.064  0.00  0.00    +0.000 A 
ATOM     13  C   UNL     1       6.904   4.831  15.012  0.00  0.00    +0.000 A 
ATOM     14  C   UNL     1       5.837   3.934  15.080  0.00  0.00    +0.000 A 
ATOM     15  C   UNL     1       4.967   3.879  16.199  0.00  0.00    +0.000 A 
ATOM     16  C   UNL     1       5.265   4.655  17.338  0.00  0.00    +0.000 A 
ATOM     17  H   UNL     1       6.287   7.172  18.492  0.00  0.00    +0.000 HD
ENDBRANCH   2   8
BRANCH   1  20
ATOM     18  C   UNL     1       1.672   8.910  18.787  0.00  0.00    +0.000 A 
ATOM     19  C   UNL     1       2.365   7.682  18.943  0.00  0.00    +0.000 A 
ATOM     20  C   UNL     1       2.118   6.848  20.019  0.00  0.00    +0.000 A 
ATOM     21  C   UNL     1       1.233   7.344  21.007  0.00  0.00    +0.000 A 
ATOM     22  C   UNL     1       0.586   8.598  20.907  0.00  0.00    +0.000 A 
ATOM     23  C   UNL     1       0.809   9.405  19.786  0.00  0.00    +0.000 A 
BRANCH  18  25
ATOM     24  C   UNL     1       2.462  10.892  17.798  0.00  0.00    +0.000 C 
ATOM     25  O   UNL     1       1.846   9.613  17.622  0.00  0.00    +0.000 OA
ENDBRANCH  18  25
BRANCH  22  26
ATOM     26  O   UNL     1      -0.260   8.820  21.972  0.00  0.00    +0.000 OA
ATOM     27  C   UNL     1       0.211   9.503  23.128  0.00  0.00    +0.000 C 
ENDBRANCH  22  26
BRANCH  23  28
ATOM     28  O   UNL     1       0.157  10.604  19.778  0.00  0.00    +0.000 OA
ATOM     29  C   UNL     1      -1.108  10.763  19.162  0.00  0.00    +0.000 C 
ENDBRANCH  23  28
ENDBRANCH   1  20
TORSDOF 5
ENDMDL
MODEL 4
REMARK VINA RESULT:      -7.8      3.020      7.033
REMARK  Name = 
REMARK  8 active torsions:
REMARK  status: ('A' for Active; 'I' for Inactive)
REMARK    1  A    between atoms: C_1  and  O_2
REMARK    2  A    between atoms: O_2  and  C_3
REMARK    3  A    between atoms: C_5  and  C_6
REMARK    4  A    between atoms: C_7  and  C_8
REMARK    5  A    between atoms: C_22  and  O_23
REMARK    6  A    between atoms: O_23  and  C_24
REMARK    7  A    between atoms: C_25  and  O_26
REMARK    8  A    between atoms: O_26  and  C_27
REMARK                            x       y       z     vdW  Elec       q    Type
REMARK                         _______ _______ _______ _____ _____    ______ ____
ROOT
ATOM      1  C   UNL     1       2.350   5.715  19.967  0.00  0.00    +0.000 C 
ATOM      2  C   UNL     1       3.314   4.922  19.410  0.00  0.00    +0.000 C 
ATOM      3  C   UNL     1       2.821   3.487  19.699  0.00  0.00    +0.000 C 
ATOM      4  O   UNL     1       3.424   2.451  19.502  0.00  0.00    +0.000 OA
ATOM      5  N   UNL     1       1.551   3.562  20.194  0.00  0.00    +0.000 N 
ATOM      6  C   UNL     1       1.199   4.876  20.552  0.00  0.00    +0.000 C 
ATOM      7  H   UNL     1       1.099   2.718  20.511  0.00  0.00    +0.000 HD
ENDROOT
BRANCH   2   8
ATOM      8  C   UNL     1       4.543   4.980  18.654  0.00  0.00    +0.000 A 
ATOM      9  C   UNL     1       5.732   5.279  19.315  0.00  0.00    +0.000 A 
ATOM     10  N   UNL     1       6.313   6.194  18.473  0.00  0.00    +0.000 N 
ATOM     11  C   UNL     1       6.232   5.583  17.249  0.00  0.00    +0.000 A 
ATOM     12  C   UNL     1       7.081   5.712  16.148  0.00  0.00    +0.000 A 
ATOM     13  C   UNL     1       6.805   4.894  15.066  0.00  0.00    +0.000 A 
ATOM     14  C   UNL     1       5.672   4.080  15.070  0.00  0.00    +0.000 A 
ATOM     15  C   UNL     1       4.756   4.067  16.152  0.00  0.00    +0.000 A 
ATOM     16  C   UNL     1       5.064   4.793  17.321  0.00  0.00    +0.000 A 
ATOM     17  H   UNL     1       6.225   7.199  18.576  0.00  0.00    +0.000 HD
ENDBRANCH   2   8
BRANCH   1  20
ATOM     18  C   UNL     1       1.229   9.228  19.042  0.00  0.00    +0.000 A 
ATOM     19  C   UNL     1       1.817   7.941  18.941  0.00  0.00    +0.000 A 
ATOM     20  C   UNL     1       2.066   7.173  20.065  0.00  0.00    +0.000 A 
ATOM     21  C   UNL     1       1.817   7.790  21.314  0.00  0.00    +0.000 A 
ATOM     22  C   UNL     1       1.299   9.101  21.441  0.00  0.00    +0.000 A 
ATOM     23  C   UNL     1       1.005   9.843  20.292  0.00  0.00    +0.000 A 
BRANCH  18  25
ATOM     24  C   UNL     1      -0.550   9.942  17.680  0.00  0.00    +0.000 C 
ATOM     25  O   UNL     1       0.864   9.870  17.887  0.00  0.00    +0.000 OA
ENDBRANCH  18  25
BRANCH  22  26
ATOM     26  O   UNL     1       1.100   9.444  22.760  0.00  0.00    +0.000 OA
ATOM     27  C   UNL     1      -0.220   9.529  23.285  0.00  0.00    +0.000 C 
ENDBRANCH  22  26
BRANCH  23  28
ATOM     28  O   UNL     1       0.524  11.102  20.504  0.00  0.00    +0.000 OA
ATOM     29  C   UNL     1       1.369  12.238  20.485  0.00  0.00    +0.000 C 
ENDBRANCH  23  28
ENDBRANCH   1  20
TORSDOF 5
ENDMDL
MODEL 5
REMARK VINA RESULT:      -7.7      2.936      6.958
REMARK  Name = 
REMARK  8 active torsions:
REMARK  status: ('A' for Active; 'I' for Inactive)
REMARK    1  A    between atoms: C_1  and  O_2
REMARK    2  A    between atoms: O_2  and  C_3
REMARK    3  A    between atoms: C_5  and  C_6
REMARK    4  A    between atoms: C_7  and  C_8
REMARK    5  A    between atoms: C_22  and  O_23
REMARK    6  A    between atoms: O_23  and  C_24
REMARK    7  A    between atoms: C_25  and  O_26
REMARK    8  A    between atoms: O_26  and  C_27
REMARK                            x       y       z     vdW  Elec       q    Type
REMARK                         _______ _______ _______ _____ _____    ______ ____
ROOT
ATOM      1  C   UNL     1       2.503   5.436  20.164  0.00  0.00    +0.000 C 
ATOM      2  C   UNL     1       3.267   4.606  19.391  0.00  0.00    +0.000 C 
ATOM      3  C   UNL     1       3.168   3.243  20.108  0.00  0.00    +0.000 C 
ATOM      4  O   UNL     1       3.793   2.232  19.854  0.00  0.00    +0.000 OA
ATOM      5  N   UNL     1       2.218   3.339  21.084  0.00  0.00    +0.000 N 
ATOM      6  C   UNL     1       1.840   4.672  21.324  0.00  0.00    +0.000 C 
ATOM      7  H   UNL     1       2.074   2.559  21.706  0.00  0.00    +0.000 HD
ENDROOT
BRANCH   2   8
ATOM      8  C   UNL     1       4.054   4.577  18.180  0.00  0.00    +0.000 A 
ATOM      9  C   UNL     1       3.602   3.832  17.095  0.00  0.00    +0.000 A 
ATOM     10  N   UNL     1       4.741   3.180  16.692  0.00  0.00    +0.000 N 
ATOM     11  C   UNL     1       5.665   4.190  16.616  0.00  0.00    +0.000 A 
ATOM     12  C   UNL     1       6.781   4.294  15.784  0.00  0.00    +0.000 A 
ATOM     13  C   UNL     1       7.489   5.481  15.860  0.00  0.00    +0.000 A 
ATOM     14  C   UNL     1       7.141   6.448  16.803  0.00  0.00    +0.000 A 
ATOM     15  C   UNL     1       6.080   6.258  17.724  0.00  0.00    +0.000 A 
ATOM     16  C   UNL     1       5.260   5.118  17.599  0.00  0.00    +0.000 A 
ATOM     17  H   UNL     1       4.995   2.243  16.986  0.00  0.00    +0.000 HD
ENDBRANCH   2   8
BRANCH   1  20
ATOM     18  C   UNL     1       1.634   8.891  18.835  0.00  0.00    +0.000 A 
ATOM     19  C   UNL     1       2.325   7.667  19.031  0.00  0.00    +0.000 A 
ATOM     20  C   UNL     1       2.058   6.856  20.119  0.00  0.00    +0.000 A 
ATOM     21  C   UNL     1       1.154   7.372  21.079  0.00  0.00    +0.000 A 
ATOM     22  C   UNL     1       0.509   8.623  20.941  0.00  0.00    +0.000 A 
ATOM     23  C   UNL     1       0.752   9.406  19.808  0.00  0.00    +0.000 A 
BRANCH  18  25
ATOM     24  C   UNL     1       2.428  10.859  17.822  0.00  0.00    +0.000 C 
ATOM     25  O   UNL     1       1.831   9.569  17.659  0.00  0.00    +0.000 OA
ENDBRANCH  18  25
BRANCH  22  26
ATOM     26  O   UNL     1      -0.358   8.866  21.985  0.00  0.00    +0.000 OA
ATOM     27  C   UNL     1       0.114   9.491  23.173  0.00  0.00    +0.000 C 
ENDBRANCH  22  26
BRANCH  23  28
ATOM     28  O   UNL     1       0.100  10.604  19.762  0.00  0.00    +0.000 OA
ATOM     29  C   UNL     1      -1.156  10.748  19.124  0.00  0.00    +0.000 C 
ENDBRANCH  23  28
ENDBRANCH   1  20
TORSDOF 5
ENDMDL
MODEL 6
REMARK VINA RESULT:      -7.4      2.434      4.588
REMARK  Name = 
REMARK  8 active torsions:
REMARK  status: ('A' for Active; 'I' for Inactive)
REMARK    1  A    between atoms: C_1  and  O_2
REMARK    2  A    between atoms: O_2  and  C_3
REMARK    3  A    between atoms: C_5  and  C_6
REMARK    4  A    between atoms: C_7  and  C_8
REMARK    5  A    between atoms: C_22  and  O_23
REMARK    6  A    between atoms: O_23  and  C_24
REMARK    7  A    between atoms: C_25  and  O_26
REMARK    8  A    between atoms: O_26  and  C_27
REMARK                            x       y       z     vdW  Elec       q    Type
REMARK                         _______ _______ _______ _____ _____    ______ ____
ROOT
ATOM      1  C   UNL     1       2.326   6.935  19.261  0.00  0.00    +0.000 C 
ATOM      2  C   UNL     1       1.647   8.103  19.466  0.00  0.00    +0.000 C 
ATOM      3  C   UNL     1       1.104   7.964  20.905  0.00  0.00    +0.000 C 
ATOM      4  O   UNL     1       0.328   8.708  21.472  0.00  0.00    +0.000 OA
ATOM      5  N   UNL     1       1.671   6.860  21.472  0.00  0.00    +0.000 N 
ATOM      6  C   UNL     1       2.323   6.053  20.523  0.00  0.00    +0.000 C 
ATOM      7  H   UNL     1       1.371   6.573  22.391  0.00  0.00    +0.000 HD
ENDROOT
BRANCH   2   8
ATOM      8  C   UNL     1       1.322   9.361  18.835  0.00  0.00    +0.000 A 
ATOM      9  C   UNL     1       2.158   9.855  17.837  0.00  0.00    +0.000 A 
ATOM     10  N   UNL     1       2.281  11.177  18.185  0.00  0.00    +0.000 N 
ATOM     11  C   UNL     1       0.981  11.567  18.380  0.00  0.00    +0.000 A 
ATOM     12  C   UNL     1       0.411  12.830  18.206  0.00  0.00    +0.000 A 
ATOM     13  C   UNL     1      -0.958  12.910  18.389  0.00  0.00    +0.000 A 
ATOM     14  C   UNL     1      -1.677  11.797  18.828  0.00  0.00    +0.000 A 
ATOM     15  C   UNL     1      -1.048  10.561  19.121  0.00  0.00    +0.000 A 
ATOM     16  C   UNL     1       0.323  10.403  18.833  0.00  0.00    +0.000 A 
ATOM     17  H   UNL     1       3.041  11.551  18.742  0.00  0.00    +0.000 HD
ENDBRANCH   2   8
BRANCH   1  20
ATOM     18  C   UNL     1       5.186   6.372  16.820  0.00  0.00    +0.000 A 
ATOM     19  C   UNL     1       4.200   7.034  17.596  0.00  0.00    +0.000 A 
ATOM     20  C   UNL     1       3.156   6.337  18.180  0.00  0.00    +0.000 A 
ATOM     21  C   UNL     1       3.063   4.962  17.858  0.00  0.00    +0.000 A 
ATOM     22  C   UNL     1       3.995   4.296  17.027  0.00  0.00    +0.000 A 
ATOM     23  C   UNL     1       5.073   5.006  16.487  0.00  0.00    +0.000 A 
BRANCH  18  25
ATOM     24  C   UNL     1       7.339   7.151  17.360  0.00  0.00    +0.000 C 
ATOM     25  O   UNL     1       6.277   7.091  16.402  0.00  0.00    +0.000 OA
ENDBRANCH  18  25
BRANCH  22  26
ATOM     26  O   UNL     1       3.708   2.953  16.915  0.00  0.00    +0.000 OA
ATOM     27  C   UNL     1       2.709   2.366  17.741  0.00  0.00    +0.000 C 
ENDBRANCH  22  26
BRANCH  23  28
ATOM     28  O   UNL     1       5.914   4.291  15.685  0.00  0.00    +0.000 OA
ATOM     29  C   UNL     1       5.776   4.284  14.276  0.00  0.00    +0.000 C 
ENDBRANCH  23  28
ENDBRANCH   1  20
TORSDOF 5
ENDMDL
MODEL 7
REMARK VINA RESULT:      -7.4      2.890      6.997
REMARK  Name = 
REMARK  8 active torsions:
REMARK  status: ('A' for Active; 'I' for Inactive)
REMARK    1  A    between atoms: C_1  and  O_2
REMARK    2  A    between atoms: O_2  and  C_3
REMARK    3  A    between atoms: C_5  and  C_6
REMARK    4  A    between atoms: C_7  and  C_8
REMARK    5  A    between atoms: C_22  and  O_23
REMARK    6  A    between atoms: O_23  and  C_24
REMARK    7  A    between atoms: C_25  and  O_26
REMARK    8  A    between atoms: O_26  and  C_27
REMARK                            x       y       z     vdW  Elec       q    Type
REMARK                         _______ _______ _______ _____ _____    ______ ____
ROOT
ATOM      1  C   UNL     1       2.573   5.204  20.069  0.00  0.00    +0.000 C 
ATOM      2  C   UNL     1       3.666   4.574  19.542  0.00  0.00    +0.000 C 
ATOM      3  C   UNL     1       3.519   3.117  20.031  0.00  0.00    +0.000 C 
ATOM      4  O   UNL     1       4.330   2.219  19.915  0.00  0.00    +0.000 OA
ATOM      5  N   UNL     1       2.287   2.977  20.602  0.00  0.00    +0.000 N 
ATOM      6  C   UNL     1       1.665   4.219  20.826  0.00  0.00    +0.000 C 
ATOM      7  H   UNL     1       2.049   2.104  21.045  0.00  0.00    +0.000 HD
ENDROOT
BRANCH   2   8
ATOM      8  C   UNL     1       4.818   4.799  18.702  0.00  0.00    +0.000 A 
ATOM      9  C   UNL     1       5.971   5.342  19.262  0.00  0.00    +0.000 A 
ATOM     10  N   UNL     1       6.329   6.290  18.336  0.00  0.00    +0.000 N 
ATOM     11  C   UNL     1       6.286   5.599  17.153  0.00  0.00    +0.000 A 
ATOM     12  C   UNL     1       7.031   5.806  15.991  0.00  0.00    +0.000 A 
ATOM     13  C   UNL     1       6.843   4.886  14.974  0.00  0.00    +0.000 A 
ATOM     14  C   UNL     1       5.875   3.889  15.098  0.00  0.00    +0.000 A 
ATOM     15  C   UNL     1       5.042   3.783  16.241  0.00  0.00    +0.000 A 
ATOM     16  C   UNL     1       5.284   4.623  17.346  0.00  0.00    +0.000 A 
ATOM     17  H   UNL     1       6.069   7.269  18.394  0.00  0.00    +0.000 HD
ENDBRANCH   2   8
BRANCH   1  20
ATOM     18  C   UNL     1       1.204   8.575  21.172  0.00  0.00    +0.000 A 
ATOM     19  C   UNL     1       1.465   7.181  21.145  0.00  0.00    +0.000 A 
ATOM     20  C   UNL     1       1.974   6.566  20.015  0.00  0.00    +0.000 A 
ATOM     21  C   UNL     1       2.102   7.378  18.862  0.00  0.00    +0.000 A 
ATOM     22  C   UNL     1       1.778   8.756  18.846  0.00  0.00    +0.000 A 
ATOM     23  C   UNL     1       1.313   9.372  20.013  0.00  0.00    +0.000 A 
BRANCH  18  25
ATOM     24  C   UNL     1      -0.558   9.144  22.623  0.00  0.00    +0.000 C 
ATOM     25  O   UNL     1       0.850   9.149  22.367  0.00  0.00    +0.000 OA
ENDBRANCH  18  25
BRANCH  22  26
ATOM     26  O   UNL     1       2.041   9.325  17.619  0.00  0.00    +0.000 OA
ATOM     27  C   UNL     1       2.694  10.587  17.543  0.00  0.00    +0.000 C 
ENDBRANCH  22  26
BRANCH  23  28
ATOM     28  O   UNL     1       1.010  10.698  19.905  0.00  0.00    +0.000 OA
ATOM     29  C   UNL     1      -0.286  11.142  19.548  0.00  0.00    +0.000 C 
ENDBRANCH  23  28
ENDBRANCH   1  20
TORSDOF 5
ENDMDL
MODEL 8
REMARK VINA RESULT:      -7.3      6.237     11.073
REMARK  Name = 
REMARK  8 active torsions:
REMARK  status: ('A' for Active; 'I' for Inactive)
REMARK    1  A    between atoms: C_1  and  O_2
REMARK    2  A    between atoms: O_2  and  C_3
REMARK    3  A    between atoms: C_5  and  C_6
REMARK    4  A    between atoms: C_7  and  C_8
REMARK    5  A    between atoms: C_22  and  O_23
REMARK    6  A    between atoms: O_23  and  C_24
REMARK    7  A    between atoms: C_25  and  O_26
REMARK    8  A    between atoms: O_26  and  C_27
REMARK                            x       y       z     vdW  Elec       q    Type
REMARK                         _______ _______ _______ _____ _____    ______ ____
ROOT
ATOM      1  C   UNL     1      -1.462  12.360  20.075  0.00  0.00    +0.000 C 
ATOM      2  C   UNL     1      -0.352  11.599  20.312  0.00  0.00    +0.000 C 
ATOM      3  C   UNL     1       0.647  12.594  20.941  0.00  0.00    +0.000 C 
ATOM      4  O   UNL     1       1.819  12.395  21.197  0.00  0.00    +0.000 OA
ATOM      5  N   UNL     1      -0.015  13.758  21.204  0.00  0.00    +0.000 N 
ATOM      6  C   UNL     1      -1.276  13.801  20.584  0.00  0.00    +0.000 C 
ATOM      7  H   UNL     1       0.505  14.550  21.549  0.00  0.00    +0.000 HD
ENDROOT
BRANCH   2   8
ATOM      8  C   UNL     1       0.150  10.248  20.210  0.00  0.00    +0.000 A 
ATOM      9  C   UNL     1      -0.266   9.298  21.138  0.00  0.00    +0.000 A 
ATOM     10  N   UNL     1       0.911   8.671  21.465  0.00  0.00    +0.000 N 
ATOM     11  C   UNL     1       1.456   8.381  20.241  0.00  0.00    +0.000 A 
ATOM     12  C   UNL     1       2.301   7.328  19.887  0.00  0.00    +0.000 A 
ATOM     13  C   UNL     1       2.623   7.230  18.544  0.00  0.00    +0.000 A 
ATOM     14  C   UNL     1       2.198   8.209  17.646  0.00  0.00    +0.000 A 
ATOM     15  C   UNL     1       1.448   9.339  18.059  0.00  0.00    +0.000 A 
ATOM     16  C   UNL     1       0.998   9.413  19.393  0.00  0.00    +0.000 A 
ATOM     17  H   UNL     1       1.486   8.920  22.262  0.00  0.00    +0.000 HD
ENDBRANCH   2   8
BRANCH   1  20
ATOM     18  C   UNL     1      -5.220  12.683  19.599  0.00  0.00    +0.000 A 
ATOM     19  C   UNL     1      -3.955  12.594  20.234  0.00  0.00    +0.000 A 
ATOM     20  C   UNL     1      -2.839  12.138  19.554  0.00  0.00    +0.000 A 
ATOM     21  C   UNL     1      -3.059  11.655  18.242  0.00  0.00    +0.000 A 
ATOM     22  C   UNL     1      -4.327  11.666  17.615  0.00  0.00    +0.000 A 
ATOM     23  C   UNL     1      -5.433  12.179  18.299  0.00  0.00    +0.000 A 
BRANCH  18  25
ATOM     24  C   UNL     1      -6.646  12.605  21.469  0.00  0.00    +0.000 C 
ATOM     25  O   UNL     1      -6.248  13.289  20.276  0.00  0.00    +0.000 OA
ENDBRANCH  18  25
BRANCH  22  26
ATOM     26  O   UNL     1      -4.259  11.190  16.323  0.00  0.00    +0.000 OA
ATOM     27  C   UNL     1      -2.999  10.858  15.750  0.00  0.00    +0.000 C 
ENDBRANCH  22  26
BRANCH  23  28
ATOM     28  O   UNL     1      -6.620  12.138  17.626  0.00  0.00    +0.000 OA
ATOM     29  C   UNL     1      -7.098  13.246  16.885  0.00  0.00    +0.000 C 
ENDBRANCH  23  28
ENDBRANCH   1  20
TORSDOF 5
ENDMDL
MODEL 9
REMARK VINA RESULT:      -7.3      2.349      4.465
REMARK  Name = 
REMARK  8 active torsions:
REMARK  status: ('A' for Active; 'I' for Inactive)
REMARK    1  A    between atoms: C_1  and  O_2
REMARK    2  A    between atoms: O_2  and  C_3
REMARK    3  A    between atoms: C_5  and  C_6
REMARK    4  A    between atoms: C_7  and  C_8
REMARK    5  A    between atoms: C_22  and  O_23
REMARK    6  A    between atoms: O_23  and  C_24
REMARK    7  A    between atoms: C_25  and  O_26
REMARK    8  A    between atoms: O_26  and  C_27
REMARK                            x       y       z     vdW  Elec       q    Type
REMARK                         _______ _______ _______ _____ _____    ______ ____
ROOT
ATOM      1  C   UNL     1       2.418   6.786  19.309  0.00  0.00    +0.000 C 
ATOM      2  C   UNL     1       1.769   7.954  19.596  0.00  0.00    +0.000 C 
ATOM      3  C   UNL     1       1.088   7.670  20.952  0.00  0.00    +0.000 C 
ATOM      4  O   UNL     1       0.292   8.379  21.537  0.00  0.00    +0.000 OA
ATOM      5  N   UNL     1       1.555   6.478  21.426  0.00  0.00    +0.000 N 
ATOM      6  C   UNL     1       2.262   5.760  20.445  0.00  0.00    +0.000 C 
ATOM      7  H   UNL     1       1.159   6.098  22.271  0.00  0.00    +0.000 HD
ENDROOT
BRANCH   2   8
ATOM      8  C   UNL     1       1.555   9.293  19.100  0.00  0.00    +0.000 A 
ATOM      9  C   UNL     1       1.425   9.497  17.729  0.00  0.00    +0.000 A 
ATOM     10  N   UNL     1       2.223  10.594  17.518  0.00  0.00    +0.000 N 
ATOM     11  C   UNL     1       1.800  11.473  18.482  0.00  0.00    +0.000 A 
ATOM     12  C   UNL     1       1.802  12.869  18.455  0.00  0.00    +0.000 A 
ATOM     13  C   UNL     1       1.224  13.500  19.542  0.00  0.00    +0.000 A 
ATOM     14  C   UNL     1       0.774  12.754  20.632  0.00  0.00    +0.000 A 
ATOM     15  C   UNL     1       0.905  11.343  20.686  0.00  0.00    +0.000 A 
ATOM     16  C   UNL     1       1.377  10.654  19.551  0.00  0.00    +0.000 A 
ATOM     17  H   UNL     1       3.193  10.545  17.226  0.00  0.00    +0.000 HD
ENDBRANCH   2   8
BRANCH   1  20
ATOM     18  C   UNL     1       5.370   6.521  16.927  0.00  0.00    +0.000 A 
ATOM     19  C   UNL     1       4.311   7.079  17.688  0.00  0.00    +0.000 A 
ATOM     20  C   UNL     1       3.323   6.282  18.239  0.00  0.00    +0.000 A 
ATOM     21  C   UNL     1       3.363   4.909  17.898  0.00  0.00    +0.000 A 
ATOM     22  C   UNL     1       4.369   4.343  17.080  0.00  0.00    +0.000 A 
ATOM     23  C   UNL     1       5.389   5.156  16.575  0.00  0.00    +0.000 A 
BRANCH  18  25
ATOM     24  C   UNL     1       7.466   7.426  17.495  0.00  0.00    +0.000 C 
ATOM     25  O   UNL     1       6.400   7.342  16.544  0.00  0.00    +0.000 OA
ENDBRANCH  18  25
BRANCH  22  26
ATOM     26  O   UNL     1       4.208   2.981  16.946  0.00  0.00    +0.000 OA
ATOM     27  C   UNL     1       3.453   2.253  17.907  0.00  0.00    +0.000 C 
ENDBRANCH  22  26
BRANCH  23  28
ATOM     28  O   UNL     1       6.310   4.532  15.783  0.00  0.00    +0.000 OA
ATOM     29  C   UNL     1       6.152   4.448  14.379  0.00  0.00    +0.000 C 
ENDBRANCH  23  28
ENDBRANCH   1  20
TORSDOF 5
ENDMDL
