MODEL 1
REMARK VINA RESULT:      -8.0      0.000      0.000
REMARK  Name = 
REMARK  7 active torsions:
REMARK  status: ('A' for Active; 'I' for Inactive)
REMARK    1  A    between atoms: C_2  and  C_3
REMARK    2  A    between atoms: C_3  and  N_4
REMARK    3  A    between atoms: N_10  and  N_11
REMARK    4  A    between atoms: C_12  and  C_14
REMARK    5  A    between atoms: C_14  and  O_15
REMARK    6  A    between atoms: C_14  and  C_16
REMARK    7  A    between atoms: C_14  and  C_22
REMARK                            x       y       z     vdW  Elec       q    Type
REMARK                         _______ _______ _______ _____ _____    ______ ____
ROOT
ATOM      1  C   UNL     1       5.690   5.172  15.798  0.00  0.00    +0.000 C 
ENDROOT
BRANCH   1   2
ATOM      2  C   UNL     1       6.664   5.677  16.886  0.00  0.00    +0.000 A 
ATOM      3  C   UNL     1       7.200   4.840  17.877  0.00  0.00    +0.000 A 
ATOM      4  C   UNL     1       7.987   5.355  18.918  0.00  0.00    +0.000 A 
ATOM      5  C   UNL     1       8.263   6.717  18.979  0.00  0.00    +0.000 A 
ATOM      6  C   UNL     1       7.768   7.564  17.996  0.00  0.00    +0.000 A 
ATOM      7  C   UNL     1       6.973   7.051  16.964  0.00  0.00    +0.000 A 
ENDBRANCH   1   2
BRANCH   1   8
ATOM      8  C   UNL     1       6.312   4.745  14.457  0.00  0.00    +0.000 A 
ATOM      9  C   UNL     1       5.697   3.806  13.606  0.00  0.00    +0.000 A 
ATOM     10  C   UNL     1       6.224   3.517  12.342  0.00  0.00    +0.000 A 
ATOM     11  C   UNL     1       7.365   4.172  11.893  0.00  0.00    +0.000 A 
ATOM     12  C   UNL     1       7.977   5.122  12.702  0.00  0.00    +0.000 A 
ATOM     13  C   UNL     1       7.453   5.410  13.966  0.00  0.00    +0.000 A 
ENDBRANCH   1   8
BRANCH   1  15
ATOM     14  N   UNL     1       3.435   4.511  16.705  0.00  0.00    +0.000 N 
ATOM     15  C   UNL     1       4.739   4.091  16.440  0.00  0.00    +0.000 C 
ATOM     16  O   UNL     1       5.168   2.962  16.705  0.00  0.00    +0.000 OA
ATOM     17  H   UNL     1       3.245   5.501  16.699  0.00  0.00    +0.000 HD
BRANCH  14  24
ATOM     18  N   UNL     1       2.651   4.314  19.616  0.00  0.00    +0.000 N 
ATOM     19  C   UNL     1       2.169   3.887  20.846  0.00  0.00    +0.000 C 
ATOM     20  O   UNL     1       2.482   4.369  21.931  0.00  0.00    +0.000 OA
ATOM     21  C   UNL     1       1.191   2.757  20.734  0.00  0.00    +0.000 C 
ATOM     22  S   UNL     1       1.135   2.324  18.994  0.00  0.00    +0.000 S 
ATOM     23  C   UNL     1       2.264   3.587  18.524  0.00  0.00    +0.000 C 
ATOM     24  N   UNL     1       2.557   3.637  17.263  0.00  0.00    +0.000 NA
BRANCH  18  25
ATOM     25  C   UNL     1       3.468   5.512  19.619  0.00  0.00    +0.000 C 
BRANCH  25  27
ATOM     26  C   UNL     1       2.564   7.444  18.308  0.00  0.00    +0.000 C 
ATOM     27  C   UNL     1       2.605   6.727  19.437  0.00  0.00    +0.000 C 
ENDBRANCH  25  27
ENDBRANCH  18  25
ENDBRANCH  14  24
ENDBRANCH   1  15
BRANCH   1  28
ATOM     28  O   UNL     1       4.870   6.296  15.406  0.00  0.00    +0.000 OA
ATOM     29  H   UNL     1       4.046   5.903  15.058  0.00  0.00    +0.000 HD
ENDBRANCH   1  28
TORSDOF 7
ENDMDL
MODEL 2
REMARK VINA RESULT:      -7.5      0.287      1.018
REMARK  Name = 
REMARK  7 active torsions:
REMARK  status: ('A' for Active; 'I' for Inactive)
REMARK    1  A    between atoms: C_2  and  C_3
REMARK    2  A    between atoms: C_3  and  N_4
REMARK    3  A    between atoms: N_10  and  N_11
REMARK    4  A    between atoms: C_12  and  C_14
REMARK    5  A    between atoms: C_14  and  O_15
REMARK    6  A    between atoms: C_14  and  C_16
REMARK    7  A    between atoms: C_14  and  C_22
REMARK                            x       y       z     vdW  Elec       q    Type
REMARK                         _______ _______ _______ _____ _____    ______ ____
ROOT
ATOM      1  C   UNL     1       5.546   5.248  15.845  0.00  0.00    +0.000 C 
ENDROOT
BRANCH   1   2
ATOM      2  C   UNL     1       6.459   5.824  16.950  0.00  0.00    +0.000 A 
ATOM      3  C   UNL     1       6.817   7.180  17.013  0.00  0.00    +0.000 A 
ATOM      4  C   UNL     1       7.740   7.647  17.960  0.00  0.00    +0.000 A 
ATOM      5  C   UNL     1       8.315   6.767  18.871  0.00  0.00    +0.000 A 
ATOM      6  C   UNL     1       7.958   5.425  18.849  0.00  0.00    +0.000 A 
ATOM      7  C   UNL     1       7.045   4.958  17.896  0.00  0.00    +0.000 A 
ENDBRANCH   1   2
BRANCH   1   8
ATOM      8  C   UNL     1       6.234   4.798  14.545  0.00  0.00    +0.000 A 
ATOM      9  C   UNL     1       5.656   3.854  13.673  0.00  0.00    +0.000 A 
ATOM     10  C   UNL     1       6.247   3.543  12.443  0.00  0.00    +0.000 A 
ATOM     11  C   UNL     1       7.418   4.182  12.048  0.00  0.00    +0.000 A 
ATOM     12  C   UNL     1       7.995   5.137  12.877  0.00  0.00    +0.000 A 
ATOM     13  C   UNL     1       7.406   5.446  14.107  0.00  0.00    +0.000 A 
ENDBRANCH   1   8
BRANCH   1  15
ATOM     14  N   UNL     1       3.305   4.567  16.771  0.00  0.00    +0.000 N 
ATOM     15  C   UNL     1       4.608   4.156  16.488  0.00  0.00    +0.000 C 
ATOM     16  O   UNL     1       5.047   3.028  16.739  0.00  0.00    +0.000 OA
ATOM     17  H   UNL     1       3.109   5.555  16.775  0.00  0.00    +0.000 HD
BRANCH  14  24
ATOM     18  N   UNL     1       2.588   4.311  19.694  0.00  0.00    +0.000 N 
ATOM     19  C   UNL     1       2.134   3.860  20.926  0.00  0.00    +0.000 C 
ATOM     20  O   UNL     1       2.472   4.319  22.013  0.00  0.00    +0.000 OA
ATOM     21  C   UNL     1       1.150   2.734  20.813  0.00  0.00    +0.000 C 
ATOM     22  S   UNL     1       1.053   2.337  19.067  0.00  0.00    +0.000 S 
ATOM     23  C   UNL     1       2.174   3.607  18.597  0.00  0.00    +0.000 C 
ATOM     24  N   UNL     1       2.438   3.682  17.331  0.00  0.00    +0.000 NA
BRANCH  18  25
ATOM     25  C   UNL     1       3.407   5.507  19.703  0.00  0.00    +0.000 C 
BRANCH  25  27
ATOM     26  C   UNL     1       1.918   7.432  20.288  0.00  0.00    +0.000 C 
ATOM     27  C   UNL     1       2.571   6.709  19.371  0.00  0.00    +0.000 C 
ENDBRANCH  25  27
ENDBRANCH  18  25
ENDBRANCH  14  24
ENDBRANCH   1  15
BRANCH   1  28
ATOM     28  O   UNL     1       4.704   6.328  15.382  0.00  0.00    +0.000 OA
ATOM     29  H   UNL     1       4.196   6.610  16.168  0.00  0.00    +0.000 HD
ENDBRANCH   1  28
TORSDOF 7
ENDMDL
MODEL 3
REMARK VINA RESULT:      -7.5      2.471      3.922
REMARK  Name = 
REMARK  7 active torsions:
REMARK  status: ('A' for Active; 'I' for Inactive)
REMARK    1  A    between atoms: C_2  and  C_3
REMARK    2  A    between atoms: C_3  and  N_4
REMARK    3  A    between atoms: N_10  and  N_11
REMARK    4  A    between atoms: C_12  and  C_14
REMARK    5  A    between atoms: C_14  and  O_15
REMARK    6  A    between atoms: C_14  and  C_16
REMARK    7  A    between atoms: C_14  and  C_22
REMARK                            x       y       z     vdW  Elec       q    Type
REMARK                         _______ _______ _______ _____ _____    ______ ____
ROOT
ATOM      1  C   UNL     1       5.782   4.993  16.995  0.00  0.00    +0.000 C 
ENDROOT
BRANCH   1   2
ATOM      2  C   UNL     1       4.890   3.998  17.771  0.00  0.00    +0.000 A 
ATOM      3  C   UNL     1       5.123   3.651  19.112  0.00  0.00    +0.000 A 
ATOM      4  C   UNL     1       4.366   2.657  19.749  0.00  0.00    +0.000 A 
ATOM      5  C   UNL     1       3.352   1.999  19.060  0.00  0.00    +0.000 A 
ATOM      6  C   UNL     1       3.082   2.342  17.742  0.00  0.00    +0.000 A 
ATOM      7  C   UNL     1       3.846   3.326  17.103  0.00  0.00    +0.000 A 
ENDBRANCH   1   2
BRANCH   1   8
ATOM      8  C   UNL     1       6.128   4.624  15.543  0.00  0.00    +0.000 A 
ATOM      9  C   UNL     1       5.229   3.933  14.706  0.00  0.00    +0.000 A 
ATOM     10  C   UNL     1       5.521   3.706  13.356  0.00  0.00    +0.000 A 
ATOM     11  C   UNL     1       6.707   4.180  12.807  0.00  0.00    +0.000 A 
ATOM     12  C   UNL     1       7.601   4.888  13.604  0.00  0.00    +0.000 A 
ATOM     13  C   UNL     1       7.311   5.113  14.953  0.00  0.00    +0.000 A 
ENDBRANCH   1   8
BRANCH   1  15
ATOM     14  N   UNL     1       3.792   6.532  17.112  0.00  0.00    +0.000 N 
ATOM     15  C   UNL     1       5.184   6.441  17.167  0.00  0.00    +0.000 C 
ATOM     16  O   UNL     1       5.934   7.413  17.307  0.00  0.00    +0.000 OA
ATOM     17  H   UNL     1       3.279   5.747  16.744  0.00  0.00    +0.000 HD
BRANCH  14  24
ATOM     18  N   UNL     1       2.197   7.539  19.471  0.00  0.00    +0.000 N 
ATOM     19  C   UNL     1       1.346   8.253  20.305  0.00  0.00    +0.000 C 
ATOM     20  O   UNL     1       0.892   7.840  21.369  0.00  0.00    +0.000 OA
ATOM     21  C   UNL     1       1.029   9.623  19.787  0.00  0.00    +0.000 C 
ATOM     22  S   UNL     1       1.813   9.735  18.178  0.00  0.00    +0.000 S 
ATOM     23  C   UNL     1       2.516   8.128  18.279  0.00  0.00    +0.000 C 
ATOM     24  N   UNL     1       3.201   7.749  17.247  0.00  0.00    +0.000 NA
BRANCH  18  25
ATOM     25  C   UNL     1       2.691   6.274  19.979  0.00  0.00    +0.000 C 
BRANCH  25  27
ATOM     26  C   UNL     1       1.152   4.394  20.582  0.00  0.00    +0.000 C 
ATOM     27  C   UNL     1       1.722   5.174  19.656  0.00  0.00    +0.000 C 
ENDBRANCH  25  27
ENDBRANCH  18  25
ENDBRANCH  14  24
ENDBRANCH   1  15
BRANCH   1  28
ATOM     28  O   UNL     1       7.082   4.981  17.627  0.00  0.00    +0.000 OA
ATOM     29  H   UNL     1       7.542   5.770  17.281  0.00  0.00    +0.000 HD
ENDBRANCH   1  28
TORSDOF 7
ENDMDL
MODEL 4
REMARK VINA RESULT:      -7.4      2.523      3.839
REMARK  Name = 
REMARK  7 active torsions:
REMARK  status: ('A' for Active; 'I' for Inactive)
REMARK    1  A    between atoms: C_2  and  C_3
REMARK    2  A    between atoms: C_3  and  N_4
REMARK    3  A    between atoms: N_10  and  N_11
REMARK    4  A    between atoms: C_12  and  C_14
REMARK    5  A    between atoms: C_14  and  O_15
REMARK    6  A    between atoms: C_14  and  C_16
REMARK    7  A    between atoms: C_14  and  C_22
REMARK                            x       y       z     vdW  Elec       q    Type
REMARK                         _______ _______ _______ _____ _____    ______ ____
ROOT
ATOM      1  C   UNL     1       5.697   5.126  16.188  0.00  0.00    +0.000 C 
ENDROOT
BRANCH   1   2
ATOM      2  C   UNL     1       4.917   4.116  17.060  0.00  0.00    +0.000 A 
ATOM      3  C   UNL     1       3.727   3.504  16.637  0.00  0.00    +0.000 A 
ATOM      4  C   UNL     1       2.984   2.682  17.498  0.00  0.00    +0.000 A 
ATOM      5  C   UNL     1       3.426   2.448  18.796  0.00  0.00    +0.000 A 
ATOM      6  C   UNL     1       4.615   3.019  19.232  0.00  0.00    +0.000 A 
ATOM      7  C   UNL     1       5.349   3.847  18.375  0.00  0.00    +0.000 A 
ENDBRANCH   1   2
BRANCH   1   8
ATOM      8  C   UNL     1       6.147   4.639  14.800  0.00  0.00    +0.000 A 
ATOM      9  C   UNL     1       5.334   3.826  13.986  0.00  0.00    +0.000 A 
ATOM     10  C   UNL     1       5.718   3.488  12.683  0.00  0.00    +0.000 A 
ATOM     11  C   UNL     1       6.913   3.968  12.159  0.00  0.00    +0.000 A 
ATOM     12  C   UNL     1       7.722   4.793  12.932  0.00  0.00    +0.000 A 
ATOM     13  C   UNL     1       7.340   5.130  14.234  0.00  0.00    +0.000 A 
ENDBRANCH   1   8
BRANCH   1  15
ATOM     14  N   UNL     1       4.085   6.730  17.271  0.00  0.00    +0.000 N 
ATOM     15  C   UNL     1       4.901   6.487  16.166  0.00  0.00    +0.000 C 
ATOM     16  O   UNL     1       4.997   7.249  15.197  0.00  0.00    +0.000 OA
ATOM     17  H   UNL     1       3.869   5.958  17.881  0.00  0.00    +0.000 HD
BRANCH  14  24
ATOM     18  N   UNL     1       2.244   7.637  19.487  0.00  0.00    +0.000 N 
ATOM     19  C   UNL     1       1.271   8.283  20.240  0.00  0.00    +0.000 C 
ATOM     20  O   UNL     1       0.795   7.858  21.289  0.00  0.00    +0.000 OA
ATOM     21  C   UNL     1       0.847   9.594  19.650  0.00  0.00    +0.000 C 
ATOM     22  S   UNL     1       1.717   9.737  18.089  0.00  0.00    +0.000 S 
ATOM     23  C   UNL     1       2.577   8.217  18.295  0.00  0.00    +0.000 C 
ATOM     24  N   UNL     1       3.363   7.881  17.322  0.00  0.00    +0.000 NA
BRANCH  18  25
ATOM     25  C   UNL     1       2.834   6.449  20.073  0.00  0.00    +0.000 C 
BRANCH  25  27
ATOM     26  C   UNL     1       1.679   4.418  20.973  0.00  0.00    +0.000 C 
ATOM     27  C   UNL     1       1.874   5.298  19.984  0.00  0.00    +0.000 C 
ENDBRANCH  25  27
ENDBRANCH  18  25
ENDBRANCH  14  24
ENDBRANCH   1  15
BRANCH   1  28
ATOM     28  O   UNL     1       6.960   5.370  16.847  0.00  0.00    +0.000 OA
ATOM     29  H   UNL     1       7.294   6.202  16.459  0.00  0.00    +0.000 HD
ENDBRANCH   1  28
TORSDOF 7
ENDMDL
MODEL 5
REMARK VINA RESULT:      -7.2      1.231      3.892
REMARK  Name = 
REMARK  7 active torsions:
REMARK  status: ('A' for Active; 'I' for Inactive)
REMARK    1  A    between atoms: C_2  and  C_3
REMARK    2  A    between atoms: C_3  and  N_4
REMARK    3  A    between atoms: N_10  and  N_11
REMARK    4  A    between atoms: C_12  and  C_14
REMARK    5  A    between atoms: C_14  and  O_15
REMARK    6  A    between atoms: C_14  and  C_16
REMARK    7  A    between atoms: C_14  and  C_22
REMARK                            x       y       z     vdW  Elec       q    Type
REMARK                         _______ _______ _______ _____ _____    ______ ____
ROOT
ATOM      1  C   UNL     1       6.650   4.591  16.430  0.00  0.00    +0.000 C 
ENDROOT
BRANCH   1   2
ATOM      2  C   UNL     1       6.757   4.560  14.888  0.00  0.00    +0.000 A 
ATOM      3  C   UNL     1       6.002   3.686  14.090  0.00  0.00    +0.000 A 
ATOM      4  C   UNL     1       6.209   3.602  12.705  0.00  0.00    +0.000 A 
ATOM      5  C   UNL     1       7.169   4.401  12.091  0.00  0.00    +0.000 A 
ATOM      6  C   UNL     1       7.911   5.294  12.853  0.00  0.00    +0.000 A 
ATOM      7  C   UNL     1       7.711   5.369  14.237  0.00  0.00    +0.000 A 
ENDBRANCH   1   2
BRANCH   1   8
ATOM      8  C   UNL     1       6.999   5.921  17.120  0.00  0.00    +0.000 A 
ATOM      9  C   UNL     1       7.908   5.998  18.194  0.00  0.00    +0.000 A 
ATOM     10  C   UNL     1       8.294   7.231  18.732  0.00  0.00    +0.000 A 
ATOM     11  C   UNL     1       7.795   8.415  18.199  0.00  0.00    +0.000 A 
ATOM     12  C   UNL     1       6.917   8.369  17.122  0.00  0.00    +0.000 A 
ATOM     13  C   UNL     1       6.530   7.137  16.585  0.00  0.00    +0.000 A 
ENDBRANCH   1   8
BRANCH   1  15
ATOM     14  N   UNL     1       5.188   3.438  18.125  0.00  0.00    +0.000 N 
ATOM     15  C   UNL     1       5.252   3.996  16.848  0.00  0.00    +0.000 C 
ATOM     16  O   UNL     1       4.305   4.014  16.053  0.00  0.00    +0.000 OA
ATOM     17  H   UNL     1       6.054   3.236  18.599  0.00  0.00    +0.000 HD
BRANCH  14  24
ATOM     18  N   UNL     1       2.952   4.853  19.583  0.00  0.00    +0.000 N 
ATOM     19  C   UNL     1       1.825   5.153  20.337  0.00  0.00    +0.000 C 
ATOM     20  O   UNL     1       1.586   6.246  20.842  0.00  0.00    +0.000 OA
ATOM     21  C   UNL     1       0.885   3.994  20.476  0.00  0.00    +0.000 C 
ATOM     22  S   UNL     1       1.695   2.605  19.681  0.00  0.00    +0.000 S 
ATOM     23  C   UNL     1       3.092   3.551  19.189  0.00  0.00    +0.000 C 
ATOM     24  N   UNL     1       4.016   2.900  18.556  0.00  0.00    +0.000 NA
BRANCH  18  25
ATOM     25  C   UNL     1       3.827   5.961  19.255  0.00  0.00    +0.000 C 
BRANCH  25  27
ATOM     26  C   UNL     1       2.880   7.911  18.001  0.00  0.00    +0.000 C 
ATOM     27  C   UNL     1       3.341   6.654  18.015  0.00  0.00    +0.000 C 
ENDBRANCH  25  27
ENDBRANCH  18  25
ENDBRANCH  14  24
ENDBRANCH   1  15
BRANCH   1  28
ATOM     28  O   UNL     1       7.672   3.708  16.945  0.00  0.00    +0.000 OA
ATOM     29  H   UNL     1       8.486   4.248  16.975  0.00  0.00    +0.000 HD
ENDBRANCH   1  28
TORSDOF 7
ENDMDL
MODEL 6
REMARK VINA RESULT:      -7.0      0.906      3.904
REMARK  Name = 
REMARK  7 active torsions:
REMARK  status: ('A' for Active; 'I' for Inactive)
REMARK    1  A    between atoms: C_2  and  C_3
REMARK    2  A    between atoms: C_3  and  N_4
REMARK    3  A    between atoms: N_10  and  N_11
REMARK    4  A    between atoms: C_12  and  C_14
REMARK    5  A    between atoms: C_14  and  O_15
REMARK    6  A    between atoms: C_14  and  C_16
REMARK    7  A    between atoms: C_14  and  C_22
REMARK                            x       y       z     vdW  Elec       q    Type
REMARK                         _______ _______ _______ _____ _____    ______ ____
ROOT
ATOM      1  C   UNL     1       6.349   4.445  16.173  0.00  0.00    +0.000 C 
ENDROOT
BRANCH   1   2
ATOM      2  C   UNL     1       6.534   4.458  14.639  0.00  0.00    +0.000 A 
ATOM      3  C   UNL     1       5.777   3.653  13.773  0.00  0.00    +0.000 A 
ATOM      4  C   UNL     1       6.051   3.603  12.398  0.00  0.00    +0.000 A 
ATOM      5  C   UNL     1       7.082   4.368  11.862  0.00  0.00    +0.000 A 
ATOM      6  C   UNL     1       7.829   5.194  12.692  0.00  0.00    +0.000 A 
ATOM      7  C   UNL     1       7.562   5.234  14.065  0.00  0.00    +0.000 A 
ENDBRANCH   1   2
BRANCH   1   8
ATOM      8  C   UNL     1       7.012   5.589  16.959  0.00  0.00    +0.000 A 
ATOM      9  C   UNL     1       6.872   6.940  16.585  0.00  0.00    +0.000 A 
ATOM     10  C   UNL     1       7.391   7.971  17.377  0.00  0.00    +0.000 A 
ATOM     11  C   UNL     1       8.043   7.676  18.570  0.00  0.00    +0.000 A 
ATOM     12  C   UNL     1       8.171   6.353  18.976  0.00  0.00    +0.000 A 
ATOM     13  C   UNL     1       7.655   5.323  18.184  0.00  0.00    +0.000 A 
ENDBRANCH   1   8
BRANCH   1  15
ATOM     14  N   UNL     1       4.471   3.025  17.069  0.00  0.00    +0.000 N 
ATOM     15  C   UNL     1       4.818   4.247  16.492  0.00  0.00    +0.000 C 
ATOM     16  O   UNL     1       4.002   5.131  16.204  0.00  0.00    +0.000 OA
ATOM     17  H   UNL     1       5.143   2.275  17.032  0.00  0.00    +0.000 HD
BRANCH  14  24
ATOM     18  N   UNL     1       3.103   3.408  19.734  0.00  0.00    +0.000 N 
ATOM     19  C   UNL     1       2.219   3.359  20.804  0.00  0.00    +0.000 C 
ATOM     20  O   UNL     1       2.500   3.650  21.964  0.00  0.00    +0.000 OA
ATOM     21  C   UNL     1       0.842   2.920  20.409  0.00  0.00    +0.000 C 
ATOM     22  S   UNL     1       0.937   2.504  18.668  0.00  0.00    +0.000 S 
ATOM     23  C   UNL     1       2.633   2.949  18.535  0.00  0.00    +0.000 C 
ATOM     24  N   UNL     1       3.169   2.778  17.368  0.00  0.00    +0.000 NA
BRANCH  18  25
ATOM     25  C   UNL     1       4.407   3.986  19.996  0.00  0.00    +0.000 C 
BRANCH  25  27
ATOM     26  C   UNL     1       3.290   6.143  19.389  0.00  0.00    +0.000 C 
ATOM     27  C   UNL     1       4.402   5.447  19.652  0.00  0.00    +0.000 C 
ENDBRANCH  25  27
ENDBRANCH  18  25
ENDBRANCH  14  24
ENDBRANCH   1  15
BRANCH   1  28
ATOM     28  O   UNL     1       7.052   3.286  16.676  0.00  0.00    +0.000 OA
ATOM     29  H   UNL     1       6.727   3.167  17.590  0.00  0.00    +0.000 HD
ENDBRANCH   1  28
TORSDOF 7
ENDMDL
MODEL 7
REMARK VINA RESULT:      -6.9      4.528      8.389
REMARK  Name = 
REMARK  7 active torsions:
REMARK  status: ('A' for Active; 'I' for Inactive)
REMARK    1  A    between atoms: C_2  and  C_3
REMARK    2  A    between atoms: C_3  and  N_4
REMARK    3  A    between atoms: N_10  and  N_11
REMARK    4  A    between atoms: C_12  and  C_14
REMARK    5  A    between atoms: C_14  and  O_15
REMARK    6  A    between atoms: C_14  and  C_16
REMARK    7  A    between atoms: C_14  and  C_22
REMARK                            x       y       z     vdW  Elec       q    Type
REMARK                         _______ _______ _______ _____ _____    ______ ____
ROOT
ATOM      1  C   UNL     1       0.725  10.454  18.698  0.00  0.00    +0.000 C 
ENDROOT
BRANCH   1   2
ATOM      2  C   UNL     1      -0.759  10.674  18.326  0.00  0.00    +0.000 A 
ATOM      3  C   UNL     1      -1.549  11.679  18.908  0.00  0.00    +0.000 A 
ATOM      4  C   UNL     1      -2.922  11.776  18.635  0.00  0.00    +0.000 A 
ATOM      5  C   UNL     1      -3.528  10.875  17.765  0.00  0.00    +0.000 A 
ATOM      6  C   UNL     1      -2.764   9.889  17.154  0.00  0.00    +0.000 A 
ATOM      7  C   UNL     1      -1.397   9.786  17.436  0.00  0.00    +0.000 A 
ENDBRANCH   1   2
BRANCH   1   8
ATOM      8  C   UNL     1       1.523  11.699  19.121  0.00  0.00    +0.000 A 
ATOM      9  C   UNL     1       2.253  12.476  18.200  0.00  0.00    +0.000 A 
ATOM     10  C   UNL     1       2.880  13.666  18.589  0.00  0.00    +0.000 A 
ATOM     11  C   UNL     1       2.776  14.115  19.901  0.00  0.00    +0.000 A 
ATOM     12  C   UNL     1       2.039  13.381  20.825  0.00  0.00    +0.000 A 
ATOM     13  C   UNL     1       1.415  12.192  20.437  0.00  0.00    +0.000 A 
ENDBRANCH   1   8
BRANCH   1  15
ATOM     14  N   UNL     1       1.770   8.281  19.424  0.00  0.00    +0.000 N 
ATOM     15  C   UNL     1       0.814   9.254  19.716  0.00  0.00    +0.000 C 
ATOM     16  O   UNL     1       0.046   9.200  20.683  0.00  0.00    +0.000 OA
ATOM     17  H   UNL     1       2.167   8.268  18.498  0.00  0.00    +0.000 HD
BRANCH  14  24
ATOM     18  N   UNL     1       2.807   5.534  18.715  0.00  0.00    +0.000 N 
ATOM     19  C   UNL     1       3.115   4.180  18.709  0.00  0.00    +0.000 C 
ATOM     20  O   UNL     1       3.460   3.540  17.720  0.00  0.00    +0.000 OA
ATOM     21  C   UNL     1       3.000   3.545  20.062  0.00  0.00    +0.000 C 
ATOM     22  S   UNL     1       2.368   4.821  21.153  0.00  0.00    +0.000 S 
ATOM     23  C   UNL     1       2.344   6.049  19.895  0.00  0.00    +0.000 C 
ATOM     24  N   UNL     1       1.903   7.212  20.253  0.00  0.00    +0.000 NA
BRANCH  18  25
ATOM     25  C   UNL     1       3.058   6.261  17.486  0.00  0.00    +0.000 C 
BRANCH  25  27
ATOM     26  C   UNL     1       5.371   6.405  16.539  0.00  0.00    +0.000 C 
ATOM     27  C   UNL     1       4.473   6.763  17.463  0.00  0.00    +0.000 C 
ENDBRANCH  25  27
ENDBRANCH  18  25
ENDBRANCH  14  24
ENDBRANCH   1  15
BRANCH   1  28
ATOM     28  O   UNL     1       1.410  10.053  17.490  0.00  0.00    +0.000 OA
ATOM     29  H   UNL     1       1.738   9.151  17.670  0.00  0.00    +0.000 HD
ENDBRANCH   1  28
TORSDOF 7
ENDMDL
MODEL 8
REMARK VINA RESULT:      -6.9      2.293      6.978
REMARK  Name = 
REMARK  7 active torsions:
REMARK  status: ('A' for Active; 'I' for Inactive)
REMARK    1  A    between atoms: C_2  and  C_3
REMARK    2  A    between atoms: C_3  and  N_4
REMARK    3  A    between atoms: N_10  and  N_11
REMARK    4  A    between atoms: C_12  and  C_14
REMARK    5  A    between atoms: C_14  and  O_15
REMARK    6  A    between atoms: C_14  and  C_16
REMARK    7  A    between atoms: C_14  and  C_22
REMARK                            x       y       z     vdW  Elec       q    Type
REMARK                         _______ _______ _______ _____ _____    ______ ____
ROOT
ATOM      1  C   UNL     1       3.182   5.150  18.933  0.00  0.00    +0.000 C 
ENDROOT
BRANCH   1   2
ATOM      2  C   UNL     1       2.524   6.548  18.870  0.00  0.00    +0.000 A 
ATOM      3  C   UNL     1       2.480   7.317  17.696  0.00  0.00    +0.000 A 
ATOM      4  C   UNL     1       1.980   8.628  17.703  0.00  0.00    +0.000 A 
ATOM      5  C   UNL     1       1.504   9.190  18.883  0.00  0.00    +0.000 A 
ATOM      6  C   UNL     1       1.511   8.441  20.053  0.00  0.00    +0.000 A 
ATOM      7  C   UNL     1       2.020   7.137  20.048  0.00  0.00    +0.000 A 
ENDBRANCH   1   2
BRANCH   1   8
ATOM      8  C   UNL     1       2.654   4.186  20.009  0.00  0.00    +0.000 A 
ATOM      9  C   UNL     1       1.285   4.091  20.331  0.00  0.00    +0.000 A 
ATOM     10  C   UNL     1       0.816   3.129  21.233  0.00  0.00    +0.000 A 
ATOM     11  C   UNL     1       1.699   2.229  21.819  0.00  0.00    +0.000 A 
ATOM     12  C   UNL     1       3.052   2.284  21.499  0.00  0.00    +0.000 A 
ATOM     13  C   UNL     1       3.521   3.246  20.600  0.00  0.00    +0.000 A 
ENDBRANCH   1   8
BRANCH   1  15
ATOM     14  N   UNL     1       4.426   4.627  16.807  0.00  0.00    +0.000 N 
ATOM     15  C   UNL     1       3.206   4.542  17.479  0.00  0.00    +0.000 C 
ATOM     16  O   UNL     1       2.179   4.057  16.989  0.00  0.00    +0.000 OA
ATOM     17  H   UNL     1       5.125   5.255  17.170  0.00  0.00    +0.000 HD
BRANCH  14  24
ATOM     18  N   UNL     1       6.698   5.021  14.856  0.00  0.00    +0.000 N 
ATOM     19  C   UNL     1       7.485   5.089  13.715  0.00  0.00    +0.000 C 
ATOM     20  O   UNL     1       8.528   5.730  13.614  0.00  0.00    +0.000 OA
ATOM     21  C   UNL     1       6.944   4.275  12.578  0.00  0.00    +0.000 C 
ATOM     22  S   UNL     1       5.374   3.619  13.146  0.00  0.00    +0.000 S 
ATOM     23  C   UNL     1       5.519   4.338  14.744  0.00  0.00    +0.000 C 
ATOM     24  N   UNL     1       4.524   4.128  15.546  0.00  0.00    +0.000 NA
BRANCH  18  25
ATOM     25  C   UNL     1       7.237   5.638  16.053  0.00  0.00    +0.000 C 
BRANCH  25  27
ATOM     26  C   UNL     1       7.825   4.840  18.352  0.00  0.00    +0.000 C 
ATOM     27  C   UNL     1       7.603   4.584  17.058  0.00  0.00    +0.000 C 
ENDBRANCH  25  27
ENDBRANCH  18  25
ENDBRANCH  14  24
ENDBRANCH   1  15
BRANCH   1  28
ATOM     28  O   UNL     1       4.553   5.345  19.348  0.00  0.00    +0.000 OA
ATOM     29  H   UNL     1       5.086   5.200  18.542  0.00  0.00    +0.000 HD
ENDBRANCH   1  28
TORSDOF 7
ENDMDL
MODEL 9
REMARK VINA RESULT:      -6.9      3.682      5.890
REMARK  Name = 
REMARK  7 active torsions:
REMARK  status: ('A' for Active; 'I' for Inactive)
REMARK    1  A    between atoms: C_2  and  C_3
REMARK    2  A    between atoms: C_3  and  N_4
REMARK    3  A    between atoms: N_10  and  N_11
REMARK    4  A    between atoms: C_12  and  C_14
REMARK    5  A    between atoms: C_14  and  O_15
REMARK    6  A    between atoms: C_14  and  C_16
REMARK    7  A    between atoms: C_14  and  C_22
REMARK                            x       y       z     vdW  Elec       q    Type
REMARK                         _______ _______ _______ _____ _____    ______ ____
ROOT
ATOM      1  C   UNL     1       2.847   5.628  18.734  0.00  0.00    +0.000 C 
ENDROOT
BRANCH   1   2
ATOM      2  C   UNL     1       4.338   5.981  18.531  0.00  0.00    +0.000 A 
ATOM      3  C   UNL     1       4.791   6.805  17.489  0.00  0.00    +0.000 A 
ATOM      4  C   UNL     1       6.161   7.009  17.265  0.00  0.00    +0.000 A 
ATOM      5  C   UNL     1       7.103   6.401  18.088  0.00  0.00    +0.000 A 
ATOM      6  C   UNL     1       6.682   5.604  19.144  0.00  0.00    +0.000 A 
ATOM      7  C   UNL     1       5.315   5.392  19.360  0.00  0.00    +0.000 A 
ENDBRANCH   1   2
BRANCH   1   8
ATOM      8  C   UNL     1       2.438   4.171  18.460  0.00  0.00    +0.000 A 
ATOM      9  C   UNL     1       3.329   3.229  17.908  0.00  0.00    +0.000 A 
ATOM     10  C   UNL     1       2.971   1.883  17.772  0.00  0.00    +0.000 A 
ATOM     11  C   UNL     1       1.723   1.444  18.200  0.00  0.00    +0.000 A 
ATOM     12  C   UNL     1       0.834   2.347  18.772  0.00  0.00    +0.000 A 
ATOM     13  C   UNL     1       1.190   3.692  18.907  0.00  0.00    +0.000 A 
ENDBRANCH   1   8
BRANCH   1  15
ATOM     14  N   UNL     1       1.911   7.483  20.158  0.00  0.00    +0.000 N 
ATOM     15  C   UNL     1       2.389   6.172  20.141  0.00  0.00    +0.000 C 
ATOM     16  O   UNL     1       2.493   5.461  21.147  0.00  0.00    +0.000 OA
ATOM     17  H   UNL     1       2.098   8.067  19.358  0.00  0.00    +0.000 HD
BRANCH  14  24
ATOM     18  N   UNL     1       0.081   9.855  20.543  0.00  0.00    +0.000 N 
ATOM     19  C   UNL     1      -0.613  10.939  21.063  0.00  0.00    +0.000 C 
ATOM     20  O   UNL     1      -1.172  11.805  20.394  0.00  0.00    +0.000 OA
ATOM     21  C   UNL     1      -0.635  10.959  22.561  0.00  0.00    +0.000 C 
ATOM     22  S   UNL     1       0.389   9.584  23.087  0.00  0.00    +0.000 S 
ATOM     23  C   UNL     1       0.723   9.053  21.446  0.00  0.00    +0.000 C 
ATOM     24  N   UNL     1       1.502   8.024  21.336  0.00  0.00    +0.000 NA
BRANCH  18  25
ATOM     25  C   UNL     1       0.005   9.665  19.107  0.00  0.00    +0.000 C 
BRANCH  25  27
ATOM     26  C   UNL     1       2.134   9.803  17.796  0.00  0.00    +0.000 C 
ATOM     27  C   UNL     1       1.121  10.406  18.429  0.00  0.00    +0.000 C 
ENDBRANCH  25  27
ENDBRANCH  18  25
ENDBRANCH  14  24
ENDBRANCH   1  15
BRANCH   1  28
ATOM     28  O   UNL     1       2.100   6.346  17.725  0.00  0.00    +0.000 OA
ATOM     29  H   UNL     1       2.670   6.338  16.932  0.00  0.00    +0.000 HD
ENDBRANCH   1  28
TORSDOF 7
ENDMDL
