MODEL 1
REMARK VINA RESULT:      -7.4      0.000      0.000
REMARK  Name = 
REMARK  5 active torsions:
REMARK  status: ('A' for Active; 'I' for Inactive)
REMARK    1  A    between atoms: C_3  and  O_4
REMARK    2  A    between atoms: O_4  and  C_5
REMARK    3  A    between atoms: C_12  and  C_13
REMARK    4  A    between atoms: C_19  and  O_20
REMARK    5  A    between atoms: C_21  and  O_22
REMARK                            x       y       z     vdW  Elec       q    Type
REMARK                         _______ _______ _______ _____ _____    ______ ____
ROOT
ATOM      1  O   UNL     1       2.577   8.740  17.156  0.00  0.00    +0.000 OA
ATOM      2  C   UNL     1       2.180   8.253  18.208  0.00  0.00    +0.000 A 
ATOM      3  C   UNL     1       2.298   6.802  18.541  0.00  0.00    +0.000 A 
ATOM      4  C   UNL     1       2.180   6.459  19.842  0.00  0.00    +0.000 A 
ATOM      5  O   UNL     1       1.838   7.353  20.855  0.00  0.00    +0.000 OA
ATOM      6  C   UNL     1       1.421   8.606  20.510  0.00  0.00    +0.000 A 
ATOM      7  C   UNL     1       0.858   9.410  21.495  0.00  0.00    +0.000 A 
ATOM      8  C   UNL     1       0.426  10.697  21.183  0.00  0.00    +0.000 A 
ATOM      9  C   UNL     1       0.547  11.198  19.891  0.00  0.00    +0.000 A 
ATOM     10  C   UNL     1       1.120  10.398  18.902  0.00  0.00    +0.000 A 
ATOM     11  C   UNL     1       1.556   9.108  19.222  0.00  0.00    +0.000 A 
ENDROOT
BRANCH   4  12
ATOM     12  C   UNL     1       2.419   5.070  20.354  0.00  0.00    +0.000 C 
ATOM     13  F   UNL     1       2.136   4.977  21.684  0.00  0.00    +0.000 F 
ATOM     14  F   UNL     1       1.647   4.143  19.737  0.00  0.00    +0.000 F 
ATOM     15  F   UNL     1       3.713   4.686  20.216  0.00  0.00    +0.000 F 
ENDBRANCH   4  12
BRANCH   7  16
ATOM     16  O   UNL     1       0.704   8.979  22.786  0.00  0.00    +0.000 OA
ATOM     17  H   UNL     1       1.595   8.787  23.139  0.00  0.00    +0.000 HD
ENDBRANCH   7  16
BRANCH   8  18
ATOM     18  O   UNL     1      -0.124  11.487  22.148  0.00  0.00    +0.000 OA
ATOM     19  H   UNL     1       0.412  12.305  22.146  0.00  0.00    +0.000 HD
ENDBRANCH   8  18
BRANCH   3  20
ATOM     20  O   UNL     1       2.617   5.865  17.560  0.00  0.00    +0.000 OA
BRANCH  20  21
ATOM     21  C   UNL     1       3.939   5.521  17.352  0.00  0.00    +0.000 A 
ATOM     22  C   UNL     1       4.188   4.243  16.838  0.00  0.00    +0.000 A 
ATOM     23  C   UNL     1       5.501   3.837  16.573  0.00  0.00    +0.000 A 
ATOM     24  C   UNL     1       6.553   4.708  16.827  0.00  0.00    +0.000 A 
ATOM     25  F   UNL     1       7.810   4.322  16.568  0.00  0.00    +0.000 F 
ATOM     26  C   UNL     1       6.320   5.981  17.335  0.00  0.00    +0.000 A 
ATOM     27  C   UNL     1       5.008   6.398  17.579  0.00  0.00    +0.000 A 
ENDBRANCH  20  21
ENDBRANCH   3  20
TORSDOF 5
ENDMDL
MODEL 2
REMARK VINA RESULT:      -7.4      0.918      1.297
REMARK  Name = 
REMARK  5 active torsions:
REMARK  status: ('A' for Active; 'I' for Inactive)
REMARK    1  A    between atoms: C_3  and  O_4
REMARK    2  A    between atoms: O_4  and  C_5
REMARK    3  A    between atoms: C_12  and  C_13
REMARK    4  A    between atoms: C_19  and  O_20
REMARK    5  A    between atoms: C_21  and  O_22
REMARK                            x       y       z     vdW  Elec       q    Type
REMARK                         _______ _______ _______ _____ _____    ______ ____
ROOT
ATOM      1  O   UNL     1       3.309   7.857  17.239  0.00  0.00    +0.000 OA
ATOM      2  C   UNL     1       2.612   7.537  18.195  0.00  0.00    +0.000 A 
ATOM      3  C   UNL     1       2.459   6.129  18.669  0.00  0.00    +0.000 A 
ATOM      4  C   UNL     1       1.990   5.951  19.923  0.00  0.00    +0.000 A 
ATOM      5  O   UNL     1       1.533   6.985  20.738  0.00  0.00    +0.000 OA
ATOM      6  C   UNL     1       1.375   8.227  20.194  0.00  0.00    +0.000 A 
ATOM      7  C   UNL     1       0.701   9.193  20.933  0.00  0.00    +0.000 A 
ATOM      8  C   UNL     1       0.525  10.473  20.414  0.00  0.00    +0.000 A 
ATOM      9  C   UNL     1       1.015  10.808  19.156  0.00  0.00    +0.000 A 
ATOM     10  C   UNL     1       1.701   9.845  18.415  0.00  0.00    +0.000 A 
ATOM     11  C   UNL     1       1.878   8.562  18.943  0.00  0.00    +0.000 A 
ENDROOT
BRANCH   4  12
ATOM     12  C   UNL     1       1.919   4.613  20.596  0.00  0.00    +0.000 C 
ATOM     13  F   UNL     1       0.631   4.186  20.715  0.00  0.00    +0.000 F 
ATOM     14  F   UNL     1       2.577   3.646  19.911  0.00  0.00    +0.000 F 
ATOM     15  F   UNL     1       2.425   4.641  21.854  0.00  0.00    +0.000 F 
ENDBRANCH   4  12
BRANCH   7  16
ATOM     16  O   UNL     1       0.189   8.930  22.176  0.00  0.00    +0.000 OA
ATOM     17  H   UNL     1       0.633   9.527  22.808  0.00  0.00    +0.000 HD
ENDBRANCH   7  16
BRANCH   8  18
ATOM     18  O   UNL     1      -0.133  11.421  21.139  0.00  0.00    +0.000 OA
ATOM     19  H   UNL     1      -1.000  11.023  21.355  0.00  0.00    +0.000 HD
ENDBRANCH   8  18
BRANCH   3  20
ATOM     20  O   UNL     1       2.881   5.058  17.883  0.00  0.00    +0.000 OA
BRANCH  20  21
ATOM     21  C   UNL     1       4.232   4.868  17.662  0.00  0.00    +0.000 A 
ATOM     22  C   UNL     1       5.096   5.160  18.724  0.00  0.00    +0.000 A 
ATOM     23  C   UNL     1       6.474   4.962  18.583  0.00  0.00    +0.000 A 
ATOM     24  C   UNL     1       6.978   4.477  17.382  0.00  0.00    +0.000 A 
ATOM     25  F   UNL     1       8.296   4.282  17.248  0.00  0.00    +0.000 F 
ATOM     26  C   UNL     1       6.131   4.181  16.320  0.00  0.00    +0.000 A 
ATOM     27  C   UNL     1       4.752   4.357  16.465  0.00  0.00    +0.000 A 
ENDBRANCH  20  21
ENDBRANCH   3  20
TORSDOF 5
ENDMDL
MODEL 3
REMARK VINA RESULT:      -7.3      4.167      7.946
REMARK  Name = 
REMARK  5 active torsions:
REMARK  status: ('A' for Active; 'I' for Inactive)
REMARK    1  A    between atoms: C_3  and  O_4
REMARK    2  A    between atoms: O_4  and  C_5
REMARK    3  A    between atoms: C_12  and  C_13
REMARK    4  A    between atoms: C_19  and  O_20
REMARK    5  A    between atoms: C_21  and  O_22
REMARK                            x       y       z     vdW  Elec       q    Type
REMARK                         _______ _______ _______ _____ _____    ______ ____
ROOT
ATOM      1  O   UNL     1       4.808   3.213  16.698  0.00  0.00    +0.000 OA
ATOM      2  C   UNL     1       5.484   4.166  16.331  0.00  0.00    +0.000 A 
ATOM      3  C   UNL     1       5.827   5.322  17.213  0.00  0.00    +0.000 A 
ATOM      4  C   UNL     1       6.863   6.099  16.832  0.00  0.00    +0.000 A 
ATOM      5  O   UNL     1       7.539   5.957  15.622  0.00  0.00    +0.000 OA
ATOM      6  C   UNL     1       7.027   5.112  14.680  0.00  0.00    +0.000 A 
ATOM      7  C   UNL     1       7.561   5.149  13.397  0.00  0.00    +0.000 A 
ATOM      8  C   UNL     1       7.068   4.299  12.410  0.00  0.00    +0.000 A 
ATOM      9  C   UNL     1       6.040   3.402  12.687  0.00  0.00    +0.000 A 
ATOM     10  C   UNL     1       5.509   3.354  13.976  0.00  0.00    +0.000 A 
ATOM     11  C   UNL     1       6.010   4.209  14.964  0.00  0.00    +0.000 A 
ENDROOT
BRANCH   4  12
ATOM     12  C   UNL     1       7.423   7.203  17.679  0.00  0.00    +0.000 C 
ATOM     13  F   UNL     1       8.401   7.886  17.020  0.00  0.00    +0.000 F 
ATOM     14  F   UNL     1       6.489   8.121  18.028  0.00  0.00    +0.000 F 
ATOM     15  F   UNL     1       7.990   6.739  18.821  0.00  0.00    +0.000 F 
ENDBRANCH   4  12
BRANCH   7  16
ATOM     16  O   UNL     1       8.570   6.010  13.054  0.00  0.00    +0.000 OA
ATOM     17  H   UNL     1       8.942   5.701  12.206  0.00  0.00    +0.000 HD
ENDBRANCH   7  16
BRANCH   8  18
ATOM     18  O   UNL     1       7.592   4.333  11.152  0.00  0.00    +0.000 OA
ATOM     19  H   UNL     1       8.135   3.523  11.079  0.00  0.00    +0.000 HD
ENDBRANCH   8  18
BRANCH   3  20
ATOM     20  O   UNL     1       5.166   5.520  18.425  0.00  0.00    +0.000 OA
BRANCH  20  21
ATOM     21  C   UNL     1       3.949   4.903  18.644  0.00  0.00    +0.000 A 
ATOM     22  C   UNL     1       3.906   3.924  19.643  0.00  0.00    +0.000 A 
ATOM     23  C   UNL     1       2.701   3.279  19.943  0.00  0.00    +0.000 A 
ATOM     24  C   UNL     1       1.550   3.615  19.240  0.00  0.00    +0.000 A 
ATOM     25  F   UNL     1       0.395   3.002  19.530  0.00  0.00    +0.000 F 
ATOM     26  C   UNL     1       1.578   4.588  18.247  0.00  0.00    +0.000 A 
ATOM     27  C   UNL     1       2.776   5.249  17.961  0.00  0.00    +0.000 A 
ENDBRANCH  20  21
ENDBRANCH   3  20
TORSDOF 5
ENDMDL
MODEL 4
REMARK VINA RESULT:      -7.2      3.503      7.907
REMARK  Name = 
REMARK  5 active torsions:
REMARK  status: ('A' for Active; 'I' for Inactive)
REMARK    1  A    between atoms: C_3  and  O_4
REMARK    2  A    between atoms: O_4  and  C_5
REMARK    3  A    between atoms: C_12  and  C_13
REMARK    4  A    between atoms: C_19  and  O_20
REMARK    5  A    between atoms: C_21  and  O_22
REMARK                            x       y       z     vdW  Elec       q    Type
REMARK                         _______ _______ _______ _____ _____    ______ ____
ROOT
ATOM      1  O   UNL     1       4.451   3.417  16.774  0.00  0.00    +0.000 OA
ATOM      2  C   UNL     1       5.224   4.298  16.415  0.00  0.00    +0.000 A 
ATOM      3  C   UNL     1       5.663   5.420  17.297  0.00  0.00    +0.000 A 
ATOM      4  C   UNL     1       6.777   6.090  16.931  0.00  0.00    +0.000 A 
ATOM      5  O   UNL     1       7.456   5.875  15.732  0.00  0.00    +0.000 OA
ATOM      6  C   UNL     1       6.879   5.079  14.786  0.00  0.00    +0.000 A 
ATOM      7  C   UNL     1       7.435   5.056  13.512  0.00  0.00    +0.000 A 
ATOM      8  C   UNL     1       6.878   4.252  12.521  0.00  0.00    +0.000 A 
ATOM      9  C   UNL     1       5.763   3.461  12.784  0.00  0.00    +0.000 A 
ATOM     10  C   UNL     1       5.208   3.473  14.064  0.00  0.00    +0.000 A 
ATOM     11  C   UNL     1       5.774   4.281  15.056  0.00  0.00    +0.000 A 
ENDROOT
BRANCH   4  12
ATOM     12  C   UNL     1       7.427   7.139  17.782  0.00  0.00    +0.000 C 
ATOM     13  F   UNL     1       6.564   8.155  18.063  0.00  0.00    +0.000 F 
ATOM     14  F   UNL     1       7.848   6.658  18.977  0.00  0.00    +0.000 F 
ATOM     15  F   UNL     1       8.495   7.710  17.170  0.00  0.00    +0.000 F 
ENDBRANCH   4  12
BRANCH   7  16
ATOM     16  O   UNL     1       8.529   5.812  13.183  0.00  0.00    +0.000 OA
ATOM     17  H   UNL     1       8.308   6.307  12.371  0.00  0.00    +0.000 HD
ENDBRANCH   7  16
BRANCH   8  18
ATOM     18  O   UNL     1       7.423   4.226  11.272  0.00  0.00    +0.000 OA
ATOM     19  H   UNL     1       7.921   3.386  11.226  0.00  0.00    +0.000 HD
ENDBRANCH   8  18
BRANCH   3  20
ATOM     20  O   UNL     1       5.005   5.689  18.496  0.00  0.00    +0.000 OA
BRANCH  20  21
ATOM     21  C   UNL     1       3.934   6.561  18.504  0.00  0.00    +0.000 A 
ATOM     22  C   UNL     1       3.109   6.542  19.635  0.00  0.00    +0.000 A 
ATOM     23  C   UNL     1       2.022   7.419  19.726  0.00  0.00    +0.000 A 
ATOM     24  C   UNL     1       1.767   8.306  18.687  0.00  0.00    +0.000 A 
ATOM     25  F   UNL     1       0.730   9.150  18.776  0.00  0.00    +0.000 F 
ATOM     26  C   UNL     1       2.580   8.337  17.559  0.00  0.00    +0.000 A 
ATOM     27  C   UNL     1       3.679   7.477  17.475  0.00  0.00    +0.000 A 
ENDBRANCH  20  21
ENDBRANCH   3  20
TORSDOF 5
ENDMDL
MODEL 5
REMARK VINA RESULT:      -7.2      0.126      1.229
REMARK  Name = 
REMARK  5 active torsions:
REMARK  status: ('A' for Active; 'I' for Inactive)
REMARK    1  A    between atoms: C_3  and  O_4
REMARK    2  A    between atoms: O_4  and  C_5
REMARK    3  A    between atoms: C_12  and  C_13
REMARK    4  A    between atoms: C_19  and  O_20
REMARK    5  A    between atoms: C_21  and  O_22
REMARK                            x       y       z     vdW  Elec       q    Type
REMARK                         _______ _______ _______ _____ _____    ______ ____
ROOT
ATOM      1  O   UNL     1       2.568   8.704  17.121  0.00  0.00    +0.000 OA
ATOM      2  C   UNL     1       2.177   8.228  18.181  0.00  0.00    +0.000 A 
ATOM      3  C   UNL     1       2.278   6.777  18.520  0.00  0.00    +0.000 A 
ATOM      4  C   UNL     1       2.172   6.443  19.824  0.00  0.00    +0.000 A 
ATOM      5  O   UNL     1       1.857   7.347  20.837  0.00  0.00    +0.000 OA
ATOM      6  C   UNL     1       1.455   8.604  20.491  0.00  0.00    +0.000 A 
ATOM      7  C   UNL     1       0.917   9.422  21.479  0.00  0.00    +0.000 A 
ATOM      8  C   UNL     1       0.500  10.713  21.166  0.00  0.00    +0.000 A 
ATOM      9  C   UNL     1       0.611  11.206  19.870  0.00  0.00    +0.000 A 
ATOM     10  C   UNL     1       1.159  10.392  18.878  0.00  0.00    +0.000 A 
ATOM     11  C   UNL     1       1.580   9.098  19.199  0.00  0.00    +0.000 A 
ENDROOT
BRANCH   4  12
ATOM     12  C   UNL     1       2.397   5.053  20.341  0.00  0.00    +0.000 C 
ATOM     13  F   UNL     1       3.701   4.679  20.206  0.00  0.00    +0.000 F 
ATOM     14  F   UNL     1       2.102   4.929  21.658  0.00  0.00    +0.000 F 
ATOM     15  F   UNL     1       1.668   4.128  19.667  0.00  0.00    +0.000 F 
ENDBRANCH   4  12
BRANCH   7  16
ATOM     16  O   UNL     1       0.774   8.999  22.774  0.00  0.00    +0.000 OA
ATOM     17  H   UNL     1       1.663   8.769  23.107  0.00  0.00    +0.000 HD
ENDBRANCH   7  16
BRANCH   8  18
ATOM     18  O   UNL     1      -0.025  11.517  22.134  0.00  0.00    +0.000 OA
ATOM     19  H   UNL     1       0.721  11.715  22.735  0.00  0.00    +0.000 HD
ENDBRANCH   8  18
BRANCH   3  20
ATOM     20  O   UNL     1       2.570   5.830  17.540  0.00  0.00    +0.000 OA
BRANCH  20  21
ATOM     21  C   UNL     1       3.879   5.433  17.346  0.00  0.00    +0.000 A 
ATOM     22  C   UNL     1       4.877   6.361  17.667  0.00  0.00    +0.000 A 
ATOM     23  C   UNL     1       6.226   6.019  17.526  0.00  0.00    +0.000 A 
ATOM     24  C   UNL     1       6.568   4.754  17.062  0.00  0.00    +0.000 A 
ATOM     25  F   UNL     1       7.859   4.423  16.932  0.00  0.00    +0.000 F 
ATOM     26  C   UNL     1       5.587   3.822  16.742  0.00  0.00    +0.000 A 
ATOM     27  C   UNL     1       4.239   4.154  16.903  0.00  0.00    +0.000 A 
ENDBRANCH  20  21
ENDBRANCH   3  20
TORSDOF 5
ENDMDL
MODEL 6
REMARK VINA RESULT:      -7.2      3.874      7.821
REMARK  Name = 
REMARK  5 active torsions:
REMARK  status: ('A' for Active; 'I' for Inactive)
REMARK    1  A    between atoms: C_3  and  O_4
REMARK    2  A    between atoms: O_4  and  C_5
REMARK    3  A    between atoms: C_12  and  C_13
REMARK    4  A    between atoms: C_19  and  O_20
REMARK    5  A    between atoms: C_21  and  O_22
REMARK                            x       y       z     vdW  Elec       q    Type
REMARK                         _______ _______ _______ _____ _____    ______ ____
ROOT
ATOM      1  O   UNL     1       4.036   3.766  16.422  0.00  0.00    +0.000 OA
ATOM      2  C   UNL     1       4.923   4.559  16.126  0.00  0.00    +0.000 A 
ATOM      3  C   UNL     1       5.373   5.665  17.023  0.00  0.00    +0.000 A 
ATOM      4  C   UNL     1       6.578   6.215  16.762  0.00  0.00    +0.000 A 
ATOM      5  O   UNL     1       7.354   5.898  15.649  0.00  0.00    +0.000 OA
ATOM      6  C   UNL     1       6.806   5.126  14.666  0.00  0.00    +0.000 A 
ATOM      7  C   UNL     1       7.488   5.008  13.459  0.00  0.00    +0.000 A 
ATOM      8  C   UNL     1       6.963   4.225  12.434  0.00  0.00    +0.000 A 
ATOM      9  C   UNL     1       5.756   3.551  12.596  0.00  0.00    +0.000 A 
ATOM     10  C   UNL     1       5.074   3.658  13.808  0.00  0.00    +0.000 A 
ATOM     11  C   UNL     1       5.608   4.444  14.835  0.00  0.00    +0.000 A 
ENDROOT
BRANCH   4  12
ATOM     12  C   UNL     1       7.233   7.229  17.652  0.00  0.00    +0.000 C 
ATOM     13  F   UNL     1       8.343   7.759  17.065  0.00  0.00    +0.000 F 
ATOM     14  F   UNL     1       6.422   8.275  17.942  0.00  0.00    +0.000 F 
ATOM     15  F   UNL     1       7.647   6.691  18.827  0.00  0.00    +0.000 F 
ENDBRANCH   4  12
BRANCH   7  16
ATOM     16  O   UNL     1       8.677   5.647  13.231  0.00  0.00    +0.000 OA
ATOM     17  H   UNL     1       8.491   6.415  12.657  0.00  0.00    +0.000 HD
ENDBRANCH   7  16
BRANCH   8  18
ATOM     18  O   UNL     1       7.631   4.106  11.252  0.00  0.00    +0.000 OA
ATOM     19  H   UNL     1       8.571   4.003  11.498  0.00  0.00    +0.000 HD
ENDBRANCH   8  18
BRANCH   3  20
ATOM     20  O   UNL     1       4.622   6.035  18.137  0.00  0.00    +0.000 OA
BRANCH  20  21
ATOM     21  C   UNL     1       3.991   5.060  18.886  0.00  0.00    +0.000 A 
ATOM     22  C   UNL     1       2.609   5.195  19.066  0.00  0.00    +0.000 A 
ATOM     23  C   UNL     1       1.898   4.230  19.788  0.00  0.00    +0.000 A 
ATOM     24  C   UNL     1       2.572   3.140  20.326  0.00  0.00    +0.000 A 
ATOM     25  F   UNL     1       1.891   2.212  21.011  0.00  0.00    +0.000 F 
ATOM     26  C   UNL     1       3.944   2.993  20.152  0.00  0.00    +0.000 A 
ATOM     27  C   UNL     1       4.653   3.944  19.413  0.00  0.00    +0.000 A 
ENDBRANCH  20  21
ENDBRANCH   3  20
TORSDOF 5
ENDMDL
MODEL 7
REMARK VINA RESULT:      -7.1      3.188      6.928
REMARK  Name = 
REMARK  5 active torsions:
REMARK  status: ('A' for Active; 'I' for Inactive)
REMARK    1  A    between atoms: C_3  and  O_4
REMARK    2  A    between atoms: O_4  and  C_5
REMARK    3  A    between atoms: C_12  and  C_13
REMARK    4  A    between atoms: C_19  and  O_20
REMARK    5  A    between atoms: C_21  and  O_22
REMARK                            x       y       z     vdW  Elec       q    Type
REMARK                         _______ _______ _______ _____ _____    ______ ____
ROOT
ATOM      1  O   UNL     1       2.161   8.931  17.032  0.00  0.00    +0.000 OA
ATOM      2  C   UNL     1       2.136   8.524  18.188  0.00  0.00    +0.000 A 
ATOM      3  C   UNL     1       1.469   9.258  19.305  0.00  0.00    +0.000 A 
ATOM      4  C   UNL     1       1.182   8.550  20.419  0.00  0.00    +0.000 A 
ATOM      5  O   UNL     1       1.578   7.230  20.626  0.00  0.00    +0.000 OA
ATOM      6  C   UNL     1       2.455   6.663  19.748  0.00  0.00    +0.000 A 
ATOM      7  C   UNL     1       3.029   5.441  20.081  0.00  0.00    +0.000 A 
ATOM      8  C   UNL     1       3.924   4.829  19.208  0.00  0.00    +0.000 A 
ATOM      9  C   UNL     1       4.260   5.422  17.995  0.00  0.00    +0.000 A 
ATOM     10  C   UNL     1       3.678   6.643  17.652  0.00  0.00    +0.000 A 
ATOM     11  C   UNL     1       2.777   7.252  18.531  0.00  0.00    +0.000 A 
ENDROOT
BRANCH   4  12
ATOM     12  C   UNL     1       0.387   9.100  21.564  0.00  0.00    +0.000 C 
ATOM     13  F   UNL     1       0.525   8.329  22.680  0.00  0.00    +0.000 F 
ATOM     14  F   UNL     1       0.773  10.350  21.919  0.00  0.00    +0.000 F 
ATOM     15  F   UNL     1      -0.943   9.141  21.296  0.00  0.00    +0.000 F 
ENDBRANCH   4  12
BRANCH   7  16
ATOM     16  O   UNL     1       2.748   4.804  21.261  0.00  0.00    +0.000 OA
ATOM     17  H   UNL     1       1.932   5.201  21.621  0.00  0.00    +0.000 HD
ENDBRANCH   7  16
BRANCH   8  18
ATOM     18  O   UNL     1       4.486   3.630  19.533  0.00  0.00    +0.000 OA
ATOM     19  H   UNL     1       3.921   2.957  19.104  0.00  0.00    +0.000 HD
ENDBRANCH   8  18
BRANCH   3  20
ATOM     20  O   UNL     1       1.073  10.586  19.155  0.00  0.00    +0.000 OA
BRANCH  20  21
ATOM     21  C   UNL     1      -0.243  10.872  18.849  0.00  0.00    +0.000 A 
ATOM     22  C   UNL     1      -0.817  11.976  19.491  0.00  0.00    +0.000 A 
ATOM     23  C   UNL     1      -2.137  12.345  19.208  0.00  0.00    +0.000 A 
ATOM     24  C   UNL     1      -2.873  11.608  18.289  0.00  0.00    +0.000 A 
ATOM     25  F   UNL     1      -4.135  11.964  18.012  0.00  0.00    +0.000 F 
ATOM     26  C   UNL     1      -2.315  10.511  17.642  0.00  0.00    +0.000 A 
ATOM     27  C   UNL     1      -0.990  10.153  17.907  0.00  0.00    +0.000 A 
ENDBRANCH  20  21
ENDBRANCH   3  20
TORSDOF 5
ENDMDL
MODEL 8
REMARK VINA RESULT:      -7.1      1.122      1.513
REMARK  Name = 
REMARK  5 active torsions:
REMARK  status: ('A' for Active; 'I' for Inactive)
REMARK    1  A    between atoms: C_3  and  O_4
REMARK    2  A    between atoms: O_4  and  C_5
REMARK    3  A    between atoms: C_12  and  C_13
REMARK    4  A    between atoms: C_19  and  O_20
REMARK    5  A    between atoms: C_21  and  O_22
REMARK                            x       y       z     vdW  Elec       q    Type
REMARK                         _______ _______ _______ _____ _____    ______ ____
ROOT
ATOM      1  O   UNL     1       3.570   7.285  16.941  0.00  0.00    +0.000 OA
ATOM      2  C   UNL     1       2.919   7.018  17.944  0.00  0.00    +0.000 A 
ATOM      3  C   UNL     1       2.825   5.645  18.526  0.00  0.00    +0.000 A 
ATOM      4  C   UNL     1       2.409   5.547  19.806  0.00  0.00    +0.000 A 
ATOM      5  O   UNL     1       1.954   6.627  20.562  0.00  0.00    +0.000 OA
ATOM      6  C   UNL     1       1.740   7.821  19.936  0.00  0.00    +0.000 A 
ATOM      7  C   UNL     1       1.068   8.820  20.631  0.00  0.00    +0.000 A 
ATOM      8  C   UNL     1       0.835  10.054  20.028  0.00  0.00    +0.000 A 
ATOM      9  C   UNL     1       1.268  10.309  18.730  0.00  0.00    +0.000 A 
ATOM     10  C   UNL     1       1.952   9.312  18.033  0.00  0.00    +0.000 A 
ATOM     11  C   UNL     1       2.185   8.076  18.645  0.00  0.00    +0.000 A 
ENDROOT
BRANCH   4  12
ATOM     12  C   UNL     1       2.402   4.261  20.576  0.00  0.00    +0.000 C 
ATOM     13  F   UNL     1       3.549   3.553  20.370  0.00  0.00    +0.000 F 
ATOM     14  F   UNL     1       2.311   4.451  21.915  0.00  0.00    +0.000 F 
ATOM     15  F   UNL     1       1.383   3.445  20.207  0.00  0.00    +0.000 F 
ENDBRANCH   4  12
BRANCH   7  16
ATOM     16  O   UNL     1       0.610   8.636  21.909  0.00  0.00    +0.000 OA
ATOM     17  H   UNL     1       0.609   9.509  22.347  0.00  0.00    +0.000 HD
ENDBRANCH   7  16
BRANCH   8  18
ATOM     18  O   UNL     1       0.178  11.036  20.708  0.00  0.00    +0.000 OA
ATOM     19  H   UNL     1       0.514  11.875  20.336  0.00  0.00    +0.000 HD
ENDBRANCH   8  18
BRANCH   3  20
ATOM     20  O   UNL     1       3.247   4.530  17.803  0.00  0.00    +0.000 OA
BRANCH  20  21
ATOM     21  C   UNL     1       4.488   4.544  17.195  0.00  0.00    +0.000 A 
ATOM     22  C   UNL     1       4.513   4.393  15.803  0.00  0.00    +0.000 A 
ATOM     23  C   UNL     1       5.731   4.428  15.116  0.00  0.00    +0.000 A 
ATOM     24  C   UNL     1       6.914   4.610  15.823  0.00  0.00    +0.000 A 
ATOM     25  F   UNL     1       8.080   4.649  15.165  0.00  0.00    +0.000 F 
ATOM     26  C   UNL     1       6.903   4.763  17.205  0.00  0.00    +0.000 A 
ATOM     27  C   UNL     1       5.685   4.751  17.892  0.00  0.00    +0.000 A 
ENDBRANCH  20  21
ENDBRANCH   3  20
TORSDOF 5
ENDMDL
MODEL 9
REMARK VINA RESULT:      -7.0      4.294      5.612
REMARK  Name = 
REMARK  5 active torsions:
REMARK  status: ('A' for Active; 'I' for Inactive)
REMARK    1  A    between atoms: C_3  and  O_4
REMARK    2  A    between atoms: O_4  and  C_5
REMARK    3  A    between atoms: C_12  and  C_13
REMARK    4  A    between atoms: C_19  and  O_20
REMARK    5  A    between atoms: C_21  and  O_22
REMARK                            x       y       z     vdW  Elec       q    Type
REMARK                         _______ _______ _______ _____ _____    ______ ____
ROOT
ATOM      1  O   UNL     1       2.840   6.305  17.321  0.00  0.00    +0.000 OA
ATOM      2  C   UNL     1       3.662   5.510  17.760  0.00  0.00    +0.000 A 
ATOM      3  C   UNL     1       5.085   5.459  17.306  0.00  0.00    +0.000 A 
ATOM      4  C   UNL     1       5.963   4.823  18.110  0.00  0.00    +0.000 A 
ATOM      5  O   UNL     1       5.601   4.119  19.257  0.00  0.00    +0.000 OA
ATOM      6  C   UNL     1       4.276   3.897  19.499  0.00  0.00    +0.000 A 
ATOM      7  C   UNL     1       3.928   3.001  20.503  0.00  0.00    +0.000 A 
ATOM      8  C   UNL     1       2.587   2.752  20.783  0.00  0.00    +0.000 A 
ATOM      9  C   UNL     1       1.577   3.390  20.069  0.00  0.00    +0.000 A 
ATOM     10  C   UNL     1       1.922   4.298  19.068  0.00  0.00    +0.000 A 
ATOM     11  C   UNL     1       3.271   4.546  18.793  0.00  0.00    +0.000 A 
ENDROOT
BRANCH   4  12
ATOM     12  C   UNL     1       7.443   4.812  17.870  0.00  0.00    +0.000 C 
ATOM     13  F   UNL     1       8.123   4.418  18.984  0.00  0.00    +0.000 F 
ATOM     14  F   UNL     1       7.808   3.960  16.882  0.00  0.00    +0.000 F 
ATOM     15  F   UNL     1       7.923   6.041  17.551  0.00  0.00    +0.000 F 
ENDBRANCH   4  12
BRANCH   7  16
ATOM     16  O   UNL     1       4.870   2.334  21.241  0.00  0.00    +0.000 OA
ATOM     17  H   UNL     1       4.657   2.476  22.184  0.00  0.00    +0.000 HD
ENDBRANCH   7  16
BRANCH   8  18
ATOM     18  O   UNL     1       2.244   1.875  21.769  0.00  0.00    +0.000 OA
ATOM     19  H   UNL     1       2.917   1.998  22.467  0.00  0.00    +0.000 HD
ENDBRANCH   8  18
BRANCH   3  20
ATOM     20  O   UNL     1       5.494   6.129  16.155  0.00  0.00    +0.000 OA
BRANCH  20  21
ATOM     21  C   UNL     1       5.831   5.403  15.028  0.00  0.00    +0.000 A 
ATOM     22  C   UNL     1       7.065   5.693  14.434  0.00  0.00    +0.000 A 
ATOM     23  C   UNL     1       7.487   4.977  13.308  0.00  0.00    +0.000 A 
ATOM     24  C   UNL     1       6.673   3.980  12.784  0.00  0.00    +0.000 A 
ATOM     25  F   UNL     1       7.079   3.290  11.710  0.00  0.00    +0.000 F 
ATOM     26  C   UNL     1       5.447   3.680  13.366  0.00  0.00    +0.000 A 
ATOM     27  C   UNL     1       5.032   4.379  14.504  0.00  0.00    +0.000 A 
ENDBRANCH  20  21
ENDBRANCH   3  20
TORSDOF 5
ENDMDL
