MODEL 1
REMARK VINA RESULT:      -7.6      0.000      0.000
REMARK  Name = 
REMARK  8 active torsions:
REMARK  status: ('A' for Active; 'I' for Inactive)
REMARK    1  A    between atoms: C_1  and  C_2
REMARK    2  A    between atoms: C_2  and  N_3
REMARK    3  A    between atoms: C_2  and  C_23
REMARK    4  A    between atoms: C_4  and  C_6
REMARK    5  A    between atoms: C_9  and  C_10
REMARK    6  A    between atoms: N_12  and  C_13
REMARK    7  A    between atoms: C_13  and  C_14
REMARK    8  A    between atoms: C_13  and  C_15
REMARK                            x       y       z     vdW  Elec       q    Type
REMARK                         _______ _______ _______ _____ _____    ______ ____
ROOT
ATOM      1  C   UNL     1       0.382   9.629  19.613  0.00  0.00    +0.000 C 
ATOM      2  C   UNL     1       0.069  10.594  20.763  0.00  0.00    +0.000 C 
ATOM      3  C   UNL     1       1.121  11.689  20.959  0.00  0.00    +0.000 C 
ATOM      4  C   UNL     1       1.514  12.407  19.653  0.00  0.00    +0.000 C 
ATOM      5  C   UNL     1       1.849  11.422  18.530  0.00  0.00    +0.000 C 
ATOM      6  C   UNL     1       0.751  10.380  18.328  0.00  0.00    +0.000 C 
ENDROOT
BRANCH   1   8
ATOM      7  N   UNL     1       1.913   7.863  18.905  0.00  0.00    +0.000 N 
ATOM      8  C   UNL     1       1.435   8.572  19.981  0.00  0.00    +0.000 C 
ATOM      9  O   UNL     1       1.848   8.401  21.122  0.00  0.00    +0.000 OA
ATOM     10  H   UNL     1       1.459   7.966  18.009  0.00  0.00    +0.000 HD
BRANCH   7  12
ATOM     11  C   UNL     1       3.863   6.810  17.802  0.00  0.00    +0.000 C 
ATOM     12  C   UNL     1       2.936   6.832  19.023  0.00  0.00    +0.000 C 
BRANCH  12  13
ATOM     13  C   UNL     1       2.256   5.486  19.209  0.00  0.00    +0.000 A 
ATOM     14  C   UNL     1       1.886   5.048  20.488  0.00  0.00    +0.000 A 
ATOM     15  C   UNL     1       1.223   3.829  20.653  0.00  0.00    +0.000 A 
ATOM     16  C   UNL     1       0.919   3.040  19.545  0.00  0.00    +0.000 A 
ATOM     17  C   UNL     1       1.288   3.460  18.271  0.00  0.00    +0.000 A 
ATOM     18  C   UNL     1       1.954   4.672  18.103  0.00  0.00    +0.000 A 
ENDBRANCH  12  13
ENDBRANCH   7  12
ENDBRANCH   1   8
BRANCH   4  19
ATOM     19  C   UNL     1       0.405  13.369  19.239  0.00  0.00    +0.000 C 
ATOM     20  O   UNL     1      -0.496  13.033  18.472  0.00  0.00    +0.000 OA
ATOM     21  N   UNL     1       0.439  14.618  19.800  0.00  0.00    +0.000 N 
ATOM     22  H   UNL     1       1.221  14.904  20.374  0.00  0.00    +0.000 HD
BRANCH  21  23
ATOM     23  C   UNL     1      -0.552  15.621  19.443  0.00  0.00    +0.000 C 
ATOM     24  C   UNL     1      -1.157  16.214  20.715  0.00  0.00    +0.000 C 
BRANCH  23  25
ATOM     25  C   UNL     1       0.055  16.639  18.496  0.00  0.00    +0.000 A 
ATOM     26  C   UNL     1      -0.771  17.542  17.801  0.00  0.00    +0.000 A 
ATOM     27  C   UNL     1      -0.227  18.445  16.881  0.00  0.00    +0.000 A 
ATOM     28  C   UNL     1       1.146  18.465  16.649  0.00  0.00    +0.000 A 
ATOM     29  C   UNL     1       1.976  17.590  17.342  0.00  0.00    +0.000 A 
ATOM     30  C   UNL     1       1.436  16.680  18.250  0.00  0.00    +0.000 A 
ENDBRANCH  23  25
ENDBRANCH  21  23
ENDBRANCH   4  19
TORSDOF 6
ENDMDL
MODEL 2
REMARK VINA RESULT:      -7.6      4.048      7.219
REMARK  Name = 
REMARK  8 active torsions:
REMARK  status: ('A' for Active; 'I' for Inactive)
REMARK    1  A    between atoms: C_1  and  C_2
REMARK    2  A    between atoms: C_2  and  N_3
REMARK    3  A    between atoms: C_2  and  C_23
REMARK    4  A    between atoms: C_4  and  C_6
REMARK    5  A    between atoms: C_9  and  C_10
REMARK    6  A    between atoms: N_12  and  C_13
REMARK    7  A    between atoms: C_13  and  C_14
REMARK    8  A    between atoms: C_13  and  C_15
REMARK                            x       y       z     vdW  Elec       q    Type
REMARK                         _______ _______ _______ _____ _____    ______ ____
ROOT
ATOM      1  C   UNL     1       2.795   4.647  17.553  0.00  0.00    +0.000 C 
ATOM      2  C   UNL     1       1.847   3.931  18.523  0.00  0.00    +0.000 C 
ATOM      3  C   UNL     1       2.323   3.941  19.979  0.00  0.00    +0.000 C 
ATOM      4  C   UNL     1       2.762   5.333  20.474  0.00  0.00    +0.000 C 
ATOM      5  C   UNL     1       3.730   6.014  19.503  0.00  0.00    +0.000 C 
ATOM      6  C   UNL     1       3.194   6.034  18.072  0.00  0.00    +0.000 C 
ENDROOT
BRANCH   1   8
ATOM      7  N   UNL     1       5.076   4.538  16.691  0.00  0.00    +0.000 N 
ATOM      8  C   UNL     1       4.020   3.802  17.173  0.00  0.00    +0.000 C 
ATOM      9  O   UNL     1       4.075   2.588  17.324  0.00  0.00    +0.000 OA
ATOM     10  H   UNL     1       4.938   5.516  16.482  0.00  0.00    +0.000 HD
BRANCH   7  12
ATOM     11  C   UNL     1       7.525   4.565  17.054  0.00  0.00    +0.000 C 
ATOM     12  C   UNL     1       6.346   3.942  16.296  0.00  0.00    +0.000 C 
BRANCH  12  13
ATOM     13  C   UNL     1       6.521   4.106  14.797  0.00  0.00    +0.000 A 
ATOM     14  C   UNL     1       5.680   3.425  13.904  0.00  0.00    +0.000 A 
ATOM     15  C   UNL     1       5.814   3.611  12.526  0.00  0.00    +0.000 A 
ATOM     16  C   UNL     1       6.782   4.480  12.026  0.00  0.00    +0.000 A 
ATOM     17  C   UNL     1       7.627   5.156  12.900  0.00  0.00    +0.000 A 
ATOM     18  C   UNL     1       7.500   4.969  14.275  0.00  0.00    +0.000 A 
ENDBRANCH  12  13
ENDBRANCH   7  12
ENDBRANCH   1   8
BRANCH   4  19
ATOM     19  C   UNL     1       1.534   6.199  20.737  0.00  0.00    +0.000 C 
ATOM     20  O   UNL     1       0.392   5.753  20.643  0.00  0.00    +0.000 OA
ATOM     21  N   UNL     1       1.771   7.490  21.125  0.00  0.00    +0.000 N 
ATOM     22  H   UNL     1       2.710   7.864  21.133  0.00  0.00    +0.000 HD
BRANCH  21  23
ATOM     23  C   UNL     1       0.667   8.408  21.366  0.00  0.00    +0.000 C 
ATOM     24  C   UNL     1       0.854   9.083  22.724  0.00  0.00    +0.000 C 
BRANCH  23  25
ATOM     25  C   UNL     1       0.523   9.365  20.197  0.00  0.00    +0.000 A 
ATOM     26  C   UNL     1       1.372   9.253  19.080  0.00  0.00    +0.000 A 
ATOM     27  C   UNL     1       1.287  10.165  18.024  0.00  0.00    +0.000 A 
ATOM     28  C   UNL     1       0.350  11.195  18.064  0.00  0.00    +0.000 A 
ATOM     29  C   UNL     1      -0.508  11.307  19.153  0.00  0.00    +0.000 A 
ATOM     30  C   UNL     1      -0.417  10.406  20.213  0.00  0.00    +0.000 A 
ENDBRANCH  23  25
ENDBRANCH  21  23
ENDBRANCH   4  19
TORSDOF 6
ENDMDL
MODEL 3
REMARK VINA RESULT:      -7.5      3.261      9.411
REMARK  Name = 
REMARK  8 active torsions:
REMARK  status: ('A' for Active; 'I' for Inactive)
REMARK    1  A    between atoms: C_1  and  C_2
REMARK    2  A    between atoms: C_2  and  N_3
REMARK    3  A    between atoms: C_2  and  C_23
REMARK    4  A    between atoms: C_4  and  C_6
REMARK    5  A    between atoms: C_9  and  C_10
REMARK    6  A    between atoms: N_12  and  C_13
REMARK    7  A    between atoms: C_13  and  C_14
REMARK    8  A    between atoms: C_13  and  C_15
REMARK                            x       y       z     vdW  Elec       q    Type
REMARK                         _______ _______ _______ _____ _____    ______ ____
ROOT
ATOM      1  C   UNL     1       2.225   7.424  20.270  0.00  0.00    +0.000 C 
ATOM      2  C   UNL     1       2.238   5.976  20.774  0.00  0.00    +0.000 C 
ATOM      3  C   UNL     1       1.530   4.987  19.843  0.00  0.00    +0.000 C 
ATOM      4  C   UNL     1       1.951   5.121  18.367  0.00  0.00    +0.000 C 
ATOM      5  C   UNL     1       1.901   6.571  17.881  0.00  0.00    +0.000 C 
ATOM      6  C   UNL     1       2.666   7.517  18.805  0.00  0.00    +0.000 C 
ENDROOT
BRANCH   1   8
ATOM      7  N   UNL     1       0.693   9.246  19.727  0.00  0.00    +0.000 N 
ATOM      8  C   UNL     1       0.884   8.135  20.512  0.00  0.00    +0.000 C 
ATOM      9  O   UNL     1       0.039   7.729  21.300  0.00  0.00    +0.000 OA
ATOM     10  H   UNL     1       1.465   9.599  19.179  0.00  0.00    +0.000 HD
BRANCH   7  12
ATOM     11  C   UNL     1      -1.094  10.295  18.372  0.00  0.00    +0.000 C 
ATOM     12  C   UNL     1      -0.519  10.054  19.773  0.00  0.00    +0.000 C 
BRANCH  12  13
ATOM     13  C   UNL     1      -0.205  11.371  20.461  0.00  0.00    +0.000 A 
ATOM     14  C   UNL     1      -0.940  11.780  21.583  0.00  0.00    +0.000 A 
ATOM     15  C   UNL     1      -0.622  12.971  22.240  0.00  0.00    +0.000 A 
ATOM     16  C   UNL     1       0.433  13.761  21.789  0.00  0.00    +0.000 A 
ATOM     17  C   UNL     1       1.166  13.371  20.673  0.00  0.00    +0.000 A 
ATOM     18  C   UNL     1       0.848  12.187  20.011  0.00  0.00    +0.000 A 
ENDBRANCH  12  13
ENDBRANCH   7  12
ENDBRANCH   1   8
BRANCH   4  19
ATOM     19  C   UNL     1       3.336   4.512  18.168  0.00  0.00    +0.000 C 
ATOM     20  O   UNL     1       3.809   3.699  18.959  0.00  0.00    +0.000 OA
ATOM     21  N   UNL     1       4.009   4.888  17.036  0.00  0.00    +0.000 N 
ATOM     22  H   UNL     1       3.640   5.608  16.430  0.00  0.00    +0.000 HD
BRANCH  21  23
ATOM     23  C   UNL     1       5.351   4.392  16.772  0.00  0.00    +0.000 C 
ATOM     24  C   UNL     1       5.519   4.151  15.272  0.00  0.00    +0.000 C 
BRANCH  23  25
ATOM     25  C   UNL     1       6.381   5.325  17.382  0.00  0.00    +0.000 A 
ATOM     26  C   UNL     1       7.140   4.914  18.493  0.00  0.00    +0.000 A 
ATOM     27  C   UNL     1       8.049   5.786  19.100  0.00  0.00    +0.000 A 
ATOM     28  C   UNL     1       8.218   7.077  18.603  0.00  0.00    +0.000 A 
ATOM     29  C   UNL     1       7.486   7.491  17.495  0.00  0.00    +0.000 A 
ATOM     30  C   UNL     1       6.571   6.627  16.895  0.00  0.00    +0.000 A 
ENDBRANCH  23  25
ENDBRANCH  21  23
ENDBRANCH   4  19
TORSDOF 6
ENDMDL
MODEL 4
REMARK VINA RESULT:      -7.4      2.903      9.624
REMARK  Name = 
REMARK  8 active torsions:
REMARK  status: ('A' for Active; 'I' for Inactive)
REMARK    1  A    between atoms: C_1  and  C_2
REMARK    2  A    between atoms: C_2  and  N_3
REMARK    3  A    between atoms: C_2  and  C_23
REMARK    4  A    between atoms: C_4  and  C_6
REMARK    5  A    between atoms: C_9  and  C_10
REMARK    6  A    between atoms: N_12  and  C_13
REMARK    7  A    between atoms: C_13  and  C_14
REMARK    8  A    between atoms: C_13  and  C_15
REMARK                            x       y       z     vdW  Elec       q    Type
REMARK                         _______ _______ _______ _____ _____    ______ ____
ROOT
ATOM      1  C   UNL     1      -0.602   9.257  21.523  0.00  0.00    +0.000 C 
ATOM      2  C   UNL     1      -0.729   9.899  20.136  0.00  0.00    +0.000 C 
ATOM      3  C   UNL     1       0.553  10.580  19.647  0.00  0.00    +0.000 C 
ATOM      4  C   UNL     1       1.812   9.705  19.798  0.00  0.00    +0.000 C 
ATOM      5  C   UNL     1       1.930   9.099  21.199  0.00  0.00    +0.000 C 
ATOM      6  C   UNL     1       0.652   8.381  21.628  0.00  0.00    +0.000 C 
ENDROOT
BRANCH   1   8
ATOM      7  N   UNL     1      -1.430  11.392  22.368  0.00  0.00    +0.000 N 
ATOM      8  C   UNL     1      -0.689  10.275  22.670  0.00  0.00    +0.000 C 
ATOM      9  O   UNL     1      -0.183  10.095  23.770  0.00  0.00    +0.000 OA
ATOM     10  H   UNL     1      -1.728  11.540  21.415  0.00  0.00    +0.000 HD
BRANCH   7  12
ATOM     11  C   UNL     1      -3.156  12.805  23.442  0.00  0.00    +0.000 C 
ATOM     12  C   UNL     1      -1.664  12.472  23.319  0.00  0.00    +0.000 C 
BRANCH  12  13
ATOM     13  C   UNL     1      -0.874  13.692  22.880  0.00  0.00    +0.000 A 
ATOM     14  C   UNL     1       0.026  13.608  21.808  0.00  0.00    +0.000 A 
ATOM     15  C   UNL     1       0.721  14.742  21.378  0.00  0.00    +0.000 A 
ATOM     16  C   UNL     1       0.521  15.968  22.009  0.00  0.00    +0.000 A 
ATOM     17  C   UNL     1      -0.364  16.063  23.078  0.00  0.00    +0.000 A 
ATOM     18  C   UNL     1      -1.054  14.934  23.514  0.00  0.00    +0.000 A 
ENDBRANCH  12  13
ENDBRANCH   7  12
ENDBRANCH   1   8
BRANCH   4  19
ATOM     19  C   UNL     1       1.824   8.625  18.721  0.00  0.00    +0.000 C 
ATOM     20  O   UNL     1       1.281   8.790  17.629  0.00  0.00    +0.000 OA
ATOM     21  N   UNL     1       2.507   7.477  19.016  0.00  0.00    +0.000 N 
ATOM     22  H   UNL     1       2.890   7.326  19.940  0.00  0.00    +0.000 HD
BRANCH  21  23
ATOM     23  C   UNL     1       2.548   6.372  18.070  0.00  0.00    +0.000 C 
ATOM     24  C   UNL     1       3.971   6.212  17.535  0.00  0.00    +0.000 C 
BRANCH  23  25
ATOM     25  C   UNL     1       1.966   5.122  18.704  0.00  0.00    +0.000 A 
ATOM     26  C   UNL     1       1.716   5.080  20.088  0.00  0.00    +0.000 A 
ATOM     27  C   UNL     1       1.235   3.914  20.692  0.00  0.00    +0.000 A 
ATOM     28  C   UNL     1       0.990   2.779  19.924  0.00  0.00    +0.000 A 
ATOM     29  C   UNL     1       1.216   2.811  18.551  0.00  0.00    +0.000 A 
ATOM     30  C   UNL     1       1.706   3.969  17.948  0.00  0.00    +0.000 A 
ENDBRANCH  23  25
ENDBRANCH  21  23
ENDBRANCH   4  19
TORSDOF 6
ENDMDL
MODEL 5
REMARK VINA RESULT:      -7.4      2.596      9.459
REMARK  Name = 
REMARK  8 active torsions:
REMARK  status: ('A' for Active; 'I' for Inactive)
REMARK    1  A    between atoms: C_1  and  C_2
REMARK    2  A    between atoms: C_2  and  N_3
REMARK    3  A    between atoms: C_2  and  C_23
REMARK    4  A    between atoms: C_4  and  C_6
REMARK    5  A    between atoms: C_9  and  C_10
REMARK    6  A    between atoms: N_12  and  C_13
REMARK    7  A    between atoms: C_13  and  C_14
REMARK    8  A    between atoms: C_13  and  C_15
REMARK                            x       y       z     vdW  Elec       q    Type
REMARK                         _______ _______ _______ _____ _____    ______ ____
ROOT
ATOM      1  C   UNL     1       2.267   7.855  19.938  0.00  0.00    +0.000 C 
ATOM      2  C   UNL     1       2.248   6.484  20.625  0.00  0.00    +0.000 C 
ATOM      3  C   UNL     1       1.492   5.407  19.842  0.00  0.00    +0.000 C 
ATOM      4  C   UNL     1       1.887   5.335  18.354  0.00  0.00    +0.000 C 
ATOM      5  C   UNL     1       1.871   6.712  17.685  0.00  0.00    +0.000 C 
ATOM      6  C   UNL     1       2.681   7.744  18.466  0.00  0.00    +0.000 C 
ENDROOT
BRANCH   1   8
ATOM      7  N   UNL     1       0.744   9.589  19.141  0.00  0.00    +0.000 N 
ATOM      8  C   UNL     1       0.954   8.634  20.107  0.00  0.00    +0.000 C 
ATOM      9  O   UNL     1       0.142   8.401  20.993  0.00  0.00    +0.000 OA
ATOM     10  H   UNL     1       1.494   9.815  18.503  0.00  0.00    +0.000 HD
BRANCH   7  12
ATOM     11  C   UNL     1      -1.329  10.090  17.883  0.00  0.00    +0.000 C 
ATOM     12  C   UNL     1      -0.449  10.424  19.094  0.00  0.00    +0.000 C 
BRANCH  12  13
ATOM     13  C   UNL     1      -0.027  11.882  19.068  0.00  0.00    +0.000 A 
ATOM     14  C   UNL     1       1.302  12.232  18.789  0.00  0.00    +0.000 A 
ATOM     15  C   UNL     1       1.680  13.576  18.723  0.00  0.00    +0.000 A 
ATOM     16  C   UNL     1       0.737  14.581  18.929  0.00  0.00    +0.000 A 
ATOM     17  C   UNL     1      -0.583  14.247  19.215  0.00  0.00    +0.000 A 
ATOM     18  C   UNL     1      -0.963  12.908  19.287  0.00  0.00    +0.000 A 
ENDBRANCH  12  13
ENDBRANCH   7  12
ENDBRANCH   1   8
BRANCH   4  19
ATOM     19  C   UNL     1       3.249   4.662  18.213  0.00  0.00    +0.000 C 
ATOM     20  O   UNL     1       3.651   3.831  19.026  0.00  0.00    +0.000 OA
ATOM     21  N   UNL     1       3.984   4.999  17.109  0.00  0.00    +0.000 N 
ATOM     22  H   UNL     1       3.673   5.732  16.486  0.00  0.00    +0.000 HD
BRANCH  21  23
ATOM     23  C   UNL     1       5.311   4.440  16.901  0.00  0.00    +0.000 C 
ATOM     24  C   UNL     1       5.496   4.106  15.421  0.00  0.00    +0.000 C 
BRANCH  23  25
ATOM     25  C   UNL     1       6.363   5.369  17.476  0.00  0.00    +0.000 A 
ATOM     26  C   UNL     1       7.097   4.989  18.616  0.00  0.00    +0.000 A 
ATOM     27  C   UNL     1       8.027   5.861  19.190  0.00  0.00    +0.000 A 
ATOM     28  C   UNL     1       8.243   7.119  18.632  0.00  0.00    +0.000 A 
ATOM     29  C   UNL     1       7.538   7.501  17.495  0.00  0.00    +0.000 A 
ATOM     30  C   UNL     1       6.601   6.638  16.928  0.00  0.00    +0.000 A 
ENDBRANCH  23  25
ENDBRANCH  21  23
ENDBRANCH   4  19
TORSDOF 6
ENDMDL
MODEL 6
REMARK VINA RESULT:      -7.4      2.679      9.363
REMARK  Name = 
REMARK  8 active torsions:
REMARK  status: ('A' for Active; 'I' for Inactive)
REMARK    1  A    between atoms: C_1  and  C_2
REMARK    2  A    between atoms: C_2  and  N_3
REMARK    3  A    between atoms: C_2  and  C_23
REMARK    4  A    between atoms: C_4  and  C_6
REMARK    5  A    between atoms: C_9  and  C_10
REMARK    6  A    between atoms: N_12  and  C_13
REMARK    7  A    between atoms: C_13  and  C_14
REMARK    8  A    between atoms: C_13  and  C_15
REMARK                            x       y       z     vdW  Elec       q    Type
REMARK                         _______ _______ _______ _____ _____    ______ ____
ROOT
ATOM      1  C   UNL     1       2.148   7.743  20.127  0.00  0.00    +0.000 C 
ATOM      2  C   UNL     1       2.160   6.338  20.743  0.00  0.00    +0.000 C 
ATOM      3  C   UNL     1       1.417   5.288  19.912  0.00  0.00    +0.000 C 
ATOM      4  C   UNL     1       1.800   5.301  18.419  0.00  0.00    +0.000 C 
ATOM      5  C   UNL     1       1.752   6.709  17.822  0.00  0.00    +0.000 C 
ATOM      6  C   UNL     1       2.551   7.715  18.648  0.00  0.00    +0.000 C 
ENDROOT
BRANCH   1   8
ATOM      7  N   UNL     1       0.621   9.534  19.481  0.00  0.00    +0.000 N 
ATOM      8  C   UNL     1       0.822   8.487  20.348  0.00  0.00    +0.000 C 
ATOM      9  O   UNL     1      -0.005   8.155  21.188  0.00  0.00    +0.000 OA
ATOM     10  H   UNL     1       1.380   9.832  18.886  0.00  0.00    +0.000 HD
BRANCH   7  12
ATOM     11  C   UNL     1      -1.455  10.107  18.259  0.00  0.00    +0.000 C 
ATOM     12  C   UNL     1      -0.581  10.357  19.495  0.00  0.00    +0.000 C 
BRANCH  12  13
ATOM     13  C   UNL     1      -0.175  11.818  19.581  0.00  0.00    +0.000 A 
ATOM     14  C   UNL     1       0.700  12.254  20.586  0.00  0.00    +0.000 A 
ATOM     15  C   UNL     1       1.107  13.590  20.638  0.00  0.00    +0.000 A 
ATOM     16  C   UNL     1       0.651  14.500  19.687  0.00  0.00    +0.000 A 
ATOM     17  C   UNL     1      -0.224  14.082  18.689  0.00  0.00    +0.000 A 
ATOM     18  C   UNL     1      -0.636  12.752  18.637  0.00  0.00    +0.000 A 
ENDBRANCH  12  13
ENDBRANCH   7  12
ENDBRANCH   1   8
BRANCH   4  19
ATOM     19  C   UNL     1       3.172   4.661  18.232  0.00  0.00    +0.000 C 
ATOM     20  O   UNL     1       3.590   3.784  18.986  0.00  0.00    +0.000 OA
ATOM     21  N   UNL     1       3.900   5.086  17.153  0.00  0.00    +0.000 N 
ATOM     22  H   UNL     1       3.576   5.854  16.581  0.00  0.00    +0.000 HD
BRANCH  21  23
ATOM     23  C   UNL     1       5.236   4.564  16.907  0.00  0.00    +0.000 C 
ATOM     24  C   UNL     1       5.419   4.322  15.409  0.00  0.00    +0.000 C 
BRANCH  23  25
ATOM     25  C   UNL     1       6.274   5.477  17.532  0.00  0.00    +0.000 A 
ATOM     26  C   UNL     1       6.519   6.751  16.986  0.00  0.00    +0.000 A 
ATOM     27  C   UNL     1       7.515   7.576  17.519  0.00  0.00    +0.000 A 
ATOM     28  C   UNL     1       8.273   7.146  18.605  0.00  0.00    +0.000 A 
ATOM     29  C   UNL     1       8.030   5.897  19.166  0.00  0.00    +0.000 A 
ATOM     30  C   UNL     1       7.045   5.066  18.630  0.00  0.00    +0.000 A 
ENDBRANCH  23  25
ENDBRANCH  21  23
ENDBRANCH   4  19
TORSDOF 6
ENDMDL
MODEL 7
REMARK VINA RESULT:      -7.4      0.732      1.596
REMARK  Name = 
REMARK  8 active torsions:
REMARK  status: ('A' for Active; 'I' for Inactive)
REMARK    1  A    between atoms: C_1  and  C_2
REMARK    2  A    between atoms: C_2  and  N_3
REMARK    3  A    between atoms: C_2  and  C_23
REMARK    4  A    between atoms: C_4  and  C_6
REMARK    5  A    between atoms: C_9  and  C_10
REMARK    6  A    between atoms: N_12  and  C_13
REMARK    7  A    between atoms: C_13  and  C_14
REMARK    8  A    between atoms: C_13  and  C_15
REMARK                            x       y       z     vdW  Elec       q    Type
REMARK                         _______ _______ _______ _____ _____    ______ ____
ROOT
ATOM      1  C   UNL     1       0.609   9.896  18.811  0.00  0.00    +0.000 C 
ATOM      2  C   UNL     1      -0.715  10.004  19.578  0.00  0.00    +0.000 C 
ATOM      3  C   UNL     1      -0.603  10.752  20.910  0.00  0.00    +0.000 C 
ATOM      4  C   UNL     1       0.147  12.094  20.801  0.00  0.00    +0.000 C 
ATOM      5  C   UNL     1       1.478  11.953  20.058  0.00  0.00    +0.000 C 
ATOM      6  C   UNL     1       1.316  11.253  18.710  0.00  0.00    +0.000 C 
ENDROOT
BRANCH   1   8
ATOM      7  N   UNL     1       2.114   8.021  18.392  0.00  0.00    +0.000 N 
ATOM      8  C   UNL     1       1.539   8.804  19.363  0.00  0.00    +0.000 C 
ATOM      9  O   UNL     1       1.783   8.667  20.555  0.00  0.00    +0.000 OA
ATOM     10  H   UNL     1       1.792   8.104  17.439  0.00  0.00    +0.000 HD
BRANCH   7  12
ATOM     11  C   UNL     1       4.063   6.742  17.557  0.00  0.00    +0.000 C 
ATOM     12  C   UNL     1       3.050   6.944  18.690  0.00  0.00    +0.000 C 
BRANCH  12  13
ATOM     13  C   UNL     1       2.265   5.669  18.945  0.00  0.00    +0.000 A 
ATOM     14  C   UNL     1       1.953   4.803  17.888  0.00  0.00    +0.000 A 
ATOM     15  C   UNL     1       1.267   3.610  18.130  0.00  0.00    +0.000 A 
ATOM     16  C   UNL     1       0.893   3.267  19.428  0.00  0.00    +0.000 A 
ATOM     17  C   UNL     1       1.190   4.121  20.485  0.00  0.00    +0.000 A 
ATOM     18  C   UNL     1       1.867   5.315  20.247  0.00  0.00    +0.000 A 
ENDBRANCH  12  13
ENDBRANCH   7  12
ENDBRANCH   1   8
BRANCH   4  19
ATOM     19  C   UNL     1      -0.751  13.137  20.145  0.00  0.00    +0.000 C 
ATOM     20  O   UNL     1      -1.833  12.840  19.642  0.00  0.00    +0.000 OA
ATOM     21  N   UNL     1      -0.309  14.432  20.183  0.00  0.00    +0.000 N 
ATOM     22  H   UNL     1       0.611  14.654  20.538  0.00  0.00    +0.000 HD
BRANCH  21  23
ATOM     23  C   UNL     1      -1.076  15.497  19.554  0.00  0.00    +0.000 C 
ATOM     24  C   UNL     1      -1.826  16.286  20.627  0.00  0.00    +0.000 C 
BRANCH  23  25
ATOM     25  C   UNL     1      -0.172  16.335  18.668  0.00  0.00    +0.000 A 
ATOM     26  C   UNL     1       1.220  16.125  18.676  0.00  0.00    +0.000 A 
ATOM     27  C   UNL     1       2.067  16.930  17.908  0.00  0.00    +0.000 A 
ATOM     28  C   UNL     1       1.539  17.948  17.118  0.00  0.00    +0.000 A 
ATOM     29  C   UNL     1       0.163  18.155  17.087  0.00  0.00    +0.000 A 
ATOM     30  C   UNL     1      -0.683  17.362  17.861  0.00  0.00    +0.000 A 
ENDBRANCH  23  25
ENDBRANCH  21  23
ENDBRANCH   4  19
TORSDOF 6
ENDMDL
MODEL 8
REMARK VINA RESULT:      -7.4      3.472      9.661
REMARK  Name = 
REMARK  8 active torsions:
REMARK  status: ('A' for Active; 'I' for Inactive)
REMARK    1  A    between atoms: C_1  and  C_2
REMARK    2  A    between atoms: C_2  and  N_3
REMARK    3  A    between atoms: C_2  and  C_23
REMARK    4  A    between atoms: C_4  and  C_6
REMARK    5  A    between atoms: C_9  and  C_10
REMARK    6  A    between atoms: N_12  and  C_13
REMARK    7  A    between atoms: C_13  and  C_14
REMARK    8  A    between atoms: C_13  and  C_15
REMARK                            x       y       z     vdW  Elec       q    Type
REMARK                         _______ _______ _______ _____ _____    ______ ____
ROOT
ATOM      1  C   UNL     1      -1.142  11.587  19.126  0.00  0.00    +0.000 C 
ATOM      2  C   UNL     1       0.225  11.866  18.488  0.00  0.00    +0.000 C 
ATOM      3  C   UNL     1       1.414  11.441  19.356  0.00  0.00    +0.000 C 
ATOM      4  C   UNL     1       1.285  10.013  19.921  0.00  0.00    +0.000 C 
ATOM      5  C   UNL     1      -0.077   9.771  20.577  0.00  0.00    +0.000 C 
ATOM      6  C   UNL     1      -1.236  10.153  19.659  0.00  0.00    +0.000 C 
ENDROOT
BRANCH   1   8
ATOM      7  N   UNL     1      -2.659  12.289  20.906  0.00  0.00    +0.000 N 
ATOM      8  C   UNL     1      -1.533  12.623  20.192  0.00  0.00    +0.000 C 
ATOM      9  O   UNL     1      -0.880  13.634  20.420  0.00  0.00    +0.000 OA
ATOM     10  H   UNL     1      -3.218  11.505  20.602  0.00  0.00    +0.000 HD
BRANCH   7  12
ATOM     11  C   UNL     1      -2.486  12.833  23.315  0.00  0.00    +0.000 C 
ATOM     12  C   UNL     1      -3.191  13.115  21.982  0.00  0.00    +0.000 C 
BRANCH  12  13
ATOM     13  C   UNL     1      -4.684  12.865  22.099  0.00  0.00    +0.000 A 
ATOM     14  C   UNL     1      -5.415  12.397  20.998  0.00  0.00    +0.000 A 
ATOM     15  C   UNL     1      -6.781  12.128  21.119  0.00  0.00    +0.000 A 
ATOM     16  C   UNL     1      -7.428  12.316  22.339  0.00  0.00    +0.000 A 
ATOM     17  C   UNL     1      -6.716  12.787  23.438  0.00  0.00    +0.000 A 
ATOM     18  C   UNL     1      -5.355  13.062  23.319  0.00  0.00    +0.000 A 
ENDBRANCH  12  13
ENDBRANCH   7  12
ENDBRANCH   1   8
BRANCH   4  19
ATOM     19  C   UNL     1       1.564   8.995  18.819  0.00  0.00    +0.000 C 
ATOM     20  O   UNL     1       1.326   9.235  17.637  0.00  0.00    +0.000 OA
ATOM     21  N   UNL     1       2.132   7.813  19.211  0.00  0.00    +0.000 N 
ATOM     22  H   UNL     1       2.259   7.601  20.192  0.00  0.00    +0.000 HD
BRANCH  21  23
ATOM     23  C   UNL     1       2.404   6.762  18.242  0.00  0.00    +0.000 C 
ATOM     24  C   UNL     1       3.882   6.798  17.853  0.00  0.00    +0.000 C 
BRANCH  23  25
ATOM     25  C   UNL     1       1.922   5.426  18.776  0.00  0.00    +0.000 A 
ATOM     26  C   UNL     1       1.727   5.243  20.158  0.00  0.00    +0.000 A 
ATOM     27  C   UNL     1       1.340   3.999  20.665  0.00  0.00    +0.000 A 
ATOM     28  C   UNL     1       1.135   2.924  19.803  0.00  0.00    +0.000 A 
ATOM     29  C   UNL     1       1.307   3.095  18.433  0.00  0.00    +0.000 A 
ATOM     30  C   UNL     1       1.704   4.332  17.925  0.00  0.00    +0.000 A 
ENDBRANCH  23  25
ENDBRANCH  21  23
ENDBRANCH   4  19
TORSDOF 6
ENDMDL
MODEL 9
REMARK VINA RESULT:      -7.3      2.931      9.375
REMARK  Name = 
REMARK  8 active torsions:
REMARK  status: ('A' for Active; 'I' for Inactive)
REMARK    1  A    between atoms: C_1  and  C_2
REMARK    2  A    between atoms: C_2  and  N_3
REMARK    3  A    between atoms: C_2  and  C_23
REMARK    4  A    between atoms: C_4  and  C_6
REMARK    5  A    between atoms: C_9  and  C_10
REMARK    6  A    between atoms: N_12  and  C_13
REMARK    7  A    between atoms: C_13  and  C_14
REMARK    8  A    between atoms: C_13  and  C_15
REMARK                            x       y       z     vdW  Elec       q    Type
REMARK                         _______ _______ _______ _____ _____    ______ ____
ROOT
ATOM      1  C   UNL     1       2.124   7.674  20.219  0.00  0.00    +0.000 C 
ATOM      2  C   UNL     1       2.182   6.271  20.837  0.00  0.00    +0.000 C 
ATOM      3  C   UNL     1       1.471   5.197  20.007  0.00  0.00    +0.000 C 
ATOM      4  C   UNL     1       1.851   5.220  18.514  0.00  0.00    +0.000 C 
ATOM      5  C   UNL     1       1.758   6.626  17.915  0.00  0.00    +0.000 C 
ATOM      6  C   UNL     1       2.525   7.658  18.739  0.00  0.00    +0.000 C 
ENDROOT
BRANCH   1   8
ATOM      7  N   UNL     1       0.533   9.405  19.563  0.00  0.00    +0.000 N 
ATOM      8  C   UNL     1       0.775   8.376  20.441  0.00  0.00    +0.000 C 
ATOM      9  O   UNL     1      -0.034   8.027  21.290  0.00  0.00    +0.000 OA
ATOM     10  H   UNL     1       1.278   9.722  18.960  0.00  0.00    +0.000 HD
BRANCH   7  12
ATOM     11  C   UNL     1      -1.299  10.322  18.173  0.00  0.00    +0.000 C 
ATOM     12  C   UNL     1      -0.696  10.188  19.577  0.00  0.00    +0.000 C 
BRANCH  12  13
ATOM     13  C   UNL     1      -0.401  11.555  20.169  0.00  0.00    +0.000 A 
ATOM     14  C   UNL     1       0.001  12.615  19.344  0.00  0.00    +0.000 A 
ATOM     15  C   UNL     1       0.231  13.883  19.885  0.00  0.00    +0.000 A 
ATOM     16  C   UNL     1       0.058  14.106  21.249  0.00  0.00    +0.000 A 
ATOM     17  C   UNL     1      -0.333  13.061  22.080  0.00  0.00    +0.000 A 
ATOM     18  C   UNL     1      -0.558  11.794  21.546  0.00  0.00    +0.000 A 
ENDBRANCH  12  13
ENDBRANCH   7  12
ENDBRANCH   1   8
BRANCH   4  19
ATOM     19  C   UNL     1       3.243   4.625  18.325  0.00  0.00    +0.000 C 
ATOM     20  O   UNL     1       3.724   3.829  19.130  0.00  0.00    +0.000 OA
ATOM     21  N   UNL     1       3.914   4.991  17.190  0.00  0.00    +0.000 N 
ATOM     22  H   UNL     1       3.537   5.698  16.572  0.00  0.00    +0.000 HD
BRANCH  21  23
ATOM     23  C   UNL     1       5.262   4.507  16.934  0.00  0.00    +0.000 C 
ATOM     24  C   UNL     1       5.436   4.253  15.437  0.00  0.00    +0.000 C 
BRANCH  23  25
ATOM     25  C   UNL     1       6.279   5.456  17.539  0.00  0.00    +0.000 A 
ATOM     26  C   UNL     1       6.500   6.721  16.960  0.00  0.00    +0.000 A 
ATOM     27  C   UNL     1       7.476   7.580  17.473  0.00  0.00    +0.000 A 
ATOM     28  C   UNL     1       8.239   7.195  18.573  0.00  0.00    +0.000 A 
ATOM     29  C   UNL     1       8.020   5.955  19.165  0.00  0.00    +0.000 A 
ATOM     30  C   UNL     1       7.055   5.091  18.648  0.00  0.00    +0.000 A 
ENDBRANCH  23  25
ENDBRANCH  21  23
ENDBRANCH   4  19
TORSDOF 6
ENDMDL
