MODEL 1
REMARK VINA RESULT:      -7.0      0.000      0.000
REMARK  Name = 
REMARK  1 active torsions:
REMARK  status: ('A' for Active; 'I' for Inactive)
REMARK    1  A    between atoms: C_1  and  N_2
REMARK                            x       y       z     vdW  Elec       q    Type
REMARK                         _______ _______ _______ _____ _____    ______ ____
ROOT
ATOM      1  C   UNL     1       1.091   2.997  20.915  0.00  0.00    +0.000 C 
ATOM      2  N   UNL     1       2.042   3.235  19.812  0.00  0.00    +0.000 N 
ATOM      3  C   UNL     1       1.634   3.053  18.539  0.00  0.00    +0.000 A 
ATOM      4  C   UNL     1       2.492   3.265  17.467  0.00  0.00    +0.000 A 
ATOM      5  C   UNL     1       3.804   3.674  17.740  0.00  0.00    +0.000 A 
ATOM      6  C   UNL     1       4.178   3.848  19.069  0.00  0.00    +0.000 A 
ATOM      7  C   UNL     1       3.296   3.629  20.119  0.00  0.00    +0.000 A 
ATOM      8  N   UNL     1       5.498   4.247  19.067  0.00  0.00    +0.000 N 
ATOM      9  C   UNL     1       5.978   4.334  17.780  0.00  0.00    +0.000 A 
ATOM     10  C   UNL     1       7.248   4.697  17.312  0.00  0.00    +0.000 A 
ATOM     11  C   UNL     1       7.454   4.697  15.928  0.00  0.00    +0.000 A 
ATOM     12  C   UNL     1       6.426   4.348  15.056  0.00  0.00    +0.000 A 
ATOM     13 BR   UNL     1       6.736   4.359  13.190  0.00  0.00    +0.000 Br
ATOM     14  C   UNL     1       5.163   3.986  15.534  0.00  0.00    +0.000 A 
ATOM     15  C   UNL     1       4.935   3.980  16.925  0.00  0.00    +0.000 A 
ATOM     16  H   UNL     1       6.055   4.454  19.886  0.00  0.00    +0.000 HD
ENDROOT
TORSDOF 0
ENDMDL
MODEL 2
REMARK VINA RESULT:      -6.7      1.455      1.565
REMARK  Name = 
REMARK  1 active torsions:
REMARK  status: ('A' for Active; 'I' for Inactive)
REMARK    1  A    between atoms: C_1  and  N_2
REMARK                            x       y       z     vdW  Elec       q    Type
REMARK                         _______ _______ _______ _____ _____    ______ ____
ROOT
ATOM      1  C   UNL     1       1.428   2.799  21.628  0.00  0.00    +0.000 C 
ATOM      2  N   UNL     1       2.193   3.111  20.405  0.00  0.00    +0.000 N 
ATOM      3  C   UNL     1       2.552   2.108  19.578  0.00  0.00    +0.000 A 
ATOM      4  C   UNL     1       3.273   2.351  18.415  0.00  0.00    +0.000 A 
ATOM      5  C   UNL     1       3.625   3.675  18.120  0.00  0.00    +0.000 A 
ATOM      6  C   UNL     1       3.232   4.676  19.004  0.00  0.00    +0.000 A 
ATOM      7  C   UNL     1       2.511   4.399  20.158  0.00  0.00    +0.000 A 
ATOM      8  N   UNL     1       3.695   5.869  18.493  0.00  0.00    +0.000 N 
ATOM      9  C   UNL     1       4.369   5.664  17.310  0.00  0.00    +0.000 A 
ATOM     10  C   UNL     1       4.998   6.580  16.457  0.00  0.00    +0.000 A 
ATOM     11  C   UNL     1       5.613   6.078  15.305  0.00  0.00    +0.000 A 
ATOM     12  C   UNL     1       5.595   4.714  15.026  0.00  0.00    +0.000 A 
ATOM     13 BR   UNL     1       6.436   4.067  13.460  0.00  0.00    +0.000 Br
ATOM     14  C   UNL     1       4.966   3.808  15.886  0.00  0.00    +0.000 A 
ATOM     15  C   UNL     1       4.340   4.294  17.051  0.00  0.00    +0.000 A 
ATOM     16  H   UNL     1       3.568   6.782  18.911  0.00  0.00    +0.000 HD
ENDROOT
TORSDOF 0
ENDMDL
MODEL 3
REMARK VINA RESULT:      -6.6      3.956      4.243
REMARK  Name = 
REMARK  1 active torsions:
REMARK  status: ('A' for Active; 'I' for Inactive)
REMARK    1  A    between atoms: C_1  and  N_2
REMARK                            x       y       z     vdW  Elec       q    Type
REMARK                         _______ _______ _______ _____ _____    ______ ____
ROOT
ATOM      1  C   UNL     1       0.116  10.016  20.451  0.00  0.00    +0.000 C 
ATOM      2  N   UNL     1       1.054   9.123  19.743  0.00  0.00    +0.000 N 
ATOM      3  C   UNL     1       1.413   9.414  18.475  0.00  0.00    +0.000 A 
ATOM      4  C   UNL     1       2.292   8.604  17.767  0.00  0.00    +0.000 A 
ATOM      5  C   UNL     1       2.801   7.465  18.405  0.00  0.00    +0.000 A 
ATOM      6  C   UNL     1       2.402   7.206  19.713  0.00  0.00    +0.000 A 
ATOM      7  C   UNL     1       1.522   8.036  20.394  0.00  0.00    +0.000 A 
ATOM      8  N   UNL     1       3.035   6.046  20.105  0.00  0.00    +0.000 N 
ATOM      9  C   UNL     1       3.827   5.556  19.090  0.00  0.00    +0.000 A 
ATOM     10  C   UNL     1       4.639   4.416  19.048  0.00  0.00    +0.000 A 
ATOM     11  C   UNL     1       5.342   4.163  17.865  0.00  0.00    +0.000 A 
ATOM     12  C   UNL     1       5.230   5.021  16.774  0.00  0.00    +0.000 A 
ATOM     13 BR   UNL     1       6.194   4.651  15.189  0.00  0.00    +0.000 Br
ATOM     14  C   UNL     1       4.415   6.155  16.827  0.00  0.00    +0.000 A 
ATOM     15  C   UNL     1       3.699   6.428  18.010  0.00  0.00    +0.000 A 
ATOM     16  H   UNL     1       2.946   5.599  21.008  0.00  0.00    +0.000 HD
ENDROOT
TORSDOF 0
ENDMDL
MODEL 4
REMARK VINA RESULT:      -6.5      3.510      5.762
REMARK  Name = 
REMARK  1 active torsions:
REMARK  status: ('A' for Active; 'I' for Inactive)
REMARK    1  A    between atoms: C_1  and  N_2
REMARK                            x       y       z     vdW  Elec       q    Type
REMARK                         _______ _______ _______ _____ _____    ______ ____
ROOT
ATOM      1  C   UNL     1       6.626   4.245  14.357  0.00  0.00    +0.000 C 
ATOM      2  N   UNL     1       5.757   4.749  15.439  0.00  0.00    +0.000 N 
ATOM      3  C   UNL     1       5.563   6.078  15.565  0.00  0.00    +0.000 A 
ATOM      4  C   UNL     1       4.755   6.600  16.567  0.00  0.00    +0.000 A 
ATOM      5  C   UNL     1       4.141   5.706  17.454  0.00  0.00    +0.000 A 
ATOM      6  C   UNL     1       4.371   4.344  17.284  0.00  0.00    +0.000 A 
ATOM      7  C   UNL     1       5.184   3.854  16.271  0.00  0.00    +0.000 A 
ATOM      8  N   UNL     1       3.664   3.690  18.271  0.00  0.00    +0.000 N 
ATOM      9  C   UNL     1       2.988   4.590  19.064  0.00  0.00    +0.000 A 
ATOM     10  C   UNL     1       2.156   4.373  20.170  0.00  0.00    +0.000 A 
ATOM     11  C   UNL     1       1.596   5.494  20.790  0.00  0.00    +0.000 A 
ATOM     12  C   UNL     1       1.862   6.777  20.317  0.00  0.00    +0.000 A 
ATOM     13 BR   UNL     1       1.088   8.272  21.178  0.00  0.00    +0.000 Br
ATOM     14  C   UNL     1       2.695   6.981  19.213  0.00  0.00    +0.000 A 
ATOM     15  C   UNL     1       3.269   5.864  18.573  0.00  0.00    +0.000 A 
ATOM     16  H   UNL     1       3.630   2.688  18.410  0.00  0.00    +0.000 HD
ENDROOT
TORSDOF 0
ENDMDL
MODEL 5
REMARK VINA RESULT:      -6.2      2.128      2.544
REMARK  Name = 
REMARK  1 active torsions:
REMARK  status: ('A' for Active; 'I' for Inactive)
REMARK    1  A    between atoms: C_1  and  N_2
REMARK                            x       y       z     vdW  Elec       q    Type
REMARK                         _______ _______ _______ _____ _____    ______ ____
ROOT
ATOM      1  C   UNL     1       0.432   2.240  18.943  0.00  0.00    +0.000 C 
ATOM      2  N   UNL     1       1.608   3.090  18.675  0.00  0.00    +0.000 N 
ATOM      3  C   UNL     1       1.672   4.321  19.222  0.00  0.00    +0.000 A 
ATOM      4  C   UNL     1       2.758   5.157  18.998  0.00  0.00    +0.000 A 
ATOM      5  C   UNL     1       3.796   4.690  18.182  0.00  0.00    +0.000 A 
ATOM      6  C   UNL     1       3.686   3.413  17.640  0.00  0.00    +0.000 A 
ATOM      7  C   UNL     1       2.587   2.600  17.883  0.00  0.00    +0.000 A 
ATOM      8  N   UNL     1       4.820   3.196  16.887  0.00  0.00    +0.000 N 
ATOM      9  C   UNL     1       5.652   4.292  16.932  0.00  0.00    +0.000 A 
ATOM     10  C   UNL     1       6.895   4.509  16.323  0.00  0.00    +0.000 A 
ATOM     11  C   UNL     1       7.523   5.738  16.549  0.00  0.00    +0.000 A 
ATOM     12  C   UNL     1       6.924   6.706  17.353  0.00  0.00    +0.000 A 
ATOM     13 BR   UNL     1       7.799   8.358  17.639  0.00  0.00    +0.000 Br
ATOM     14  C   UNL     1       5.682   6.479  17.954  0.00  0.00    +0.000 A 
ATOM     15  C   UNL     1       5.034   5.246  17.739  0.00  0.00    +0.000 A 
ATOM     16  H   UNL     1       5.034   2.355  16.367  0.00  0.00    +0.000 HD
ENDROOT
TORSDOF 0
ENDMDL
MODEL 6
REMARK VINA RESULT:      -6.2      3.271      5.639
REMARK  Name = 
REMARK  1 active torsions:
REMARK  status: ('A' for Active; 'I' for Inactive)
REMARK    1  A    between atoms: C_1  and  N_2
REMARK                            x       y       z     vdW  Elec       q    Type
REMARK                         _______ _______ _______ _____ _____    ______ ____
ROOT
ATOM      1  C   UNL     1       7.062   5.122  13.966  0.00  0.00    +0.000 C 
ATOM      2  N   UNL     1       6.175   4.906  15.126  0.00  0.00    +0.000 N 
ATOM      3  C   UNL     1       5.970   3.651  15.576  0.00  0.00    +0.000 A 
ATOM      4  C   UNL     1       5.144   3.398  16.664  0.00  0.00    +0.000 A 
ATOM      5  C   UNL     1       4.520   4.486  17.289  0.00  0.00    +0.000 A 
ATOM      6  C   UNL     1       4.762   5.762  16.788  0.00  0.00    +0.000 A 
ATOM      7  C   UNL     1       5.594   5.982  15.699  0.00  0.00    +0.000 A 
ATOM      8  N   UNL     1       4.042   6.643  17.567  0.00  0.00    +0.000 N 
ATOM      9  C   UNL     1       3.349   5.971  18.549  0.00  0.00    +0.000 A 
ATOM     10  C   UNL     1       2.500   6.459  19.551  0.00  0.00    +0.000 A 
ATOM     11  C   UNL     1       1.926   5.529  20.424  0.00  0.00    +0.000 A 
ATOM     12  C   UNL     1       2.195   4.169  20.293  0.00  0.00    +0.000 A 
ATOM     13 BR   UNL     1       1.403   2.937  21.490  0.00  0.00    +0.000 Br
ATOM     14  C   UNL     1       3.042   3.693  19.288  0.00  0.00    +0.000 A 
ATOM     15  C   UNL     1       3.632   4.614  18.398  0.00  0.00    +0.000 A 
ATOM     16  H   UNL     1       4.012   7.647  17.451  0.00  0.00    +0.000 HD
ENDROOT
TORSDOF 0
ENDMDL
MODEL 7
REMARK VINA RESULT:      -6.1      2.484      2.660
REMARK  Name = 
REMARK  1 active torsions:
REMARK  status: ('A' for Active; 'I' for Inactive)
REMARK    1  A    between atoms: C_1  and  N_2
REMARK                            x       y       z     vdW  Elec       q    Type
REMARK                         _______ _______ _______ _____ _____    ______ ____
ROOT
ATOM      1  C   UNL     1       0.737   2.305  18.647  0.00  0.00    +0.000 C 
ATOM      2  N   UNL     1       1.885   3.222  18.509  0.00  0.00    +0.000 N 
ATOM      3  C   UNL     1       1.679   4.474  18.052  0.00  0.00    +0.000 A 
ATOM      4  C   UNL     1       2.728   5.373  17.904  0.00  0.00    +0.000 A 
ATOM      5  C   UNL     1       4.018   4.945  18.242  0.00  0.00    +0.000 A 
ATOM      6  C   UNL     1       4.181   3.644  18.709  0.00  0.00    +0.000 A 
ATOM      7  C   UNL     1       3.112   2.769  18.846  0.00  0.00    +0.000 A 
ATOM      8  N   UNL     1       5.525   3.474  18.967  0.00  0.00    +0.000 N 
ATOM      9  C   UNL     1       6.225   4.625  18.681  0.00  0.00    +0.000 A 
ATOM     10  C   UNL     1       7.594   4.901  18.791  0.00  0.00    +0.000 A 
ATOM     11  C   UNL     1       8.030   6.178  18.424  0.00  0.00    +0.000 A 
ATOM     12  C   UNL     1       7.127   7.134  17.966  0.00  0.00    +0.000 A 
ATOM     13 BR   UNL     1       7.748   8.852  17.477  0.00  0.00    +0.000 Br
ATOM     14  C   UNL     1       5.763   6.847  17.858  0.00  0.00    +0.000 A 
ATOM     15  C   UNL     1       5.303   5.566  18.224  0.00  0.00    +0.000 A 
ATOM     16  H   UNL     1       5.959   2.631  19.318  0.00  0.00    +0.000 HD
ENDROOT
TORSDOF 0
ENDMDL
MODEL 8
REMARK VINA RESULT:      -6.0      4.782      5.830
REMARK  Name = 
REMARK  1 active torsions:
REMARK  status: ('A' for Active; 'I' for Inactive)
REMARK    1  A    between atoms: C_1  and  N_2
REMARK                            x       y       z     vdW  Elec       q    Type
REMARK                         _______ _______ _______ _____ _____    ______ ____
ROOT
ATOM      1  C   UNL     1       0.866  11.658  19.228  0.00  0.00    +0.000 C 
ATOM      2  N   UNL     1       1.278  10.245  19.122  0.00  0.00    +0.000 N 
ATOM      3  C   UNL     1       1.757   9.783  17.949  0.00  0.00    +0.000 A 
ATOM      4  C   UNL     1       2.158   8.461  17.801  0.00  0.00    +0.000 A 
ATOM      5  C   UNL     1       2.052   7.609  18.908  0.00  0.00    +0.000 A 
ATOM      6  C   UNL     1       1.552   8.132  20.097  0.00  0.00    +0.000 A 
ATOM      7  C   UNL     1       1.160   9.458  20.213  0.00  0.00    +0.000 A 
ATOM      8  N   UNL     1       1.549   7.105  21.018  0.00  0.00    +0.000 N 
ATOM      9  C   UNL     1       2.032   5.945  20.456  0.00  0.00    +0.000 A 
ATOM     10  C   UNL     1       2.204   4.672  21.016  0.00  0.00    +0.000 A 
ATOM     11  C   UNL     1       2.724   3.667  20.195  0.00  0.00    +0.000 A 
ATOM     12  C   UNL     1       3.056   3.932  18.869  0.00  0.00    +0.000 A 
ATOM     13 BR   UNL     1       3.758   2.550  17.785  0.00  0.00    +0.000 Br
ATOM     14  C   UNL     1       2.878   5.205  18.319  0.00  0.00    +0.000 A 
ATOM     15  C   UNL     1       2.356   6.232  19.131  0.00  0.00    +0.000 A 
ATOM     16  H   UNL     1       1.240   7.173  21.979  0.00  0.00    +0.000 HD
ENDROOT
TORSDOF 0
ENDMDL
MODEL 9
REMARK VINA RESULT:      -6.0      6.903      7.801
REMARK  Name = 
REMARK  1 active torsions:
REMARK  status: ('A' for Active; 'I' for Inactive)
REMARK    1  A    between atoms: C_1  and  N_2
REMARK                            x       y       z     vdW  Elec       q    Type
REMARK                         _______ _______ _______ _____ _____    ______ ____
ROOT
ATOM      1  C   UNL     1      -1.972  12.298  23.201  0.00  0.00    +0.000 C 
ATOM      2  N   UNL     1      -1.144  11.296  22.501  0.00  0.00    +0.000 N 
ATOM      3  C   UNL     1      -0.731  10.199  23.168  0.00  0.00    +0.000 A 
ATOM      4  C   UNL     1       0.050   9.229  22.553  0.00  0.00    +0.000 A 
ATOM      5  C   UNL     1       0.404   9.418  21.210  0.00  0.00    +0.000 A 
ATOM      6  C   UNL     1      -0.046  10.566  20.564  0.00  0.00    +0.000 A 
ATOM      7  C   UNL     1      -0.826  11.517  21.208  0.00  0.00    +0.000 A 
ATOM      8  N   UNL     1       0.433  10.514  19.272  0.00  0.00    +0.000 N 
ATOM      9  C   UNL     1       1.172   9.370  19.072  0.00  0.00    +0.000 A 
ATOM     10  C   UNL     1       1.838   8.913  17.927  0.00  0.00    +0.000 A 
ATOM     11  C   UNL     1       2.519   7.695  18.015  0.00  0.00    +0.000 A 
ATOM     12  C   UNL     1       2.530   6.971  19.205  0.00  0.00    +0.000 A 
ATOM     13 BR   UNL     1       3.461   5.326  19.292  0.00  0.00    +0.000 Br
ATOM     14  C   UNL     1       1.864   7.437  20.342  0.00  0.00    +0.000 A 
ATOM     15  C   UNL     1       1.171   8.663  20.273  0.00  0.00    +0.000 A 
ATOM     16  H   UNL     1       0.274  11.209  18.554  0.00  0.00    +0.000 HD
ENDROOT
TORSDOF 0
ENDMDL
