MODEL 1
REMARK VINA RESULT:      -9.0      0.000      0.000
REMARK  Name = 
REMARK  5 active torsions:
REMARK  status: ('A' for Active; 'I' for Inactive)
REMARK    1  A    between atoms: C_1  and  C_2
REMARK    2  A    between atoms: C_8  and  C_9
REMARK    3  A    between atoms: N_11  and  C_12
REMARK    4  A    between atoms: C_19  and  C_20
REMARK    5  A    between atoms: C_22  and  O_23
REMARK                            x       y       z     vdW  Elec       q    Type
REMARK                         _______ _______ _______ _____ _____    ______ ____
ROOT
ATOM      1  C   UNL     1       1.182   3.078  21.773  0.00  0.00    +0.000 C 
ATOM      2  C   UNL     1       2.452   3.179  20.982  0.00  0.00    +0.000 A 
ATOM      3  C   UNL     1       3.341   2.176  20.984  0.00  0.00    +0.000 A 
ATOM      4  C   UNL     1       4.600   2.217  20.237  0.00  0.00    +0.000 A 
ATOM      5  O   UNL     1       5.376   1.271  20.242  0.00  0.00    +0.000 OA
ATOM      6  O   UNL     1       4.844   3.370  19.516  0.00  0.00    +0.000 OA
ATOM      7  C   UNL     1       3.892   4.410  19.385  0.00  0.00    +0.000 A 
ATOM      8  C   UNL     1       4.183   5.456  18.488  0.00  0.00    +0.000 A 
ATOM      9  C   UNL     1       3.298   6.545  18.475  0.00  0.00    +0.000 A 
ATOM     10  C   UNL     1       2.146   6.551  19.259  0.00  0.00    +0.000 A 
ATOM     11  C   UNL     1       1.852   5.463  20.084  0.00  0.00    +0.000 A 
ATOM     12  C   UNL     1       2.724   4.372  20.160  0.00  0.00    +0.000 A 
ENDROOT
BRANCH   8  13
ATOM     13  C   UNL     1       5.341   5.411  17.576  0.00  0.00    +0.000 A 
ATOM     14  N   UNL     1       5.158   5.080  16.282  0.00  0.00    +0.000 NA
ATOM     15  N   UNL     1       6.394   5.127  15.712  0.00  0.00    +0.000 N 
ATOM     16  C   UNL     1       7.346   5.488  16.626  0.00  0.00    +0.000 A 
ATOM     17  C   UNL     1       6.726   5.606  17.849  0.00  0.00    +0.000 A 
BRANCH  15  18
ATOM     18  C   UNL     1       6.594   4.762  14.354  0.00  0.00    +0.000 A 
ATOM     19  C   UNL     1       5.778   3.789  13.763  0.00  0.00    +0.000 A 
ATOM     20  C   UNL     1       6.004   3.385  12.445  0.00  0.00    +0.000 A 
ATOM     21  C   UNL     1       7.043   3.951  11.709  0.00  0.00    +0.000 A 
ATOM     22  C   UNL     1       7.851   4.929  12.282  0.00  0.00    +0.000 A 
ATOM     23  C   UNL     1       7.626   5.339  13.600  0.00  0.00    +0.000 A 
ENDBRANCH  15  18
BRANCH  17  24
ATOM     24  C   UNL     1       7.434   5.846  19.088  0.00  0.00    +0.000 C 
ATOM     25  O   UNL     1       8.200   5.032  19.594  0.00  0.00    +0.000 OA
ENDBRANCH  17  24
ENDBRANCH   8  13
BRANCH   9  26
ATOM     26  O   UNL     1       3.505   7.659  17.702  0.00  0.00    +0.000 OA
ATOM     27  H   UNL     1       4.363   7.527  17.241  0.00  0.00    +0.000 HD
ENDBRANCH   9  26
TORSDOF 4
ENDMDL
MODEL 2
REMARK VINA RESULT:      -8.6      0.970      3.317
REMARK  Name = 
REMARK  5 active torsions:
REMARK  status: ('A' for Active; 'I' for Inactive)
REMARK    1  A    between atoms: C_1  and  C_2
REMARK    2  A    between atoms: C_8  and  C_9
REMARK    3  A    between atoms: N_11  and  C_12
REMARK    4  A    between atoms: C_19  and  C_20
REMARK    5  A    between atoms: C_22  and  O_23
REMARK                            x       y       z     vdW  Elec       q    Type
REMARK                         _______ _______ _______ _____ _____    ______ ____
ROOT
ATOM      1  C   UNL     1       0.517   7.437  21.210  0.00  0.00    +0.000 C 
ATOM      2  C   UNL     1       1.507   7.382  20.085  0.00  0.00    +0.000 A 
ATOM      3  C   UNL     1       1.651   8.420  19.249  0.00  0.00    +0.000 A 
ATOM      4  C   UNL     1       2.597   8.426  18.131  0.00  0.00    +0.000 A 
ATOM      5  O   UNL     1       2.719   9.402  17.403  0.00  0.00    +0.000 OA
ATOM      6  O   UNL     1       3.350   7.280  17.964  0.00  0.00    +0.000 OA
ATOM      7  C   UNL     1       3.323   6.202  18.881  0.00  0.00    +0.000 A 
ATOM      8  C   UNL     1       4.257   5.164  18.701  0.00  0.00    +0.000 A 
ATOM      9  C   UNL     1       4.125   4.040  19.531  0.00  0.00    +0.000 A 
ATOM     10  C   UNL     1       3.161   3.992  20.536  0.00  0.00    +0.000 A 
ATOM     11  C   UNL     1       2.296   5.072  20.733  0.00  0.00    +0.000 A 
ATOM     12  C   UNL     1       2.364   6.197  19.906  0.00  0.00    +0.000 A 
ENDROOT
BRANCH   8  13
ATOM     13  C   UNL     1       5.349   5.250  17.713  0.00  0.00    +0.000 A 
ATOM     14  N   UNL     1       5.128   4.871  16.439  0.00  0.00    +0.000 NA
ATOM     15  N   UNL     1       6.307   5.065  15.788  0.00  0.00    +0.000 N 
ATOM     16  C   UNL     1       7.262   5.565  16.630  0.00  0.00    +0.000 A 
ATOM     17  C   UNL     1       6.712   5.628  17.891  0.00  0.00    +0.000 A 
BRANCH  15  18
ATOM     18  C   UNL     1       6.465   4.701  14.423  0.00  0.00    +0.000 A 
ATOM     19  C   UNL     1       5.602   3.761  13.846  0.00  0.00    +0.000 A 
ATOM     20  C   UNL     1       5.785   3.356  12.522  0.00  0.00    +0.000 A 
ATOM     21  C   UNL     1       6.827   3.888  11.766  0.00  0.00    +0.000 A 
ATOM     22  C   UNL     1       7.682   4.833  12.326  0.00  0.00    +0.000 A 
ATOM     23  C   UNL     1       7.500   5.244  13.650  0.00  0.00    +0.000 A 
ENDBRANCH  15  18
BRANCH  17  24
ATOM     24  C   UNL     1       7.461   5.984  19.076  0.00  0.00    +0.000 C 
ATOM     25  O   UNL     1       7.512   5.277  20.078  0.00  0.00    +0.000 OA
ENDBRANCH  17  24
ENDBRANCH   8  13
BRANCH   9  26
ATOM     26  O   UNL     1       4.923   2.931  19.411  0.00  0.00    +0.000 OA
ATOM     27  H   UNL     1       5.532   2.937  20.183  0.00  0.00    +0.000 HD
ENDBRANCH   9  26
TORSDOF 4
ENDMDL
MODEL 3
REMARK VINA RESULT:      -7.8      0.932      1.327
REMARK  Name = 
REMARK  5 active torsions:
REMARK  status: ('A' for Active; 'I' for Inactive)
REMARK    1  A    between atoms: C_1  and  C_2
REMARK    2  A    between atoms: C_8  and  C_9
REMARK    3  A    between atoms: N_11  and  C_12
REMARK    4  A    between atoms: C_19  and  C_20
REMARK    5  A    between atoms: C_22  and  O_23
REMARK                            x       y       z     vdW  Elec       q    Type
REMARK                         _______ _______ _______ _____ _____    ______ ____
ROOT
ATOM      1  C   UNL     1       0.346   3.234  20.511  0.00  0.00    +0.000 C 
ATOM      2  C   UNL     1       1.666   3.208  19.798  0.00  0.00    +0.000 A 
ATOM      3  C   UNL     1       2.280   2.045  19.537  0.00  0.00    +0.000 A 
ATOM      4  C   UNL     1       3.570   1.954  18.850  0.00  0.00    +0.000 A 
ATOM      5  O   UNL     1       4.088   0.873  18.606  0.00  0.00    +0.000 OA
ATOM      6  O   UNL     1       4.148   3.152  18.478  0.00  0.00    +0.000 OA
ATOM      7  C   UNL     1       3.494   4.399  18.625  0.00  0.00    +0.000 A 
ATOM      8  C   UNL     1       4.107   5.532  18.056  0.00  0.00    +0.000 A 
ATOM      9  C   UNL     1       3.520   6.777  18.330  0.00  0.00    +0.000 A 
ATOM     10  C   UNL     1       2.341   6.874  19.068  0.00  0.00    +0.000 A 
ATOM     11  C   UNL     1       1.721   5.722  19.556  0.00  0.00    +0.000 A 
ATOM     12  C   UNL     1       2.290   4.462  19.342  0.00  0.00    +0.000 A 
ENDROOT
BRANCH   8  13
ATOM     13  C   UNL     1       5.293   5.432  17.185  0.00  0.00    +0.000 A 
ATOM     14  N   UNL     1       5.147   5.051  15.900  0.00  0.00    +0.000 NA
ATOM     15  N   UNL     1       6.400   5.054  15.370  0.00  0.00    +0.000 N 
ATOM     16  C   UNL     1       7.329   5.437  16.299  0.00  0.00    +0.000 A 
ATOM     17  C   UNL     1       6.672   5.615  17.495  0.00  0.00    +0.000 A 
BRANCH  15  18
ATOM     18  C   UNL     1       6.638   4.631  14.035  0.00  0.00    +0.000 A 
ATOM     19  C   UNL     1       7.584   5.299  13.247  0.00  0.00    +0.000 A 
ATOM     20  C   UNL     1       7.783   4.925  11.916  0.00  0.00    +0.000 A 
ATOM     21  C   UNL     1       7.041   3.882  11.365  0.00  0.00    +0.000 A 
ATOM     22  C   UNL     1       6.107   3.204  12.143  0.00  0.00    +0.000 A 
ATOM     23  C   UNL     1       5.907   3.573  13.476  0.00  0.00    +0.000 A 
ENDBRANCH  15  18
BRANCH  17  24
ATOM     24  C   UNL     1       7.344   5.894  18.746  0.00  0.00    +0.000 C 
ATOM     25  O   UNL     1       7.090   5.306  19.793  0.00  0.00    +0.000 OA
ENDBRANCH  17  24
ENDBRANCH   8  13
BRANCH   9  26
ATOM     26  O   UNL     1       4.057   7.962  17.898  0.00  0.00    +0.000 OA
ATOM     27  H   UNL     1       4.977   7.998  18.244  0.00  0.00    +0.000 HD
ENDBRANCH   9  26
TORSDOF 4
ENDMDL
MODEL 4
REMARK VINA RESULT:      -7.7      1.536      3.573
REMARK  Name = 
REMARK  5 active torsions:
REMARK  status: ('A' for Active; 'I' for Inactive)
REMARK    1  A    between atoms: C_1  and  C_2
REMARK    2  A    between atoms: C_8  and  C_9
REMARK    3  A    between atoms: N_11  and  C_12
REMARK    4  A    between atoms: C_19  and  C_20
REMARK    5  A    between atoms: C_22  and  O_23
REMARK                            x       y       z     vdW  Elec       q    Type
REMARK                         _______ _______ _______ _____ _____    ______ ____
ROOT
ATOM      1  C   UNL     1       1.057   7.500  21.305  0.00  0.00    +0.000 C 
ATOM      2  C   UNL     1       1.805   7.449  20.005  0.00  0.00    +0.000 A 
ATOM      3  C   UNL     1       1.823   8.509  19.185  0.00  0.00    +0.000 A 
ATOM      4  C   UNL     1       2.530   8.520  17.902  0.00  0.00    +0.000 A 
ATOM      5  O   UNL     1       2.545   9.515  17.190  0.00  0.00    +0.000 OA
ATOM      6  O   UNL     1       3.190   7.355  17.560  0.00  0.00    +0.000 OA
ATOM      7  C   UNL     1       3.301   6.249  18.437  0.00  0.00    +0.000 A 
ATOM      8  C   UNL     1       4.140   5.186  18.049  0.00  0.00    +0.000 A 
ATOM      9  C   UNL     1       4.129   4.040  18.860  0.00  0.00    +0.000 A 
ATOM     10  C   UNL     1       3.380   3.992  20.034  0.00  0.00    +0.000 A 
ATOM     11  C   UNL     1       2.614   5.093  20.425  0.00  0.00    +0.000 A 
ATOM     12  C   UNL     1       2.563   6.242  19.630  0.00  0.00    +0.000 A 
ENDROOT
BRANCH   8  13
ATOM     13  C   UNL     1       5.019   5.268  16.868  0.00  0.00    +0.000 A 
ATOM     14  N   UNL     1       4.755   4.509  15.786  0.00  0.00    +0.000 NA
ATOM     15  N   UNL     1       5.729   4.806  14.882  0.00  0.00    +0.000 N 
ATOM     16  C   UNL     1       6.595   5.743  15.377  0.00  0.00    +0.000 A 
ATOM     17  C   UNL     1       6.221   6.010  16.675  0.00  0.00    +0.000 A 
BRANCH  15  18
ATOM     18  C   UNL     1       5.808   4.131  13.634  0.00  0.00    +0.000 A 
ATOM     19  C   UNL     1       4.641   3.661  13.019  0.00  0.00    +0.000 A 
ATOM     20  C   UNL     1       4.716   2.948  11.820  0.00  0.00    +0.000 A 
ATOM     21  C   UNL     1       5.953   2.702  11.228  0.00  0.00    +0.000 A 
ATOM     22  C   UNL     1       7.118   3.176  11.826  0.00  0.00    +0.000 A 
ATOM     23  C   UNL     1       7.047   3.894  13.023  0.00  0.00    +0.000 A 
ENDBRANCH  15  18
BRANCH  17  24
ATOM     24  C   UNL     1       6.979   6.856  17.571  0.00  0.00    +0.000 C 
ATOM     25  O   UNL     1       7.614   7.837  17.194  0.00  0.00    +0.000 OA
ENDBRANCH  17  24
ENDBRANCH   8  13
BRANCH   9  26
ATOM     26  O   UNL     1       4.843   2.910  18.556  0.00  0.00    +0.000 OA
ATOM     27  H   UNL     1       5.367   2.684  19.357  0.00  0.00    +0.000 HD
ENDBRANCH   9  26
TORSDOF 4
ENDMDL
MODEL 5
REMARK VINA RESULT:      -7.5      1.411      1.820
REMARK  Name = 
REMARK  5 active torsions:
REMARK  status: ('A' for Active; 'I' for Inactive)
REMARK    1  A    between atoms: C_1  and  C_2
REMARK    2  A    between atoms: C_8  and  C_9
REMARK    3  A    between atoms: N_11  and  C_12
REMARK    4  A    between atoms: C_19  and  C_20
REMARK    5  A    between atoms: C_22  and  O_23
REMARK                            x       y       z     vdW  Elec       q    Type
REMARK                         _______ _______ _______ _____ _____    ______ ____
ROOT
ATOM      1  C   UNL     1       0.931   3.423  20.867  0.00  0.00    +0.000 C 
ATOM      2  C   UNL     1       2.064   3.297  19.892  0.00  0.00    +0.000 A 
ATOM      3  C   UNL     1       2.556   2.093  19.567  0.00  0.00    +0.000 A 
ATOM      4  C   UNL     1       3.663   1.905  18.626  0.00  0.00    +0.000 A 
ATOM      5  O   UNL     1       4.068   0.788  18.334  0.00  0.00    +0.000 OA
ATOM      6  O   UNL     1       4.199   3.054  18.079  0.00  0.00    +0.000 OA
ATOM      7  C   UNL     1       3.647   4.339  18.296  0.00  0.00    +0.000 A 
ATOM      8  C   UNL     1       4.172   5.413  17.552  0.00  0.00    +0.000 A 
ATOM      9  C   UNL     1       3.712   6.698  17.881  0.00  0.00    +0.000 A 
ATOM     10  C   UNL     1       2.725   6.889  18.846  0.00  0.00    +0.000 A 
ATOM     11  C   UNL     1       2.175   5.792  19.514  0.00  0.00    +0.000 A 
ATOM     12  C   UNL     1       2.629   4.496  19.249  0.00  0.00    +0.000 A 
ENDROOT
BRANCH   8  13
ATOM     13  C   UNL     1       5.137   5.213  16.455  0.00  0.00    +0.000 A 
ATOM     14  N   UNL     1       4.773   4.506  15.367  0.00  0.00    +0.000 NA
ATOM     15  N   UNL     1       5.862   4.500  14.551  0.00  0.00    +0.000 N 
ATOM     16  C   UNL     1       6.901   5.197  15.106  0.00  0.00    +0.000 A 
ATOM     17  C   UNL     1       6.504   5.606  16.359  0.00  0.00    +0.000 A 
BRANCH  15  18
ATOM     18  C   UNL     1       5.863   3.777  13.327  0.00  0.00    +0.000 A 
ATOM     19  C   UNL     1       7.077   3.406  12.735  0.00  0.00    +0.000 A 
ATOM     20  C   UNL     1       7.087   2.745  11.505  0.00  0.00    +0.000 A 
ATOM     21  C   UNL     1       5.888   2.448  10.860  0.00  0.00    +0.000 A 
ATOM     22  C   UNL     1       4.675   2.802  11.447  0.00  0.00    +0.000 A 
ATOM     23  C   UNL     1       4.660   3.460  12.680  0.00  0.00    +0.000 A 
ENDBRANCH  15  18
BRANCH  17  24
ATOM     24  C   UNL     1       7.382   6.260  17.305  0.00  0.00    +0.000 C 
ATOM     25  O   UNL     1       7.237   7.424  17.664  0.00  0.00    +0.000 OA
ENDBRANCH  17  24
ENDBRANCH   8  13
BRANCH   9  26
ATOM     26  O   UNL     1       4.195   7.834  17.283  0.00  0.00    +0.000 OA
ATOM     27  H   UNL     1       3.728   8.593  17.700  0.00  0.00    +0.000 HD
ENDBRANCH   9  26
TORSDOF 4
ENDMDL
MODEL 6
REMARK VINA RESULT:      -7.5      1.297      1.534
REMARK  Name = 
REMARK  5 active torsions:
REMARK  status: ('A' for Active; 'I' for Inactive)
REMARK    1  A    between atoms: C_1  and  C_2
REMARK    2  A    between atoms: C_8  and  C_9
REMARK    3  A    between atoms: N_11  and  C_12
REMARK    4  A    between atoms: C_19  and  C_20
REMARK    5  A    between atoms: C_22  and  O_23
REMARK                            x       y       z     vdW  Elec       q    Type
REMARK                         _______ _______ _______ _____ _____    ______ ____
ROOT
ATOM      1  C   UNL     1       0.721   3.797  20.732  0.00  0.00    +0.000 C 
ATOM      2  C   UNL     1       1.900   3.527  19.844  0.00  0.00    +0.000 A 
ATOM      3  C   UNL     1       2.333   2.275  19.643  0.00  0.00    +0.000 A 
ATOM      4  C   UNL     1       3.480   1.949  18.792  0.00  0.00    +0.000 A 
ATOM      5  O   UNL     1       3.831   0.791  18.611  0.00  0.00    +0.000 OA
ATOM      6  O   UNL     1       4.120   3.018  18.195  0.00  0.00    +0.000 OA
ATOM      7  C   UNL     1       3.638   4.346  18.279  0.00  0.00    +0.000 A 
ATOM      8  C   UNL     1       4.273   5.325  17.492  0.00  0.00    +0.000 A 
ATOM      9  C   UNL     1       3.877   6.657  17.692  0.00  0.00    +0.000 A 
ATOM     10  C   UNL     1       2.848   6.981  18.575  0.00  0.00    +0.000 A 
ATOM     11  C   UNL     1       2.191   5.975  19.287  0.00  0.00    +0.000 A 
ATOM     12  C   UNL     1       2.577   4.637  19.150  0.00  0.00    +0.000 A 
ENDROOT
BRANCH   8  13
ATOM     13  C   UNL     1       5.287   4.983  16.477  0.00  0.00    +0.000 A 
ATOM     14  N   UNL     1       4.896   4.515  15.275  0.00  0.00    +0.000 NA
ATOM     15  N   UNL     1       6.043   4.296  14.575  0.00  0.00    +0.000 N 
ATOM     16  C   UNL     1       7.145   4.625  15.315  0.00  0.00    +0.000 A 
ATOM     17  C   UNL     1       6.710   4.998  16.566  0.00  0.00    +0.000 A 
BRANCH  15  18
ATOM     18  C   UNL     1       6.015   3.728  13.272  0.00  0.00    +0.000 A 
ATOM     19  C   UNL     1       4.788   3.432  12.665  0.00  0.00    +0.000 A 
ATOM     20  C   UNL     1       4.753   2.822  11.409  0.00  0.00    +0.000 A 
ATOM     21  C   UNL     1       5.940   2.507  10.751  0.00  0.00    +0.000 A 
ATOM     22  C   UNL     1       7.165   2.810  11.341  0.00  0.00    +0.000 A 
ATOM     23  C   UNL     1       7.204   3.423  12.596  0.00  0.00    +0.000 A 
ENDBRANCH  15  18
BRANCH  17  24
ATOM     24  C   UNL     1       7.597   5.290  17.671  0.00  0.00    +0.000 C 
ATOM     25  O   UNL     1       7.335   5.010  18.837  0.00  0.00    +0.000 OA
ENDBRANCH  17  24
ENDBRANCH   8  13
BRANCH   9  26
ATOM     26  O   UNL     1       4.465   7.712  17.043  0.00  0.00    +0.000 OA
ATOM     27  H   UNL     1       5.430   7.653  17.226  0.00  0.00    +0.000 HD
ENDBRANCH   9  26
TORSDOF 4
ENDMDL
MODEL 7
REMARK VINA RESULT:      -7.2      4.863      7.777
REMARK  Name = 
REMARK  5 active torsions:
REMARK  status: ('A' for Active; 'I' for Inactive)
REMARK    1  A    between atoms: C_1  and  C_2
REMARK    2  A    between atoms: C_8  and  C_9
REMARK    3  A    between atoms: N_11  and  C_12
REMARK    4  A    between atoms: C_19  and  C_20
REMARK    5  A    between atoms: C_22  and  O_23
REMARK                            x       y       z     vdW  Elec       q    Type
REMARK                         _______ _______ _______ _____ _____    ______ ____
ROOT
ATOM      1  C   UNL     1      -2.922  13.006  21.916  0.00  0.00    +0.000 C 
ATOM      2  C   UNL     1      -2.229  12.187  20.867  0.00  0.00    +0.000 A 
ATOM      3  C   UNL     1      -2.515  12.355  19.568  0.00  0.00    +0.000 A 
ATOM      4  C   UNL     1      -1.878  11.585  18.498  0.00  0.00    +0.000 A 
ATOM      5  O   UNL     1      -2.146  11.784  17.321  0.00  0.00    +0.000 OA
ATOM      6  O   UNL     1      -0.948  10.643  18.897  0.00  0.00    +0.000 OA
ATOM      7  C   UNL     1      -0.524  10.502  20.240  0.00  0.00    +0.000 A 
ATOM      8  C   UNL     1       0.550   9.630  20.500  0.00  0.00    +0.000 A 
ATOM      9  C   UNL     1       0.865   9.395  21.848  0.00  0.00    +0.000 A 
ATOM     10  C   UNL     1       0.193  10.057  22.874  0.00  0.00    +0.000 A 
ATOM     11  C   UNL     1      -0.820  10.971  22.575  0.00  0.00    +0.000 A 
ATOM     12  C   UNL     1      -1.196  11.209  21.249  0.00  0.00    +0.000 A 
ENDROOT
BRANCH   8  13
ATOM     13  C   UNL     1       1.338   9.007  19.421  0.00  0.00    +0.000 A 
ATOM     14  N   UNL     1       1.612   7.689  19.469  0.00  0.00    +0.000 NA
ATOM     15  N   UNL     1       2.342   7.423  18.351  0.00  0.00    +0.000 N 
ATOM     16  C   UNL     1       2.525   8.552  17.600  0.00  0.00    +0.000 A 
ATOM     17  C   UNL     1       1.964   9.604  18.287  0.00  0.00    +0.000 A 
BRANCH  15  18
ATOM     18  C   UNL     1       2.871   6.127  18.106  0.00  0.00    +0.000 A 
ATOM     19  C   UNL     1       4.250   5.957  17.927  0.00  0.00    +0.000 A 
ATOM     20  C   UNL     1       4.771   4.695  17.630  0.00  0.00    +0.000 A 
ATOM     21  C   UNL     1       3.921   3.598  17.513  0.00  0.00    +0.000 A 
ATOM     22  C   UNL     1       2.550   3.754  17.703  0.00  0.00    +0.000 A 
ATOM     23  C   UNL     1       2.025   5.014  18.003  0.00  0.00    +0.000 A 
ENDBRANCH  15  18
BRANCH  17  24
ATOM     24  C   UNL     1       2.074  10.986  17.870  0.00  0.00    +0.000 C 
ATOM     25  O   UNL     1       2.235  11.915  18.655  0.00  0.00    +0.000 OA
ENDBRANCH  17  24
ENDBRANCH   8  13
BRANCH   9  26
ATOM     26  O   UNL     1       1.839   8.513  22.240  0.00  0.00    +0.000 OA
ATOM     27  H   UNL     1       2.149   8.809  23.125  0.00  0.00    +0.000 HD
ENDBRANCH   9  26
TORSDOF 4
ENDMDL
MODEL 8
REMARK VINA RESULT:      -7.1      3.578      5.543
REMARK  Name = 
REMARK  5 active torsions:
REMARK  status: ('A' for Active; 'I' for Inactive)
REMARK    1  A    between atoms: C_1  and  C_2
REMARK    2  A    between atoms: C_8  and  C_9
REMARK    3  A    between atoms: N_11  and  C_12
REMARK    4  A    between atoms: C_19  and  C_20
REMARK    5  A    between atoms: C_22  and  O_23
REMARK                            x       y       z     vdW  Elec       q    Type
REMARK                         _______ _______ _______ _____ _____    ______ ____
ROOT
ATOM      1  C   UNL     1       2.499   2.657  16.848  0.00  0.00    +0.000 C 
ATOM      2  C   UNL     1       3.260   3.801  17.451  0.00  0.00    +0.000 A 
ATOM      3  C   UNL     1       2.881   4.333  18.621  0.00  0.00    +0.000 A 
ATOM      4  C   UNL     1       3.579   5.452  19.258  0.00  0.00    +0.000 A 
ATOM      5  O   UNL     1       3.220   5.896  20.340  0.00  0.00    +0.000 OA
ATOM      6  O   UNL     1       4.672   5.955  18.578  0.00  0.00    +0.000 OA
ATOM      7  C   UNL     1       5.184   5.360  17.401  0.00  0.00    +0.000 A 
ATOM      8  C   UNL     1       6.400   5.856  16.891  0.00  0.00    +0.000 A 
ATOM      9  C   UNL     1       6.821   5.352  15.650  0.00  0.00    +0.000 A 
ATOM     10  C   UNL     1       6.105   4.353  14.994  0.00  0.00    +0.000 A 
ATOM     11  C   UNL     1       4.940   3.834  15.564  0.00  0.00    +0.000 A 
ATOM     12  C   UNL     1       4.460   4.331  16.780  0.00  0.00    +0.000 A 
ENDROOT
BRANCH   8  13
ATOM     13  C   UNL     1       7.222   6.834  17.628  0.00  0.00    +0.000 A 
ATOM     14  N   UNL     1       7.319   8.099  17.176  0.00  0.00    +0.000 NA
ATOM     15  N   UNL     1       8.133   8.744  18.056  0.00  0.00    +0.000 N 
ATOM     16  C   UNL     1       8.542   7.905  19.057  0.00  0.00    +0.000 A 
ATOM     17  C   UNL     1       8.043   6.653  18.779  0.00  0.00    +0.000 A 
BRANCH  15  18
ATOM     18  C   UNL     1       8.518  10.096  17.851  0.00  0.00    +0.000 A 
ATOM     19  C   UNL     1       9.833  10.497  18.116  0.00  0.00    +0.000 A 
ATOM     20  C   UNL     1      10.205  11.835  17.971  0.00  0.00    +0.000 A 
ATOM     21  C   UNL     1       9.269  12.780  17.557  0.00  0.00    +0.000 A 
ATOM     22  C   UNL     1       7.962  12.390  17.278  0.00  0.00    +0.000 A 
ATOM     23  C   UNL     1       7.586  11.051  17.419  0.00  0.00    +0.000 A 
ENDBRANCH  15  18
BRANCH  17  24
ATOM     24  C   UNL     1       8.374   5.469  19.544  0.00  0.00    +0.000 C 
ATOM     25  O   UNL     1       7.851   5.195  20.620  0.00  0.00    +0.000 OA
ENDBRANCH  17  24
ENDBRANCH   8  13
BRANCH   9  26
ATOM     26  O   UNL     1       7.947   5.803  15.011  0.00  0.00    +0.000 OA
ATOM     27  H   UNL     1       8.024   5.287  14.177  0.00  0.00    +0.000 HD
ENDBRANCH   9  26
TORSDOF 4
ENDMDL
MODEL 9
REMARK VINA RESULT:      -7.1      4.915      7.978
REMARK  Name = 
REMARK  5 active torsions:
REMARK  status: ('A' for Active; 'I' for Inactive)
REMARK    1  A    between atoms: C_1  and  C_2
REMARK    2  A    between atoms: C_8  and  C_9
REMARK    3  A    between atoms: N_11  and  C_12
REMARK    4  A    between atoms: C_19  and  C_20
REMARK    5  A    between atoms: C_22  and  O_23
REMARK                            x       y       z     vdW  Elec       q    Type
REMARK                         _______ _______ _______ _____ _____    ______ ____
ROOT
ATOM      1  C   UNL     1      -2.892  13.188  20.237  0.00  0.00    +0.000 C 
ATOM      2  C   UNL     1      -2.197  11.990  19.662  0.00  0.00    +0.000 A 
ATOM      3  C   UNL     1      -2.447  11.590  18.408  0.00  0.00    +0.000 A 
ATOM      4  C   UNL     1      -1.805  10.427  17.791  0.00  0.00    +0.000 A 
ATOM      5  O   UNL     1      -2.039  10.107  16.634  0.00  0.00    +0.000 OA
ATOM      6  O   UNL     1      -0.910   9.734  18.584  0.00  0.00    +0.000 OA
ATOM      7  C   UNL     1      -0.522  10.176  19.871  0.00  0.00    +0.000 A 
ATOM      8  C   UNL     1       0.522   9.484  20.515  0.00  0.00    +0.000 A 
ATOM      9  C   UNL     1       0.799   9.845  21.843  0.00  0.00    +0.000 A 
ATOM     10  C   UNL     1       0.120  10.891  22.465  0.00  0.00    +0.000 A 
ATOM     11  C   UNL     1      -0.861  11.603  21.771  0.00  0.00    +0.000 A 
ATOM     12  C   UNL     1      -1.199  11.255  20.460  0.00  0.00    +0.000 A 
ENDROOT
BRANCH   8  13
ATOM     13  C   UNL     1       1.320   8.449  19.831  0.00  0.00    +0.000 A 
ATOM     14  N   UNL     1       1.464   7.235  20.398  0.00  0.00    +0.000 NA
ATOM     15  N   UNL     1       2.240   6.518  19.539  0.00  0.00    +0.000 N 
ATOM     16  C   UNL     1       2.578   7.260  18.441  0.00  0.00    +0.000 A 
ATOM     17  C   UNL     1       2.073   8.528  18.623  0.00  0.00    +0.000 A 
BRANCH  15  18
ATOM     18  C   UNL     1       2.660   5.197  19.852  0.00  0.00    +0.000 A 
ATOM     19  C   UNL     1       2.007   4.476  20.860  0.00  0.00    +0.000 A 
ATOM     20  C   UNL     1       2.450   3.199  21.212  0.00  0.00    +0.000 A 
ATOM     21  C   UNL     1       3.543   2.634  20.559  0.00  0.00    +0.000 A 
ATOM     22  C   UNL     1       4.191   3.337  19.547  0.00  0.00    +0.000 A 
ATOM     23  C   UNL     1       3.749   4.614  19.189  0.00  0.00    +0.000 A 
ENDBRANCH  15  18
BRANCH  17  24
ATOM     24  C   UNL     1       2.340   9.635  17.730  0.00  0.00    +0.000 C 
ATOM     25  O   UNL     1       2.313  10.808  18.087  0.00  0.00    +0.000 OA
ENDBRANCH  17  24
ENDBRANCH   8  13
BRANCH   9  26
ATOM     26  O   UNL     1       1.740   9.202  22.606  0.00  0.00    +0.000 OA
ATOM     27  H   UNL     1       1.267   8.829  23.383  0.00  0.00    +0.000 HD
ENDBRANCH   9  26
TORSDOF 4
ENDMDL
