MODEL 1
REMARK VINA RESULT:      -5.9      0.000      0.000
REMARK  Name = 
REMARK  13 active torsions:
REMARK  status: ('A' for Active; 'I' for Inactive)
REMARK    1  A    between atoms: C_1  and  N_2
REMARK    2  A    between atoms: N_2  and  C_3
REMARK    3  A    between atoms: N_2  and  C_4
REMARK    4  A    between atoms: C_4  and  C_5
REMARK    5  A    between atoms: C_5  and  O_6
REMARK    6  A    between atoms: O_6  and  C_7
REMARK    7  A    between atoms: C_10  and  C_11
REMARK    8  A    between atoms: C_11  and  C_23
REMARK    9  A    between atoms: C_12  and  C_13
REMARK   10  A    between atoms: C_12  and  C_17
REMARK   11  A    between atoms: C_13  and  C_14
REMARK   12  A    between atoms: C_14  and  C_15
REMARK   13  A    between atoms: C_26  and  O_27
REMARK                            x       y       z     vdW  Elec       q    Type
REMARK                         _______ _______ _______ _____ _____    ______ ____
ROOT
ATOM      1  C   UNL     1      -0.560  11.800  18.841  0.00  0.00    +0.000 C 
ATOM      2  C   UNL     1      -0.037  13.055  18.934  0.00  0.00    +0.000 C 
ENDROOT
BRANCH   1   6
ATOM      3  C   UNL     1       1.711   8.300  19.898  0.00  0.00    +0.000 A 
ATOM      4  C   UNL     1       1.785   8.862  18.618  0.00  0.00    +0.000 A 
ATOM      5  C   UNL     1       1.052  10.003  18.296  0.00  0.00    +0.000 A 
ATOM      6  C   UNL     1       0.229  10.610  19.247  0.00  0.00    +0.000 A 
ATOM      7  C   UNL     1       0.193  10.085  20.545  0.00  0.00    +0.000 A 
ATOM      8  C   UNL     1       0.930   8.934  20.866  0.00  0.00    +0.000 A 
BRANCH   3   9
ATOM      9  O   UNL     1       2.356   7.141  20.282  0.00  0.00    +0.000 OA
BRANCH   9  10
ATOM     10  C   UNL     1       2.449   6.158  19.241  0.00  0.00    +0.000 C 
BRANCH  10  11
ATOM     11  C   UNL     1       2.823   4.769  19.774  0.00  0.00    +0.000 C 
BRANCH  11  13
ATOM     12  C   UNL     1       0.853   3.370  19.686  0.00  0.00    +0.000 C 
ATOM     13  N   UNL     1       1.730   4.151  20.561  0.00  0.00    +0.000 NA
ATOM     14  C   UNL     1       2.223   3.303  21.650  0.00  0.00    +0.000 C 
ENDBRANCH  11  13
ENDBRANCH  10  11
ENDBRANCH   9  10
ENDBRANCH   3   9
ENDBRANCH   1   6
BRANCH   2  15
ATOM     15  C   UNL     1       1.383  13.318  19.277  0.00  0.00    +0.000 A 
ATOM     16  C   UNL     1       2.279  13.643  18.249  0.00  0.00    +0.000 A 
ATOM     17  C   UNL     1       3.575  14.066  18.546  0.00  0.00    +0.000 A 
ATOM     18  C   UNL     1       3.989  14.163  19.872  0.00  0.00    +0.000 A 
ATOM     19  C   UNL     1       3.115  13.810  20.901  0.00  0.00    +0.000 A 
ATOM     20  C   UNL     1       1.818  13.380  20.606  0.00  0.00    +0.000 A 
ENDBRANCH   2  15
BRANCH   1  21
ATOM     21  C   UNL     1      -1.957  11.645  18.366  0.00  0.00    +0.000 A 
ATOM     22  C   UNL     1      -2.199  11.252  17.042  0.00  0.00    +0.000 A 
ATOM     23  C   UNL     1      -3.504  11.201  16.546  0.00  0.00    +0.000 A 
ATOM     24  C   UNL     1      -4.564  11.532  17.383  0.00  0.00    +0.000 A 
ATOM     25  C   UNL     1      -4.345  11.875  18.713  0.00  0.00    +0.000 A 
ATOM     26  C   UNL     1      -3.041  11.931  19.208  0.00  0.00    +0.000 A 
BRANCH  24  27
ATOM     27  O   UNL     1      -5.849  11.546  16.927  0.00  0.00    +0.000 OA
ATOM     28  H   UNL     1      -6.285  10.724  17.206  0.00  0.00    +0.000 HD
ENDBRANCH  24  27
ENDBRANCH   1  21
BRANCH   2  29
ATOM     29  C   UNL     1      -0.770  14.351  18.578  0.00  0.00    +0.000 C 
BRANCH  29  30
ATOM     30  C   UNL     1      -0.769  15.399  19.698  0.00  0.00    +0.000 C 
BRANCH  30  31
ATOM     31  C   UNL     1      -1.818  15.098  20.684  0.00  0.00    +0.000 C 
ATOM     32  N   UNL     1      -2.648  14.852  21.460  0.00  0.00    +0.000 NA
ENDBRANCH  30  31
ENDBRANCH  29  30
ENDBRANCH   2  29
TORSDOF 11
ENDMDL
MODEL 2
REMARK VINA RESULT:      -5.9      4.644      9.058
REMARK  Name = 
REMARK  13 active torsions:
REMARK  status: ('A' for Active; 'I' for Inactive)
REMARK    1  A    between atoms: C_1  and  N_2
REMARK    2  A    between atoms: N_2  and  C_3
REMARK    3  A    between atoms: N_2  and  C_4
REMARK    4  A    between atoms: C_4  and  C_5
REMARK    5  A    between atoms: C_5  and  O_6
REMARK    6  A    between atoms: O_6  and  C_7
REMARK    7  A    between atoms: C_10  and  C_11
REMARK    8  A    between atoms: C_11  and  C_23
REMARK    9  A    between atoms: C_12  and  C_13
REMARK   10  A    between atoms: C_12  and  C_17
REMARK   11  A    between atoms: C_13  and  C_14
REMARK   12  A    between atoms: C_14  and  C_15
REMARK   13  A    between atoms: C_26  and  O_27
REMARK                            x       y       z     vdW  Elec       q    Type
REMARK                         _______ _______ _______ _____ _____    ______ ____
ROOT
ATOM      1  C   UNL     1       3.157   6.004  18.493  0.00  0.00    +0.000 C 
ATOM      2  C   UNL     1       2.665   4.903  19.128  0.00  0.00    +0.000 C 
ENDROOT
BRANCH   1   6
ATOM      3  C   UNL     1       6.504   5.592  15.820  0.00  0.00    +0.000 A 
ATOM      4  C   UNL     1       5.275   4.976  15.555  0.00  0.00    +0.000 A 
ATOM      5  C   UNL     1       4.198   5.130  16.425  0.00  0.00    +0.000 A 
ATOM      6  C   UNL     1       4.322   5.905  17.580  0.00  0.00    +0.000 A 
ATOM      7  C   UNL     1       5.532   6.569  17.823  0.00  0.00    +0.000 A 
ATOM      8  C   UNL     1       6.617   6.410  16.945  0.00  0.00    +0.000 A 
BRANCH   3   9
ATOM      9  O   UNL     1       7.636   5.445  15.044  0.00  0.00    +0.000 OA
BRANCH   9  10
ATOM     10  C   UNL     1       7.361   5.162  13.665  0.00  0.00    +0.000 C 
BRANCH  10  11
ATOM     11  C   UNL     1       6.724   3.780  13.462  0.00  0.00    +0.000 C 
BRANCH  11  13
ATOM     12  C   UNL     1       7.055   2.434  11.482  0.00  0.00    +0.000 C 
ATOM     13  N   UNL     1       6.303   3.549  12.061  0.00  0.00    +0.000 NA
ATOM     14  C   UNL     1       4.866   3.294  11.934  0.00  0.00    +0.000 C 
ENDBRANCH  11  13
ENDBRANCH  10  11
ENDBRANCH   9  10
ENDBRANCH   3   9
ENDBRANCH   1   6
BRANCH   2  15
ATOM     15  C   UNL     1       3.340   3.581  19.096  0.00  0.00    +0.000 A 
ATOM     16  C   UNL     1       4.271   3.271  20.098  0.00  0.00    +0.000 A 
ATOM     17  C   UNL     1       4.795   1.982  20.205  0.00  0.00    +0.000 A 
ATOM     18  C   UNL     1       4.397   0.993  19.309  0.00  0.00    +0.000 A 
ATOM     19  C   UNL     1       3.496   1.300  18.289  0.00  0.00    +0.000 A 
ATOM     20  C   UNL     1       2.974   2.592  18.176  0.00  0.00    +0.000 A 
ENDBRANCH   2  15
BRANCH   1  21
ATOM     21  C   UNL     1       2.473   7.305  18.695  0.00  0.00    +0.000 A 
ATOM     22  C   UNL     1       2.323   8.185  17.614  0.00  0.00    +0.000 A 
ATOM     23  C   UNL     1       1.778   9.456  17.805  0.00  0.00    +0.000 A 
ATOM     24  C   UNL     1       1.370   9.838  19.079  0.00  0.00    +0.000 A 
ATOM     25  C   UNL     1       1.465   8.959  20.153  0.00  0.00    +0.000 A 
ATOM     26  C   UNL     1       2.016   7.690  19.963  0.00  0.00    +0.000 A 
BRANCH  24  27
ATOM     27  O   UNL     1       0.879  11.086  19.322  0.00  0.00    +0.000 OA
ATOM     28  H   UNL     1       1.195  11.379  20.192  0.00  0.00    +0.000 HD
ENDBRANCH  24  27
ENDBRANCH   1  21
BRANCH   2  29
ATOM     29  C   UNL     1       1.452   4.883  20.060  0.00  0.00    +0.000 C 
BRANCH  29  30
ATOM     30  C   UNL     1       0.764   3.515  20.164  0.00  0.00    +0.000 C 
BRANCH  30  31
ATOM     31  C   UNL     1       1.201   2.812  21.379  0.00  0.00    +0.000 C 
ATOM     32  N   UNL     1       1.544   2.247  22.336  0.00  0.00    +0.000 NA
ENDBRANCH  30  31
ENDBRANCH  29  30
ENDBRANCH   2  29
TORSDOF 11
ENDMDL
MODEL 3
REMARK VINA RESULT:      -5.9      1.122      1.499
REMARK  Name = 
REMARK  13 active torsions:
REMARK  status: ('A' for Active; 'I' for Inactive)
REMARK    1  A    between atoms: C_1  and  N_2
REMARK    2  A    between atoms: N_2  and  C_3
REMARK    3  A    between atoms: N_2  and  C_4
REMARK    4  A    between atoms: C_4  and  C_5
REMARK    5  A    between atoms: C_5  and  O_6
REMARK    6  A    between atoms: O_6  and  C_7
REMARK    7  A    between atoms: C_10  and  C_11
REMARK    8  A    between atoms: C_11  and  C_23
REMARK    9  A    between atoms: C_12  and  C_13
REMARK   10  A    between atoms: C_12  and  C_17
REMARK   11  A    between atoms: C_13  and  C_14
REMARK   12  A    between atoms: C_14  and  C_15
REMARK   13  A    between atoms: C_26  and  O_27
REMARK                            x       y       z     vdW  Elec       q    Type
REMARK                         _______ _______ _______ _____ _____    ______ ____
ROOT
ATOM      1  C   UNL     1      -0.617  11.724  18.676  0.00  0.00    +0.000 C 
ATOM      2  C   UNL     1      -0.114  12.979  18.850  0.00  0.00    +0.000 C 
ENDROOT
BRANCH   1   6
ATOM      3  C   UNL     1       1.790   8.287  19.632  0.00  0.00    +0.000 A 
ATOM      4  C   UNL     1       0.952   8.882  20.583  0.00  0.00    +0.000 A 
ATOM      5  C   UNL     1       0.171   9.987  20.253  0.00  0.00    +0.000 A 
ATOM      6  C   UNL     1       0.206  10.523  18.964  0.00  0.00    +0.000 A 
ATOM      7  C   UNL     1       0.999   9.900  17.993  0.00  0.00    +0.000 A 
ATOM      8  C   UNL     1       1.789   8.787  18.329  0.00  0.00    +0.000 A 
BRANCH   3   9
ATOM      9  O   UNL     1       2.639   7.230  19.890  0.00  0.00    +0.000 OA
BRANCH   9  10
ATOM     10  C   UNL     1       2.850   6.368  18.762  0.00  0.00    +0.000 C 
BRANCH  10  11
ATOM     11  C   UNL     1       2.901   4.885  19.154  0.00  0.00    +0.000 C 
BRANCH  11  13
ATOM     12  C   UNL     1       1.728   2.966  18.269  0.00  0.00    +0.000 C 
ATOM     13  N   UNL     1       1.586   4.217  19.016  0.00  0.00    +0.000 NA
ATOM     14  C   UNL     1       0.946   3.951  20.307  0.00  0.00    +0.000 C 
ENDBRANCH  11  13
ENDBRANCH  10  11
ENDBRANCH   9  10
ENDBRANCH   3   9
ENDBRANCH   1   6
BRANCH   2  15
ATOM     15  C   UNL     1       1.312  13.243  19.168  0.00  0.00    +0.000 A 
ATOM     16  C   UNL     1       2.196  13.539  18.120  0.00  0.00    +0.000 A 
ATOM     17  C   UNL     1       3.497  13.963  18.389  0.00  0.00    +0.000 A 
ATOM     18  C   UNL     1       3.929  14.091  19.707  0.00  0.00    +0.000 A 
ATOM     19  C   UNL     1       3.067  13.768  20.756  0.00  0.00    +0.000 A 
ATOM     20  C   UNL     1       1.764  13.337  20.489  0.00  0.00    +0.000 A 
ENDBRANCH   2  15
BRANCH   1  21
ATOM     21  C   UNL     1      -2.026  11.578  18.235  0.00  0.00    +0.000 A 
ATOM     22  C   UNL     1      -2.302  11.213  16.909  0.00  0.00    +0.000 A 
ATOM     23  C   UNL     1      -3.619  11.171  16.447  0.00  0.00    +0.000 A 
ATOM     24  C   UNL     1      -4.658  11.484  17.318  0.00  0.00    +0.000 A 
ATOM     25  C   UNL     1      -4.404  11.798  18.649  0.00  0.00    +0.000 A 
ATOM     26  C   UNL     1      -3.087  11.845  19.110  0.00  0.00    +0.000 A 
BRANCH  24  27
ATOM     27  O   UNL     1      -5.954  11.505  16.895  0.00  0.00    +0.000 OA
ATOM     28  H   UNL     1      -5.963  11.612  15.930  0.00  0.00    +0.000 HD
ENDBRANCH  24  27
ENDBRANCH   1  21
BRANCH   2  29
ATOM     29  C   UNL     1      -0.881  14.283  18.618  0.00  0.00    +0.000 C 
BRANCH  29  30
ATOM     30  C   UNL     1      -0.338  15.479  19.411  0.00  0.00    +0.000 C 
BRANCH  30  31
ATOM     31  C   UNL     1      -0.325  16.688  18.574  0.00  0.00    +0.000 C 
ATOM     32  N   UNL     1      -0.323  17.643  17.910  0.00  0.00    +0.000 NA
ENDBRANCH  30  31
ENDBRANCH  29  30
ENDBRANCH   2  29
TORSDOF 11
ENDMDL
MODEL 4
REMARK VINA RESULT:      -5.9      0.864      1.255
REMARK  Name = 
REMARK  13 active torsions:
REMARK  status: ('A' for Active; 'I' for Inactive)
REMARK    1  A    between atoms: C_1  and  N_2
REMARK    2  A    between atoms: N_2  and  C_3
REMARK    3  A    between atoms: N_2  and  C_4
REMARK    4  A    between atoms: C_4  and  C_5
REMARK    5  A    between atoms: C_5  and  O_6
REMARK    6  A    between atoms: O_6  and  C_7
REMARK    7  A    between atoms: C_10  and  C_11
REMARK    8  A    between atoms: C_11  and  C_23
REMARK    9  A    between atoms: C_12  and  C_13
REMARK   10  A    between atoms: C_12  and  C_17
REMARK   11  A    between atoms: C_13  and  C_14
REMARK   12  A    between atoms: C_14  and  C_15
REMARK   13  A    between atoms: C_26  and  O_27
REMARK                            x       y       z     vdW  Elec       q    Type
REMARK                         _______ _______ _______ _____ _____    ______ ____
ROOT
ATOM      1  C   UNL     1      -0.490  11.935  18.820  0.00  0.00    +0.000 C 
ATOM      2  C   UNL     1       0.031  13.180  19.007  0.00  0.00    +0.000 C 
ENDROOT
BRANCH   1   6
ATOM      3  C   UNL     1       1.825   8.369  19.490  0.00  0.00    +0.000 A 
ATOM      4  C   UNL     1       1.870   9.053  18.269  0.00  0.00    +0.000 A 
ATOM      5  C   UNL     1       1.123  10.213  18.073  0.00  0.00    +0.000 A 
ATOM      6  C   UNL     1       0.314  10.719  19.093  0.00  0.00    +0.000 A 
ATOM      7  C   UNL     1       0.308  10.071  20.335  0.00  0.00    +0.000 A 
ATOM      8  C   UNL     1       1.059   8.900  20.529  0.00  0.00    +0.000 A 
BRANCH   3   9
ATOM      9  O   UNL     1       2.485   7.185  19.747  0.00  0.00    +0.000 OA
BRANCH   9  10
ATOM     10  C   UNL     1       1.700   6.230  20.475  0.00  0.00    +0.000 C 
BRANCH  10  11
ATOM     11  C   UNL     1       2.457   4.922  20.739  0.00  0.00    +0.000 C 
BRANCH  11  13
ATOM     12  C   UNL     1       0.853   3.351  19.842  0.00  0.00    +0.000 C 
ATOM     13  N   UNL     1       1.549   3.794  21.052  0.00  0.00    +0.000 NA
ATOM     14  C   UNL     1       2.244   2.659  21.665  0.00  0.00    +0.000 C 
ENDBRANCH  11  13
ENDBRANCH  10  11
ENDBRANCH   9  10
ENDBRANCH   3   9
ENDBRANCH   1   6
BRANCH   2  15
ATOM     15  C   UNL     1       1.461  13.420  19.327  0.00  0.00    +0.000 A 
ATOM     16  C   UNL     1       2.339  13.762  18.288  0.00  0.00    +0.000 A 
ATOM     17  C   UNL     1       3.645  14.164  18.569  0.00  0.00    +0.000 A 
ATOM     18  C   UNL     1       4.087  14.224  19.888  0.00  0.00    +0.000 A 
ATOM     19  C   UNL     1       3.231  13.854  20.926  0.00  0.00    +0.000 A 
ATOM     20  C   UNL     1       1.923  13.445  20.647  0.00  0.00    +0.000 A 
ENDBRANCH   2  15
BRANCH   1  21
ATOM     21  C   UNL     1      -1.902  11.815  18.377  0.00  0.00    +0.000 A 
ATOM     22  C   UNL     1      -2.937  12.089  19.282  0.00  0.00    +0.000 A 
ATOM     23  C   UNL     1      -4.269  11.881  18.918  0.00  0.00    +0.000 A 
ATOM     24  C   UNL     1      -4.561  11.411  17.641  0.00  0.00    +0.000 A 
ATOM     25  C   UNL     1      -3.549  11.183  16.715  0.00  0.00    +0.000 A 
ATOM     26  C   UNL     1      -2.217  11.386  17.081  0.00  0.00    +0.000 A 
BRANCH  24  27
ATOM     27  O   UNL     1      -5.843  11.147  17.260  0.00  0.00    +0.000 OA
ATOM     28  H   UNL     1      -6.321  11.988  17.176  0.00  0.00    +0.000 HD
ENDBRANCH  24  27
ENDBRANCH   1  21
BRANCH   2  29
ATOM     29  C   UNL     1      -0.717  14.498  18.790  0.00  0.00    +0.000 C 
BRANCH  29  30
ATOM     30  C   UNL     1      -1.048  15.251  20.086  0.00  0.00    +0.000 C 
BRANCH  30  31
ATOM     31  C   UNL     1      -0.918  16.701  19.884  0.00  0.00    +0.000 C 
ATOM     32  N   UNL     1      -0.810  17.847  19.717  0.00  0.00    +0.000 NA
ENDBRANCH  30  31
ENDBRANCH  29  30
ENDBRANCH   2  29
TORSDOF 11
ENDMDL
MODEL 5
REMARK VINA RESULT:      -5.9      1.082      1.286
REMARK  Name = 
REMARK  13 active torsions:
REMARK  status: ('A' for Active; 'I' for Inactive)
REMARK    1  A    between atoms: C_1  and  N_2
REMARK    2  A    between atoms: N_2  and  C_3
REMARK    3  A    between atoms: N_2  and  C_4
REMARK    4  A    between atoms: C_4  and  C_5
REMARK    5  A    between atoms: C_5  and  O_6
REMARK    6  A    between atoms: O_6  and  C_7
REMARK    7  A    between atoms: C_10  and  C_11
REMARK    8  A    between atoms: C_11  and  C_23
REMARK    9  A    between atoms: C_12  and  C_13
REMARK   10  A    between atoms: C_12  and  C_17
REMARK   11  A    between atoms: C_13  and  C_14
REMARK   12  A    between atoms: C_14  and  C_15
REMARK   13  A    between atoms: C_26  and  O_27
REMARK                            x       y       z     vdW  Elec       q    Type
REMARK                         _______ _______ _______ _____ _____    ______ ____
ROOT
ATOM      1  C   UNL     1      -0.531  11.772  18.785  0.00  0.00    +0.000 C 
ATOM      2  C   UNL     1      -0.039  13.028  18.979  0.00  0.00    +0.000 C 
ENDROOT
BRANCH   1   6
ATOM      3  C   UNL     1       1.867   8.257  19.430  0.00  0.00    +0.000 A 
ATOM      4  C   UNL     1       1.867   8.928  18.201  0.00  0.00    +0.000 A 
ATOM      5  C   UNL     1       1.094  10.072  18.014  0.00  0.00    +0.000 A 
ATOM      6  C   UNL     1       0.303  10.574  19.050  0.00  0.00    +0.000 A 
ATOM      7  C   UNL     1       0.342   9.939  20.298  0.00  0.00    +0.000 A 
ATOM      8  C   UNL     1       1.120   8.785  20.484  0.00  0.00    +0.000 A 
BRANCH   3   9
ATOM      9  O   UNL     1       2.556   7.088  19.682  0.00  0.00    +0.000 OA
BRANCH   9  10
ATOM     10  C   UNL     1       3.020   6.422  18.499  0.00  0.00    +0.000 C 
BRANCH  10  11
ATOM     11  C   UNL     1       2.251   5.126  18.211  0.00  0.00    +0.000 C 
BRANCH  11  13
ATOM     12  C   UNL     1       3.018   3.564  19.889  0.00  0.00    +0.000 C 
ATOM     13  N   UNL     1       3.064   3.914  18.469  0.00  0.00    +0.000 NA
ATOM     14  C   UNL     1       2.643   2.766  17.662  0.00  0.00    +0.000 C 
ENDBRANCH  11  13
ENDBRANCH  10  11
ENDBRANCH   9  10
ENDBRANCH   3   9
ENDBRANCH   1   6
BRANCH   2  15
ATOM     15  C   UNL     1       1.386  13.300  19.296  0.00  0.00    +0.000 A 
ATOM     16  C   UNL     1       2.257  13.649  18.254  0.00  0.00    +0.000 A 
ATOM     17  C   UNL     1       3.555  14.081  18.530  0.00  0.00    +0.000 A 
ATOM     18  C   UNL     1       3.995  14.162  19.849  0.00  0.00    +0.000 A 
ATOM     19  C   UNL     1       3.146  13.786  20.890  0.00  0.00    +0.000 A 
ATOM     20  C   UNL     1       1.848  13.347  20.616  0.00  0.00    +0.000 A 
ENDBRANCH   2  15
BRANCH   1  21
ATOM     21  C   UNL     1      -1.940  11.621  18.346  0.00  0.00    +0.000 A 
ATOM     22  C   UNL     1      -2.217  11.232  17.027  0.00  0.00    +0.000 A 
ATOM     23  C   UNL     1      -3.534  11.185  16.565  0.00  0.00    +0.000 A 
ATOM     24  C   UNL     1      -4.572  11.515  17.430  0.00  0.00    +0.000 A 
ATOM     25  C   UNL     1      -4.318  11.853  18.755  0.00  0.00    +0.000 A 
ATOM     26  C   UNL     1      -3.001  11.905  19.216  0.00  0.00    +0.000 A 
BRANCH  24  27
ATOM     27  O   UNL     1      -5.868  11.531  17.007  0.00  0.00    +0.000 OA
ATOM     28  H   UNL     1      -5.898  11.213  16.090  0.00  0.00    +0.000 HD
ENDBRANCH  24  27
ENDBRANCH   1  21
BRANCH   2  29
ATOM     29  C   UNL     1      -0.818  14.329  18.771  0.00  0.00    +0.000 C 
BRANCH  29  30
ATOM     30  C   UNL     1      -1.127  15.088  20.068  0.00  0.00    +0.000 C 
BRANCH  30  31
ATOM     31  C   UNL     1      -0.859  16.524  19.899  0.00  0.00    +0.000 C 
ATOM     32  N   UNL     1      -0.639  17.658  19.765  0.00  0.00    +0.000 NA
ENDBRANCH  30  31
ENDBRANCH  29  30
ENDBRANCH   2  29
TORSDOF 11
ENDMDL
MODEL 6
REMARK VINA RESULT:      -5.8      1.005      1.350
REMARK  Name = 
REMARK  13 active torsions:
REMARK  status: ('A' for Active; 'I' for Inactive)
REMARK    1  A    between atoms: C_1  and  N_2
REMARK    2  A    between atoms: N_2  and  C_3
REMARK    3  A    between atoms: N_2  and  C_4
REMARK    4  A    between atoms: C_4  and  C_5
REMARK    5  A    between atoms: C_5  and  O_6
REMARK    6  A    between atoms: O_6  and  C_7
REMARK    7  A    between atoms: C_10  and  C_11
REMARK    8  A    between atoms: C_11  and  C_23
REMARK    9  A    between atoms: C_12  and  C_13
REMARK   10  A    between atoms: C_12  and  C_17
REMARK   11  A    between atoms: C_13  and  C_14
REMARK   12  A    between atoms: C_14  and  C_15
REMARK   13  A    between atoms: C_26  and  O_27
REMARK                            x       y       z     vdW  Elec       q    Type
REMARK                         _______ _______ _______ _____ _____    ______ ____
ROOT
ATOM      1  C   UNL     1      -0.517  11.943  18.821  0.00  0.00    +0.000 C 
ATOM      2  C   UNL     1       0.017  13.187  18.979  0.00  0.00    +0.000 C 
ENDROOT
BRANCH   1   6
ATOM      3  C   UNL     1       1.763   8.371  19.574  0.00  0.00    +0.000 A 
ATOM      4  C   UNL     1       1.828   9.036  18.344  0.00  0.00    +0.000 A 
ATOM      5  C   UNL     1       1.093  10.198  18.121  0.00  0.00    +0.000 A 
ATOM      6  C   UNL     1       0.275  10.725  19.123  0.00  0.00    +0.000 A 
ATOM      7  C   UNL     1       0.248  10.097  20.375  0.00  0.00    +0.000 A 
ATOM      8  C   UNL     1       0.989   8.924  20.596  0.00  0.00    +0.000 A 
BRANCH   3   9
ATOM      9  O   UNL     1       2.411   7.187  19.859  0.00  0.00    +0.000 OA
BRANCH   9  10
ATOM     10  C   UNL     1       2.982   6.548  18.708  0.00  0.00    +0.000 C 
BRANCH  10  11
ATOM     11  C   UNL     1       2.232   5.269  18.311  0.00  0.00    +0.000 C 
BRANCH  11  13
ATOM     12  C   UNL     1       2.927   3.104  17.491  0.00  0.00    +0.000 C 
ATOM     13  N   UNL     1       3.005   4.042  18.612  0.00  0.00    +0.000 NA
ATOM     14  C   UNL     1       4.409   4.317  18.929  0.00  0.00    +0.000 C 
ENDBRANCH  11  13
ENDBRANCH  10  11
ENDBRANCH   9  10
ENDBRANCH   3   9
ENDBRANCH   1   6
BRANCH   2  15
ATOM     15  C   UNL     1       1.450  13.419  19.292  0.00  0.00    +0.000 A 
ATOM     16  C   UNL     1       2.324  13.764  18.251  0.00  0.00    +0.000 A 
ATOM     17  C   UNL     1       3.633  14.160  18.528  0.00  0.00    +0.000 A 
ATOM     18  C   UNL     1       4.081  14.210  19.845  0.00  0.00    +0.000 A 
ATOM     19  C   UNL     1       3.229  13.837  20.885  0.00  0.00    +0.000 A 
ATOM     20  C   UNL     1       1.919  13.434  20.611  0.00  0.00    +0.000 A 
ENDBRANCH   2  15
BRANCH   1  21
ATOM     21  C   UNL     1      -1.930  11.827  18.381  0.00  0.00    +0.000 A 
ATOM     22  C   UNL     1      -2.963  12.089  19.293  0.00  0.00    +0.000 A 
ATOM     23  C   UNL     1      -4.295  11.884  18.930  0.00  0.00    +0.000 A 
ATOM     24  C   UNL     1      -4.591  11.430  17.649  0.00  0.00    +0.000 A 
ATOM     25  C   UNL     1      -3.581  11.213  16.717  0.00  0.00    +0.000 A 
ATOM     26  C   UNL     1      -2.249  11.413  17.081  0.00  0.00    +0.000 A 
BRANCH  24  27
ATOM     27  O   UNL     1      -5.874  11.169  17.268  0.00  0.00    +0.000 OA
ATOM     28  H   UNL     1      -5.895  11.064  16.303  0.00  0.00    +0.000 HD
ENDBRANCH  24  27
ENDBRANCH   1  21
BRANCH   2  29
ATOM     29  C   UNL     1      -0.717  14.506  18.730  0.00  0.00    +0.000 C 
BRANCH  29  30
ATOM     30  C   UNL     1      -0.678  15.478  19.918  0.00  0.00    +0.000 C 
BRANCH  30  31
ATOM     31  C   UNL     1      -1.590  15.027  20.980  0.00  0.00    +0.000 C 
ATOM     32  N   UNL     1      -2.307  14.663  21.819  0.00  0.00    +0.000 NA
ENDBRANCH  30  31
ENDBRANCH  29  30
ENDBRANCH   2  29
TORSDOF 11
ENDMDL
MODEL 7
REMARK VINA RESULT:      -5.8      4.647      9.071
REMARK  Name = 
REMARK  13 active torsions:
REMARK  status: ('A' for Active; 'I' for Inactive)
REMARK    1  A    between atoms: C_1  and  N_2
REMARK    2  A    between atoms: N_2  and  C_3
REMARK    3  A    between atoms: N_2  and  C_4
REMARK    4  A    between atoms: C_4  and  C_5
REMARK    5  A    between atoms: C_5  and  O_6
REMARK    6  A    between atoms: O_6  and  C_7
REMARK    7  A    between atoms: C_10  and  C_11
REMARK    8  A    between atoms: C_11  and  C_23
REMARK    9  A    between atoms: C_12  and  C_13
REMARK   10  A    between atoms: C_12  and  C_17
REMARK   11  A    between atoms: C_13  and  C_14
REMARK   12  A    between atoms: C_14  and  C_15
REMARK   13  A    between atoms: C_26  and  O_27
REMARK                            x       y       z     vdW  Elec       q    Type
REMARK                         _______ _______ _______ _____ _____    ______ ____
ROOT
ATOM      1  C   UNL     1       3.172   5.939  18.580  0.00  0.00    +0.000 C 
ATOM      2  C   UNL     1       2.599   4.883  19.224  0.00  0.00    +0.000 C 
ENDROOT
BRANCH   1   6
ATOM      3  C   UNL     1       6.610   5.476  16.033  0.00  0.00    +0.000 A 
ATOM      4  C   UNL     1       6.742   5.768  17.396  0.00  0.00    +0.000 A 
ATOM      5  C   UNL     1       5.619   5.902  18.208  0.00  0.00    +0.000 A 
ATOM      6  C   UNL     1       4.335   5.747  17.680  0.00  0.00    +0.000 A 
ATOM      7  C   UNL     1       4.198   5.400  16.329  0.00  0.00    +0.000 A 
ATOM      8  C   UNL     1       5.332   5.267  15.511  0.00  0.00    +0.000 A 
BRANCH   3   9
ATOM      9  O   UNL     1       7.664   5.383  15.147  0.00  0.00    +0.000 OA
BRANCH   9  10
ATOM     10  C   UNL     1       7.260   5.190  13.783  0.00  0.00    +0.000 C 
BRANCH  10  11
ATOM     11  C   UNL     1       6.703   3.783  13.527  0.00  0.00    +0.000 C 
BRANCH  11  13
ATOM     12  C   UNL     1       7.080   2.488  11.521  0.00  0.00    +0.000 C 
ATOM     13  N   UNL     1       6.305   3.580  12.115  0.00  0.00    +0.000 NA
ATOM     14  C   UNL     1       4.873   3.309  11.961  0.00  0.00    +0.000 C 
ENDBRANCH  11  13
ENDBRANCH  10  11
ENDBRANCH   9  10
ENDBRANCH   3   9
ENDBRANCH   1   6
BRANCH   2  15
ATOM     15  C   UNL     1       3.179   3.517  19.213  0.00  0.00    +0.000 A 
ATOM     16  C   UNL     1       2.850   2.648  18.162  0.00  0.00    +0.000 A 
ATOM     17  C   UNL     1       3.506   1.425  18.022  0.00  0.00    +0.000 A 
ATOM     18  C   UNL     1       4.492   1.056  18.932  0.00  0.00    +0.000 A 
ATOM     19  C   UNL     1       4.804   1.899  20.000  0.00  0.00    +0.000 A 
ATOM     20  C   UNL     1       4.144   3.122  20.147  0.00  0.00    +0.000 A 
ENDBRANCH   2  15
BRANCH   1  21
ATOM     21  C   UNL     1       2.581   7.288  18.761  0.00  0.00    +0.000 A 
ATOM     22  C   UNL     1       2.024   7.640  19.999  0.00  0.00    +0.000 A 
ATOM     23  C   UNL     1       1.371   8.864  20.159  0.00  0.00    +0.000 A 
ATOM     24  C   UNL     1       1.288   9.738  19.080  0.00  0.00    +0.000 A 
ATOM     25  C   UNL     1       1.879   9.426  17.860  0.00  0.00    +0.000 A 
ATOM     26  C   UNL     1       2.528   8.200  17.699  0.00  0.00    +0.000 A 
BRANCH  24  27
ATOM     27  O   UNL     1       0.616  10.921  19.177  0.00  0.00    +0.000 OA
ATOM     28  H   UNL     1       0.473  11.119  20.116  0.00  0.00    +0.000 HD
ENDBRANCH  24  27
ENDBRANCH   1  21
BRANCH   2  29
ATOM     29  C   UNL     1       1.379   4.961  20.145  0.00  0.00    +0.000 C 
BRANCH  29  30
ATOM     30  C   UNL     1       0.610   3.640  20.278  0.00  0.00    +0.000 C 
BRANCH  30  31
ATOM     31  C   UNL     1       1.094   2.879  21.440  0.00  0.00    +0.000 C 
ATOM     32  N   UNL     1       1.477   2.270  22.353  0.00  0.00    +0.000 NA
ENDBRANCH  30  31
ENDBRANCH  29  30
ENDBRANCH   2  29
TORSDOF 11
ENDMDL
MODEL 8
REMARK VINA RESULT:      -5.8      0.677      1.252
REMARK  Name = 
REMARK  13 active torsions:
REMARK  status: ('A' for Active; 'I' for Inactive)
REMARK    1  A    between atoms: C_1  and  N_2
REMARK    2  A    between atoms: N_2  and  C_3
REMARK    3  A    between atoms: N_2  and  C_4
REMARK    4  A    between atoms: C_4  and  C_5
REMARK    5  A    between atoms: C_5  and  O_6
REMARK    6  A    between atoms: O_6  and  C_7
REMARK    7  A    between atoms: C_10  and  C_11
REMARK    8  A    between atoms: C_11  and  C_23
REMARK    9  A    between atoms: C_12  and  C_13
REMARK   10  A    between atoms: C_12  and  C_17
REMARK   11  A    between atoms: C_13  and  C_14
REMARK   12  A    between atoms: C_14  and  C_15
REMARK   13  A    between atoms: C_26  and  O_27
REMARK                            x       y       z     vdW  Elec       q    Type
REMARK                         _______ _______ _______ _____ _____    ______ ____
ROOT
ATOM      1  C   UNL     1      -0.615  11.758  18.725  0.00  0.00    +0.000 C 
ATOM      2  C   UNL     1      -0.110  13.009  18.920  0.00  0.00    +0.000 C 
ENDROOT
BRANCH   1   6
ATOM      3  C   UNL     1       1.786   8.298  19.612  0.00  0.00    +0.000 A 
ATOM      4  C   UNL     1       0.912   8.846  20.559  0.00  0.00    +0.000 A 
ATOM      5  C   UNL     1       0.133   9.959  20.251  0.00  0.00    +0.000 A 
ATOM      6  C   UNL     1       0.207  10.551  18.988  0.00  0.00    +0.000 A 
ATOM      7  C   UNL     1       1.038   9.975  18.019  0.00  0.00    +0.000 A 
ATOM      8  C   UNL     1       1.824   8.854  18.333  0.00  0.00    +0.000 A 
BRANCH   3   9
ATOM      9  O   UNL     1       2.633   7.236  19.853  0.00  0.00    +0.000 OA
BRANCH   9  10
ATOM     10  C   UNL     1       3.016   6.521  18.669  0.00  0.00    +0.000 C 
BRANCH  10  11
ATOM     11  C   UNL     1       2.312   5.163  18.546  0.00  0.00    +0.000 C 
BRANCH  11  13
ATOM     12  C   UNL     1       4.550   4.424  19.081  0.00  0.00    +0.000 C 
ATOM     13  N   UNL     1       3.135   4.047  19.067  0.00  0.00    +0.000 NA
ATOM     14  C   UNL     1       2.725   3.616  20.406  0.00  0.00    +0.000 C 
ENDBRANCH  11  13
ENDBRANCH  10  11
ENDBRANCH   9  10
ENDBRANCH   3   9
ENDBRANCH   1   6
BRANCH   2  15
ATOM     15  C   UNL     1       1.318  13.265  19.237  0.00  0.00    +0.000 A 
ATOM     16  C   UNL     1       2.191  13.615  18.197  0.00  0.00    +0.000 A 
ATOM     17  C   UNL     1       3.493  14.033  18.475  0.00  0.00    +0.000 A 
ATOM     18  C   UNL     1       3.935  14.101  19.793  0.00  0.00    +0.000 A 
ATOM     19  C   UNL     1       3.084  13.723  20.833  0.00  0.00    +0.000 A 
ATOM     20  C   UNL     1       1.781  13.298  20.557  0.00  0.00    +0.000 A 
ENDBRANCH   2  15
BRANCH   1  21
ATOM     21  C   UNL     1      -2.026  11.622  18.285  0.00  0.00    +0.000 A 
ATOM     22  C   UNL     1      -2.307  11.263  16.959  0.00  0.00    +0.000 A 
ATOM     23  C   UNL     1      -3.624  11.231  16.499  0.00  0.00    +0.000 A 
ATOM     24  C   UNL     1      -4.660  11.546  17.373  0.00  0.00    +0.000 A 
ATOM     25  C   UNL     1      -4.402  11.855  18.705  0.00  0.00    +0.000 A 
ATOM     26  C   UNL     1      -3.084  11.892  19.164  0.00  0.00    +0.000 A 
BRANCH  24  27
ATOM     27  O   UNL     1      -5.957  11.577  16.954  0.00  0.00    +0.000 OA
ATOM     28  H   UNL     1      -6.514  11.871  17.693  0.00  0.00    +0.000 HD
ENDBRANCH  24  27
ENDBRANCH   1  21
BRANCH   2  29
ATOM     29  C   UNL     1      -0.875  14.318  18.713  0.00  0.00    +0.000 C 
BRANCH  29  30
ATOM     30  C   UNL     1      -0.845  15.259  19.925  0.00  0.00    +0.000 C 
BRANCH  30  31
ATOM     31  C   UNL     1      -1.800  14.809  20.949  0.00  0.00    +0.000 C 
ATOM     32  N   UNL     1      -2.551  14.458  21.765  0.00  0.00    +0.000 NA
ENDBRANCH  30  31
ENDBRANCH  29  30
ENDBRANCH   2  29
TORSDOF 11
ENDMDL
MODEL 9
REMARK VINA RESULT:      -5.8      2.847      3.676
REMARK  Name = 
REMARK  13 active torsions:
REMARK  status: ('A' for Active; 'I' for Inactive)
REMARK    1  A    between atoms: C_1  and  N_2
REMARK    2  A    between atoms: N_2  and  C_3
REMARK    3  A    between atoms: N_2  and  C_4
REMARK    4  A    between atoms: C_4  and  C_5
REMARK    5  A    between atoms: C_5  and  O_6
REMARK    6  A    between atoms: O_6  and  C_7
REMARK    7  A    between atoms: C_10  and  C_11
REMARK    8  A    between atoms: C_11  and  C_23
REMARK    9  A    between atoms: C_12  and  C_13
REMARK   10  A    between atoms: C_12  and  C_17
REMARK   11  A    between atoms: C_13  and  C_14
REMARK   12  A    between atoms: C_14  and  C_15
REMARK   13  A    between atoms: C_26  and  O_27
REMARK                            x       y       z     vdW  Elec       q    Type
REMARK                         _______ _______ _______ _____ _____    ______ ____
ROOT
ATOM      1  C   UNL     1      -1.758  12.653  21.906  0.00  0.00    +0.000 C 
ATOM      2  C   UNL     1      -1.209  13.841  21.524  0.00  0.00    +0.000 C 
ENDROOT
BRANCH   1   6
ATOM      3  C   UNL     1       0.433   8.976  21.456  0.00  0.00    +0.000 A 
ATOM      4  C   UNL     1       0.100   9.480  22.719  0.00  0.00    +0.000 A 
ATOM      5  C   UNL     1      -0.620  10.666  22.846  0.00  0.00    +0.000 A 
ATOM      6  C   UNL     1      -1.027  11.376  21.714  0.00  0.00    +0.000 A 
ATOM      7  C   UNL     1      -0.746  10.848  20.447  0.00  0.00    +0.000 A 
ATOM      8  C   UNL     1      -0.017   9.654  20.322  0.00  0.00    +0.000 A 
BRANCH   3   9
ATOM      9  O   UNL     1       1.191   7.843  21.241  0.00  0.00    +0.000 OA
BRANCH   9  10
ATOM     10  C   UNL     1       1.780   7.779  19.934  0.00  0.00    +0.000 C 
BRANCH  10  11
ATOM     11  C   UNL     1       2.659   6.536  19.744  0.00  0.00    +0.000 C 
BRANCH  11  13
ATOM     12  C   UNL     1       2.130   4.464  18.615  0.00  0.00    +0.000 C 
ATOM     13  N   UNL     1       1.882   5.276  19.808  0.00  0.00    +0.000 NA
ATOM     14  C   UNL     1       2.173   4.490  21.010  0.00  0.00    +0.000 C 
ENDBRANCH  11  13
ENDBRANCH  10  11
ENDBRANCH   9  10
ENDBRANCH   3   9
ENDBRANCH   1   6
BRANCH   2  15
ATOM     15  C   UNL     1       0.054  13.938  20.750  0.00  0.00    +0.000 A 
ATOM     16  C   UNL     1      -0.011  14.251  19.384  0.00  0.00    +0.000 A 
ATOM     17  C   UNL     1       1.152  14.523  18.664  0.00  0.00    +0.000 A 
ATOM     18  C   UNL     1       2.391  14.480  19.300  0.00  0.00    +0.000 A 
ATOM     19  C   UNL     1       2.468  14.137  20.650  0.00  0.00    +0.000 A 
ATOM     20  C   UNL     1       1.304  13.858  21.373  0.00  0.00    +0.000 A 
ENDBRANCH   2  15
BRANCH   1  21
ATOM     21  C   UNL     1      -3.088  12.663  22.564  0.00  0.00    +0.000 A 
ATOM     22  C   UNL     1      -4.245  12.800  21.784  0.00  0.00    +0.000 A 
ATOM     23  C   UNL     1      -5.497  12.917  22.390  0.00  0.00    +0.000 A 
ATOM     24  C   UNL     1      -5.589  12.881  23.778  0.00  0.00    +0.000 A 
ATOM     25  C   UNL     1      -4.456  12.695  24.564  0.00  0.00    +0.000 A 
ATOM     26  C   UNL     1      -3.204  12.583  23.958  0.00  0.00    +0.000 A 
BRANCH  24  27
ATOM     27  O   UNL     1      -6.784  13.041  24.414  0.00  0.00    +0.000 OA
ATOM     28  H   UNL     1      -6.638  12.965  25.371  0.00  0.00    +0.000 HD
ENDBRANCH  24  27
ENDBRANCH   1  21
BRANCH   2  29
ATOM     29  C   UNL     1      -1.856  15.216  21.705  0.00  0.00    +0.000 C 
BRANCH  29  30
ATOM     30  C   UNL     1      -1.042  16.181  22.577  0.00  0.00    +0.000 C 
BRANCH  30  31
ATOM     31  C   UNL     1      -0.913  15.654  23.944  0.00  0.00    +0.000 C 
ATOM     32  N   UNL     1      -0.818  15.242  25.027  0.00  0.00    +0.000 NA
ENDBRANCH  30  31
ENDBRANCH  29  30
ENDBRANCH   2  29
TORSDOF 11
ENDMDL
