MODEL 1
REMARK VINA RESULT:      -6.0      0.000      0.000
REMARK  Name = 
REMARK  6 active torsions:
REMARK  status: ('A' for Active; 'I' for Inactive)
REMARK    1  A    between atoms: C_1  and  C_2
REMARK    2  A    between atoms: C_2  and  N_3
REMARK    3  A    between atoms: N_3  and  C_4
REMARK    4  A    between atoms: C_4  and  C_5
REMARK    5  A    between atoms: C_8  and  S_9
REMARK    6  A    between atoms: S_9  and  C_10
REMARK                            x       y       z     vdW  Elec       q    Type
REMARK                         _______ _______ _______ _____ _____    ______ ____
ROOT
ATOM      1  N   UNL     1       3.510   4.305  18.278  0.00  0.00    +0.000 N 
ATOM      2  C   UNL     1       4.746   4.432  17.595  0.00  0.00    +0.000 A 
ATOM      3  N   UNL     1       4.850   4.152  16.315  0.00  0.00    +0.000 NA
ATOM      4  C   UNL     1       6.066   4.314  15.676  0.00  0.00    +0.000 A 
ATOM      5  N   UNL     1       7.167   4.724  16.235  0.00  0.00    +0.000 NA
ATOM      6  C   UNL     1       7.110   5.007  17.551  0.00  0.00    +0.000 A 
ATOM      7  C   UNL     1       8.041   5.447  18.464  0.00  0.00    +0.000 A 
ATOM      8  C   UNL     1       7.347   5.515  19.683  0.00  0.00    +0.000 A 
ATOM      9  N   UNL     1       6.068   5.153  19.567  0.00  0.00    +0.000 NA
ATOM     10  N   UNL     1       5.934   4.864  18.248  0.00  0.00    +0.000 N 
ENDROOT
BRANCH   1  12
ATOM     11  C   UNL     1       2.354   2.138  18.019  0.00  0.00    +0.000 C 
ATOM     12  C   UNL     1       2.400   3.607  17.620  0.00  0.00    +0.000 C 
ENDBRANCH   1  12
BRANCH   1  13
ATOM     13  C   UNL     1       3.369   4.721  19.687  0.00  0.00    +0.000 C 
ATOM     14  C   UNL     1       2.049   5.337  20.121  0.00  0.00    +0.000 C 
ENDBRANCH   1  13
BRANCH   4  15
ATOM     15  S   UNL     1       6.210   3.966  13.957  0.00  0.00    +0.000 S 
ATOM     16  C   UNL     1       7.553   5.045  13.458  0.00  0.00    +0.000 C 
ENDBRANCH   4  15
TORSDOF 3
ENDMDL
MODEL 2
REMARK VINA RESULT:      -5.7      2.161      3.034
REMARK  Name = 
REMARK  6 active torsions:
REMARK  status: ('A' for Active; 'I' for Inactive)
REMARK    1  A    between atoms: C_1  and  C_2
REMARK    2  A    between atoms: C_2  and  N_3
REMARK    3  A    between atoms: N_3  and  C_4
REMARK    4  A    between atoms: C_4  and  C_5
REMARK    5  A    between atoms: C_8  and  S_9
REMARK    6  A    between atoms: S_9  and  C_10
REMARK                            x       y       z     vdW  Elec       q    Type
REMARK                         _______ _______ _______ _____ _____    ______ ____
ROOT
ATOM      1  N   UNL     1       3.328   3.693  19.380  0.00  0.00    +0.000 N 
ATOM      2  C   UNL     1       3.849   4.671  18.496  0.00  0.00    +0.000 A 
ATOM      3  N   UNL     1       4.838   4.392  17.676  0.00  0.00    +0.000 NA
ATOM      4  C   UNL     1       5.302   5.363  16.810  0.00  0.00    +0.000 A 
ATOM      5  N   UNL     1       4.850   6.580  16.722  0.00  0.00    +0.000 NA
ATOM      6  C   UNL     1       3.847   6.915  17.556  0.00  0.00    +0.000 A 
ATOM      7  C   UNL     1       3.133   8.074  17.759  0.00  0.00    +0.000 A 
ATOM      8  C   UNL     1       2.241   7.773  18.801  0.00  0.00    +0.000 A 
ATOM      9  N   UNL     1       2.365   6.517  19.235  0.00  0.00    +0.000 NA
ATOM     10  N   UNL     1       3.340   5.999  18.446  0.00  0.00    +0.000 N 
ENDROOT
BRANCH   1  12
ATOM     11  C   UNL     1       3.595   1.367  18.595  0.00  0.00    +0.000 C 
ATOM     12  C   UNL     1       4.063   2.438  19.571  0.00  0.00    +0.000 C 
ENDBRANCH   1  12
BRANCH   1  13
ATOM     13  C   UNL     1       2.149   3.975  20.224  0.00  0.00    +0.000 C 
ATOM     14  C   UNL     1       1.850   3.027  21.373  0.00  0.00    +0.000 C 
ENDBRANCH   1  13
BRANCH   4  15
ATOM     15  S   UNL     1       6.608   4.992  15.690  0.00  0.00    +0.000 S 
ATOM     16  C   UNL     1       5.734   4.237  14.317  0.00  0.00    +0.000 C 
ENDBRANCH   4  15
TORSDOF 3
ENDMDL
MODEL 3
REMARK VINA RESULT:      -5.6      2.662      5.458
REMARK  Name = 
REMARK  6 active torsions:
REMARK  status: ('A' for Active; 'I' for Inactive)
REMARK    1  A    between atoms: C_1  and  C_2
REMARK    2  A    between atoms: C_2  and  N_3
REMARK    3  A    between atoms: N_3  and  C_4
REMARK    4  A    between atoms: C_4  and  C_5
REMARK    5  A    between atoms: C_8  and  S_9
REMARK    6  A    between atoms: S_9  and  C_10
REMARK                            x       y       z     vdW  Elec       q    Type
REMARK                         _______ _______ _______ _____ _____    ______ ____
ROOT
ATOM      1  N   UNL     1       5.007   5.252  16.619  0.00  0.00    +0.000 N 
ATOM      2  C   UNL     1       4.012   5.184  17.627  0.00  0.00    +0.000 A 
ATOM      3  N   UNL     1       3.558   6.270  18.211  0.00  0.00    +0.000 NA
ATOM      4  C   UNL     1       2.569   6.166  19.171  0.00  0.00    +0.000 A 
ATOM      5  N   UNL     1       2.023   5.058  19.581  0.00  0.00    +0.000 NA
ATOM      6  C   UNL     1       2.471   3.919  19.021  0.00  0.00    +0.000 A 
ATOM      7  C   UNL     1       2.153   2.591  19.195  0.00  0.00    +0.000 A 
ATOM      8  C   UNL     1       3.009   1.897  18.325  0.00  0.00    +0.000 A 
ATOM      9  N   UNL     1       3.814   2.711  17.639  0.00  0.00    +0.000 NA
ATOM     10  N   UNL     1       3.456   3.949  18.063  0.00  0.00    +0.000 N 
ENDROOT
BRANCH   1  12
ATOM     11  C   UNL     1       7.042   6.539  17.169  0.00  0.00    +0.000 C 
ATOM     12  C   UNL     1       5.724   6.514  16.407  0.00  0.00    +0.000 C 
ENDBRANCH   1  12
BRANCH   1  13
ATOM     13  C   UNL     1       5.440   4.044  15.889  0.00  0.00    +0.000 C 
ATOM     14  C   UNL     1       5.887   4.204  14.445  0.00  0.00    +0.000 C 
ENDBRANCH   1  13
BRANCH   4  15
ATOM     15  S   UNL     1       1.934   7.616  19.941  0.00  0.00    +0.000 S 
ATOM     16  C   UNL     1       1.835   8.767  18.569  0.00  0.00    +0.000 C 
ENDBRANCH   4  15
TORSDOF 3
ENDMDL
MODEL 4
REMARK VINA RESULT:      -5.6      3.058      4.397
REMARK  Name = 
REMARK  6 active torsions:
REMARK  status: ('A' for Active; 'I' for Inactive)
REMARK    1  A    between atoms: C_1  and  C_2
REMARK    2  A    between atoms: C_2  and  N_3
REMARK    3  A    between atoms: N_3  and  C_4
REMARK    4  A    between atoms: C_4  and  C_5
REMARK    5  A    between atoms: C_8  and  S_9
REMARK    6  A    between atoms: S_9  and  C_10
REMARK                            x       y       z     vdW  Elec       q    Type
REMARK                         _______ _______ _______ _____ _____    ______ ____
ROOT
ATOM      1  N   UNL     1       2.273   3.328  18.293  0.00  0.00    +0.000 N 
ATOM      2  C   UNL     1       2.741   4.647  18.070  0.00  0.00    +0.000 A 
ATOM      3  N   UNL     1       2.168   5.681  18.644  0.00  0.00    +0.000 NA
ATOM      4  C   UNL     1       2.668   6.951  18.422  0.00  0.00    +0.000 A 
ATOM      5  N   UNL     1       3.686   7.243  17.666  0.00  0.00    +0.000 NA
ATOM      6  C   UNL     1       4.293   6.215  17.043  0.00  0.00    +0.000 A 
ATOM      7  C   UNL     1       5.364   6.131  16.183  0.00  0.00    +0.000 A 
ATOM      8  C   UNL     1       5.471   4.766  15.871  0.00  0.00    +0.000 A 
ATOM      9  N   UNL     1       4.546   4.025  16.484  0.00  0.00    +0.000 NA
ATOM     10  N   UNL     1       3.845   4.928  17.216  0.00  0.00    +0.000 N 
ENDROOT
BRANCH   1  12
ATOM     11  C   UNL     1       1.154   2.973  20.466  0.00  0.00    +0.000 C 
ATOM     12  C   UNL     1       0.982   3.132  18.961  0.00  0.00    +0.000 C 
ENDBRANCH   1  12
BRANCH   1  13
ATOM     13  C   UNL     1       2.982   2.160  17.734  0.00  0.00    +0.000 C 
ATOM     14  C   UNL     1       3.752   1.266  18.692  0.00  0.00    +0.000 C 
ENDBRANCH   1  13
BRANCH   4  15
ATOM     15  S   UNL     1       1.925   8.339  19.208  0.00  0.00    +0.000 S 
ATOM     16  C   UNL     1       1.876   9.549  17.885  0.00  0.00    +0.000 C 
ENDBRANCH   4  15
TORSDOF 3
ENDMDL
MODEL 5
REMARK VINA RESULT:      -5.6      2.459      5.073
REMARK  Name = 
REMARK  6 active torsions:
REMARK  status: ('A' for Active; 'I' for Inactive)
REMARK    1  A    between atoms: C_1  and  C_2
REMARK    2  A    between atoms: C_2  and  N_3
REMARK    3  A    between atoms: N_3  and  C_4
REMARK    4  A    between atoms: C_4  and  C_5
REMARK    5  A    between atoms: C_8  and  S_9
REMARK    6  A    between atoms: S_9  and  C_10
REMARK                            x       y       z     vdW  Elec       q    Type
REMARK                         _______ _______ _______ _____ _____    ______ ____
ROOT
ATOM      1  N   UNL     1       6.101   5.647  17.116  0.00  0.00    +0.000 N 
ATOM      2  C   UNL     1       4.771   5.323  17.486  0.00  0.00    +0.000 A 
ATOM      3  N   UNL     1       4.387   4.074  17.626  0.00  0.00    +0.000 NA
ATOM      4  C   UNL     1       3.089   3.797  18.014  0.00  0.00    +0.000 A 
ATOM      5  N   UNL     1       2.165   4.682  18.256  0.00  0.00    +0.000 NA
ATOM      6  C   UNL     1       2.511   5.975  18.107  0.00  0.00    +0.000 A 
ATOM      7  C   UNL     1       1.828   7.159  18.260  0.00  0.00    +0.000 A 
ATOM      8  C   UNL     1       2.754   8.158  17.922  0.00  0.00    +0.000 A 
ATOM      9  N   UNL     1       3.944   7.660  17.581  0.00  0.00    +0.000 NA
ATOM     10  N   UNL     1       3.784   6.320  17.721  0.00  0.00    +0.000 N 
ENDROOT
BRANCH   1  12
ATOM     11  C   UNL     1       7.001   4.519  15.112  0.00  0.00    +0.000 C 
ATOM     12  C   UNL     1       6.988   4.582  16.633  0.00  0.00    +0.000 C 
ENDBRANCH   1  12
BRANCH   1  13
ATOM     13  C   UNL     1       6.560   7.049  17.063  0.00  0.00    +0.000 C 
ATOM     14  C   UNL     1       7.774   7.435  17.892  0.00  0.00    +0.000 C 
ENDBRANCH   1  13
BRANCH   4  15
ATOM     15  S   UNL     1       2.572   2.129  18.231  0.00  0.00    +0.000 S 
ATOM     16  C   UNL     1       0.878   2.321  18.788  0.00  0.00    +0.000 C 
ENDBRANCH   4  15
TORSDOF 3
ENDMDL
MODEL 6
REMARK VINA RESULT:      -5.5      2.065      3.682
REMARK  Name = 
REMARK  6 active torsions:
REMARK  status: ('A' for Active; 'I' for Inactive)
REMARK    1  A    between atoms: C_1  and  C_2
REMARK    2  A    between atoms: C_2  and  N_3
REMARK    3  A    between atoms: N_3  and  C_4
REMARK    4  A    between atoms: C_4  and  C_5
REMARK    5  A    between atoms: C_8  and  S_9
REMARK    6  A    between atoms: S_9  and  C_10
REMARK                            x       y       z     vdW  Elec       q    Type
REMARK                         _______ _______ _______ _____ _____    ______ ____
ROOT
ATOM      1  N   UNL     1       4.381   4.088  18.236  0.00  0.00    +0.000 N 
ATOM      2  C   UNL     1       5.449   4.794  17.626  0.00  0.00    +0.000 A 
ATOM      3  N   UNL     1       6.164   5.665  18.302  0.00  0.00    +0.000 NA
ATOM      4  C   UNL     1       7.215   6.316  17.681  0.00  0.00    +0.000 A 
ATOM      5  N   UNL     1       7.579   6.156  16.442  0.00  0.00    +0.000 NA
ATOM      6  C   UNL     1       6.861   5.285  15.707  0.00  0.00    +0.000 A 
ATOM      7  C   UNL     1       6.936   4.867  14.398  0.00  0.00    +0.000 A 
ATOM      8  C   UNL     1       5.872   3.962  14.246  0.00  0.00    +0.000 A 
ATOM      9  N   UNL     1       5.169   3.804  15.369  0.00  0.00    +0.000 NA
ATOM     10  N   UNL     1       5.802   4.607  16.261  0.00  0.00    +0.000 N 
ENDROOT
BRANCH   1  12
ATOM     11  C   UNL     1       2.688   5.427  19.434  0.00  0.00    +0.000 C 
ATOM     12  C   UNL     1       3.902   4.517  19.555  0.00  0.00    +0.000 C 
ENDBRANCH   1  12
BRANCH   1  13
ATOM     13  C   UNL     1       3.647   3.034  17.508  0.00  0.00    +0.000 C 
ATOM     14  C   UNL     1       3.208   1.803  18.284  0.00  0.00    +0.000 C 
ENDBRANCH   1  13
BRANCH   4  15
ATOM     15  S   UNL     1       8.196   7.464  18.584  0.00  0.00    +0.000 S 
ATOM     16  C   UNL     1       7.925   8.992  17.685  0.00  0.00    +0.000 C 
ENDBRANCH   4  15
TORSDOF 3
ENDMDL
MODEL 7
REMARK VINA RESULT:      -5.5      3.153      4.533
REMARK  Name = 
REMARK  6 active torsions:
REMARK  status: ('A' for Active; 'I' for Inactive)
REMARK    1  A    between atoms: C_1  and  C_2
REMARK    2  A    between atoms: C_2  and  N_3
REMARK    3  A    between atoms: N_3  and  C_4
REMARK    4  A    between atoms: C_4  and  C_5
REMARK    5  A    between atoms: C_8  and  S_9
REMARK    6  A    between atoms: S_9  and  C_10
REMARK                            x       y       z     vdW  Elec       q    Type
REMARK                         _______ _______ _______ _____ _____    ______ ____
ROOT
ATOM      1  N   UNL     1       2.960   3.899  19.506  0.00  0.00    +0.000 N 
ATOM      2  C   UNL     1       3.089   5.174  18.900  0.00  0.00    +0.000 A 
ATOM      3  N   UNL     1       2.344   6.188  19.278  0.00  0.00    +0.000 NA
ATOM      4  C   UNL     1       2.517   7.424  18.682  0.00  0.00    +0.000 A 
ATOM      5  N   UNL     1       3.371   7.698  17.739  0.00  0.00    +0.000 NA
ATOM      6  C   UNL     1       4.143   6.683  17.308  0.00  0.00    +0.000 A 
ATOM      7  C   UNL     1       5.126   6.584  16.350  0.00  0.00    +0.000 A 
ATOM      8  C   UNL     1       5.519   5.236  16.371  0.00  0.00    +0.000 A 
ATOM      9  N   UNL     1       4.846   4.520  17.274  0.00  0.00    +0.000 NA
ATOM     10  N   UNL     1       4.021   5.427  17.855  0.00  0.00    +0.000 N 
ENDROOT
BRANCH   1  12
ATOM     11  C   UNL     1       2.245   2.991  21.688  0.00  0.00    +0.000 C 
ATOM     12  C   UNL     1       1.811   3.637  20.380  0.00  0.00    +0.000 C 
ENDBRANCH   1  12
BRANCH   1  13
ATOM     13  C   UNL     1       3.868   2.789  19.155  0.00  0.00    +0.000 C 
ATOM     14  C   UNL     1       3.290   1.605  18.399  0.00  0.00    +0.000 C 
ENDBRANCH   1  13
BRANCH   4  15
ATOM     15  S   UNL     1       1.543   8.795  19.201  0.00  0.00    +0.000 S 
ATOM     16  C   UNL     1       1.888  10.013  17.931  0.00  0.00    +0.000 C 
ENDBRANCH   4  15
TORSDOF 3
ENDMDL
MODEL 8
REMARK VINA RESULT:      -5.4      2.580      5.186
REMARK  Name = 
REMARK  6 active torsions:
REMARK  status: ('A' for Active; 'I' for Inactive)
REMARK    1  A    between atoms: C_1  and  C_2
REMARK    2  A    between atoms: C_2  and  N_3
REMARK    3  A    between atoms: N_3  and  C_4
REMARK    4  A    between atoms: C_4  and  C_5
REMARK    5  A    between atoms: C_8  and  S_9
REMARK    6  A    between atoms: S_9  and  C_10
REMARK                            x       y       z     vdW  Elec       q    Type
REMARK                         _______ _______ _______ _____ _____    ______ ____
ROOT
ATOM      1  N   UNL     1       5.355   4.920  16.505  0.00  0.00    +0.000 N 
ATOM      2  C   UNL     1       4.172   4.891  17.285  0.00  0.00    +0.000 A 
ATOM      3  N   UNL     1       3.625   3.754  17.654  0.00  0.00    +0.000 NA
ATOM      4  C   UNL     1       2.486   3.765  18.437  0.00  0.00    +0.000 A 
ATOM      5  N   UNL     1       1.866   4.829  18.859  0.00  0.00    +0.000 NA
ATOM      6  C   UNL     1       2.382   6.017  18.490  0.00  0.00    +0.000 A 
ATOM      7  C   UNL     1       2.014   7.322  18.726  0.00  0.00    +0.000 A 
ATOM      8  C   UNL     1       2.957   8.096  18.031  0.00  0.00    +0.000 A 
ATOM      9  N   UNL     1       3.866   7.351  17.399  0.00  0.00    +0.000 NA
ATOM     10  N   UNL     1       3.511   6.078  17.708  0.00  0.00    +0.000 N 
ENDROOT
BRANCH   1  12
ATOM     11  C   UNL     1       6.230   3.905  14.431  0.00  0.00    +0.000 C 
ATOM     12  C   UNL     1       5.831   3.679  15.883  0.00  0.00    +0.000 C 
ENDBRANCH   1  12
BRANCH   1  13
ATOM     13  C   UNL     1       6.027   6.195  16.182  0.00  0.00    +0.000 C 
ATOM     14  C   UNL     1       7.238   6.593  17.008  0.00  0.00    +0.000 C 
ENDBRANCH   1  13
BRANCH   4  15
ATOM     15  S   UNL     1       1.762   2.249  18.959  0.00  0.00    +0.000 S 
ATOM     16  C   UNL     1       1.514   2.524  20.713  0.00  0.00    +0.000 C 
ENDBRANCH   4  15
TORSDOF 3
ENDMDL
MODEL 9
REMARK VINA RESULT:      -5.4      3.065      5.782
REMARK  Name = 
REMARK  6 active torsions:
REMARK  status: ('A' for Active; 'I' for Inactive)
REMARK    1  A    between atoms: C_1  and  C_2
REMARK    2  A    between atoms: C_2  and  N_3
REMARK    3  A    between atoms: N_3  and  C_4
REMARK    4  A    between atoms: C_4  and  C_5
REMARK    5  A    between atoms: C_8  and  S_9
REMARK    6  A    between atoms: S_9  and  C_10
REMARK                            x       y       z     vdW  Elec       q    Type
REMARK                         _______ _______ _______ _____ _____    ______ ____
ROOT
ATOM      1  N   UNL     1       4.594   5.487  17.466  0.00  0.00    +0.000 N 
ATOM      2  C   UNL     1       3.668   5.734  18.511  0.00  0.00    +0.000 A 
ATOM      3  N   UNL     1       3.131   6.922  18.680  0.00  0.00    +0.000 NA
ATOM      4  C   UNL     1       2.212   7.118  19.694  0.00  0.00    +0.000 A 
ATOM      5  N   UNL     1       1.810   6.214  20.539  0.00  0.00    +0.000 NA
ATOM      6  C   UNL     1       2.348   4.986  20.413  0.00  0.00    +0.000 A 
ATOM      7  C   UNL     1       2.183   3.807  21.103  0.00  0.00    +0.000 A 
ATOM      8  C   UNL     1       3.061   2.900  20.486  0.00  0.00    +0.000 A 
ATOM      9  N   UNL     1       3.736   3.448  19.474  0.00  0.00    +0.000 NA
ATOM     10  N   UNL     1       3.271   4.722  19.429  0.00  0.00    +0.000 N 
ENDROOT
BRANCH   1  12
ATOM     11  C   UNL     1       6.519   7.023  17.284  0.00  0.00    +0.000 C 
ATOM     12  C   UNL     1       5.159   6.623  16.729  0.00  0.00    +0.000 C 
ENDBRANCH   1  12
BRANCH   1  13
ATOM     13  C   UNL     1       5.114   4.129  17.210  0.00  0.00    +0.000 C 
ATOM     14  C   UNL     1       5.629   3.813  15.816  0.00  0.00    +0.000 C 
ENDBRANCH   1  13
BRANCH   4  15
ATOM     15  S   UNL     1       1.467   8.698  19.913  0.00  0.00    +0.000 S 
ATOM     16  C   UNL     1       1.001   8.666  21.644  0.00  0.00    +0.000 C 
ENDBRANCH   4  15
TORSDOF 3
ENDMDL
