MODEL 1
REMARK VINA RESULT:      -7.6      0.000      0.000
REMARK  Name = 
REMARK  9 active torsions:
REMARK  status: ('A' for Active; 'I' for Inactive)
REMARK    1  A    between atoms: C_1  and  C_2
REMARK    2  A    between atoms: C_2  and  C_4
REMARK    3  A    between atoms: C_6  and  C_7
REMARK    4  A    between atoms: C_7  and  C_8
REMARK    5  A    between atoms: C_7  and  C_9
REMARK    6  A    between atoms: C_7  and  C_10
REMARK    7  A    between atoms: C_12  and  N_13
REMARK    8  A    between atoms: C_14  and  C_16
REMARK    9  A    between atoms: C_21  and  O_22
REMARK                            x       y       z     vdW  Elec       q    Type
REMARK                         _______ _______ _______ _____ _____    ______ ____
ROOT
ATOM      1  C   UNL     1       2.613   6.477  18.880  0.00  0.00    +0.000 A 
ATOM      2  C   UNL     1       2.144   5.245  19.380  0.00  0.00    +0.000 A 
ATOM      3  C   UNL     1       2.581   4.023  18.850  0.00  0.00    +0.000 A 
ATOM      4  C   UNL     1       3.485   4.085  17.779  0.00  0.00    +0.000 A 
ATOM      5  C   UNL     1       3.971   5.287  17.242  0.00  0.00    +0.000 A 
ATOM      6  C   UNL     1       3.559   6.492  17.840  0.00  0.00    +0.000 A 
ENDROOT
BRANCH   3   7
ATOM      7  C   UNL     1       2.087   2.679  19.420  0.00  0.00    +0.000 C 
ATOM      8  C   UNL     1       2.008   2.753  20.959  0.00  0.00    +0.000 C 
ATOM      9  C   UNL     1       0.683   2.264  18.915  0.00  0.00    +0.000 C 
ATOM     10  C   UNL     1       3.060   1.553  19.014  0.00  0.00    +0.000 C 
ENDBRANCH   3   7
BRANCH   5  11
ATOM     11  N   UNL     1       4.849   5.279  16.120  0.00  0.00    +0.000 N 
ATOM     12  C   UNL     1       6.160   4.791  16.117  0.00  0.00    +0.000 C 
ATOM     13  O   UNL     1       6.753   4.335  17.089  0.00  0.00    +0.000 OA
ATOM     14  H   UNL     1       4.521   5.574  15.211  0.00  0.00    +0.000 HD
BRANCH  12  15
ATOM     15  C   UNL     1       6.796   4.801  14.794  0.00  0.00    +0.000 A 
ATOM     16  N   UNL     1       6.308   4.053  13.752  0.00  0.00    +0.000 NA
ATOM     17  N   UNL     1       7.059   4.331  12.700  0.00  0.00    +0.000 NA
ATOM     18  N   UNL     1       7.944   5.230  13.141  0.00  0.00    +0.000 N 
ATOM     19  N   UNL     1       7.854   5.565  14.447  0.00  0.00    +0.000 NA
ATOM     20  H   UNL     1       8.628   5.640  12.513  0.00  0.00    +0.000 HD
ENDBRANCH  12  15
ENDBRANCH   5  11
BRANCH   1  22
ATOM     21  C   UNL     1       1.607   7.707  20.934  0.00  0.00    +0.000 C 
ATOM     22  C   UNL     1       2.014   7.708  19.482  0.00  0.00    +0.000 C 
ATOM     23  O   UNL     1       1.943   8.738  18.808  0.00  0.00    +0.000 OA
ENDBRANCH   1  22
BRANCH   6  24
ATOM     24  O   UNL     1       4.067   7.695  17.430  0.00  0.00    +0.000 OA
ATOM     25  H   UNL     1       3.976   8.353  18.131  0.00  0.00    +0.000 HD
ENDBRANCH   6  24
TORSDOF 5
ENDMDL
MODEL 2
REMARK VINA RESULT:      -7.5      0.592      1.011
REMARK  Name = 
REMARK  9 active torsions:
REMARK  status: ('A' for Active; 'I' for Inactive)
REMARK    1  A    between atoms: C_1  and  C_2
REMARK    2  A    between atoms: C_2  and  C_4
REMARK    3  A    between atoms: C_6  and  C_7
REMARK    4  A    between atoms: C_7  and  C_8
REMARK    5  A    between atoms: C_7  and  C_9
REMARK    6  A    between atoms: C_7  and  C_10
REMARK    7  A    between atoms: C_12  and  N_13
REMARK    8  A    between atoms: C_14  and  C_16
REMARK    9  A    between atoms: C_21  and  O_22
REMARK                            x       y       z     vdW  Elec       q    Type
REMARK                         _______ _______ _______ _____ _____    ______ ____
ROOT
ATOM      1  C   UNL     1       2.532   6.725  19.147  0.00  0.00    +0.000 A 
ATOM      2  C   UNL     1       2.198   5.523  19.803  0.00  0.00    +0.000 A 
ATOM      3  C   UNL     1       2.713   4.289  19.382  0.00  0.00    +0.000 A 
ATOM      4  C   UNL     1       3.553   4.304  18.260  0.00  0.00    +0.000 A 
ATOM      5  C   UNL     1       3.904   5.475  17.568  0.00  0.00    +0.000 A 
ATOM      6  C   UNL     1       3.419   6.701  18.057  0.00  0.00    +0.000 A 
ENDROOT
BRANCH   3   7
ATOM      7  C   UNL     1       2.368   2.981  20.122  0.00  0.00    +0.000 C 
ATOM      8  C   UNL     1       1.443   3.279  21.320  0.00  0.00    +0.000 C 
ATOM      9  C   UNL     1       1.643   1.937  19.238  0.00  0.00    +0.000 C 
ATOM     10  C   UNL     1       3.664   2.316  20.631  0.00  0.00    +0.000 C 
ENDBRANCH   3   7
BRANCH   5  11
ATOM     11  N   UNL     1       4.723   5.413  16.403  0.00  0.00    +0.000 N 
ATOM     12  C   UNL     1       6.024   4.903  16.350  0.00  0.00    +0.000 C 
ATOM     13  O   UNL     1       6.660   4.470  17.306  0.00  0.00    +0.000 OA
ATOM     14  H   UNL     1       4.352   5.683  15.503  0.00  0.00    +0.000 HD
BRANCH  12  15
ATOM     15  C   UNL     1       6.590   4.857  14.996  0.00  0.00    +0.000 A 
ATOM     16  N   UNL     1       7.728   5.551  14.664  0.00  0.00    +0.000 NA
ATOM     17  N   UNL     1       8.002   5.251  13.407  0.00  0.00    +0.000 NA
ATOM     18  N   UNL     1       7.044   4.394  13.043  0.00  0.00    +0.000 N 
ATOM     19  N   UNL     1       6.112   4.108  13.980  0.00  0.00    +0.000 NA
ATOM     20  H   UNL     1       7.040   3.977  12.118  0.00  0.00    +0.000 HD
ENDBRANCH  12  15
ENDBRANCH   5  11
BRANCH   1  22
ATOM     21  C   UNL     1       1.421   8.044  21.089  0.00  0.00    +0.000 C 
ATOM     22  C   UNL     1       1.858   7.963  19.648  0.00  0.00    +0.000 C 
ATOM     23  O   UNL     1       1.748   8.937  18.901  0.00  0.00    +0.000 OA
ENDBRANCH   1  22
BRANCH   6  24
ATOM     24  O   UNL     1       3.798   7.889  17.491  0.00  0.00    +0.000 OA
ATOM     25  H   UNL     1       4.314   8.409  18.119  0.00  0.00    +0.000 HD
ENDBRANCH   6  24
TORSDOF 5
ENDMDL
MODEL 3
REMARK VINA RESULT:      -7.5      0.590      1.244
REMARK  Name = 
REMARK  9 active torsions:
REMARK  status: ('A' for Active; 'I' for Inactive)
REMARK    1  A    between atoms: C_1  and  C_2
REMARK    2  A    between atoms: C_2  and  C_4
REMARK    3  A    between atoms: C_6  and  C_7
REMARK    4  A    between atoms: C_7  and  C_8
REMARK    5  A    between atoms: C_7  and  C_9
REMARK    6  A    between atoms: C_7  and  C_10
REMARK    7  A    between atoms: C_12  and  N_13
REMARK    8  A    between atoms: C_14  and  C_16
REMARK    9  A    between atoms: C_21  and  O_22
REMARK                            x       y       z     vdW  Elec       q    Type
REMARK                         _______ _______ _______ _____ _____    ______ ____
ROOT
ATOM      1  C   UNL     1       2.684   6.581  19.084  0.00  0.00    +0.000 A 
ATOM      2  C   UNL     1       2.459   5.393  19.808  0.00  0.00    +0.000 A 
ATOM      3  C   UNL     1       3.015   4.171  19.404  0.00  0.00    +0.000 A 
ATOM      4  C   UNL     1       3.781   4.181  18.230  0.00  0.00    +0.000 A 
ATOM      5  C   UNL     1       4.023   5.337  17.471  0.00  0.00    +0.000 A 
ATOM      6  C   UNL     1       3.501   6.556  17.941  0.00  0.00    +0.000 A 
ENDROOT
BRANCH   3   7
ATOM      7  C   UNL     1       2.790   2.880  20.216  0.00  0.00    +0.000 C 
ATOM      8  C   UNL     1       4.133   2.151  20.433  0.00  0.00    +0.000 C 
ATOM      9  C   UNL     1       2.175   3.122  21.617  0.00  0.00    +0.000 C 
ATOM     10  C   UNL     1       1.823   1.950  19.456  0.00  0.00    +0.000 C 
ENDBRANCH   3   7
BRANCH   5  11
ATOM     11  N   UNL     1       4.769   5.269  16.259  0.00  0.00    +0.000 N 
ATOM     12  C   UNL     1       6.119   4.916  16.154  0.00  0.00    +0.000 C 
ATOM     13  O   UNL     1       6.862   4.651  17.093  0.00  0.00    +0.000 OA
ATOM     14  H   UNL     1       4.313   5.409  15.368  0.00  0.00    +0.000 HD
BRANCH  12  15
ATOM     15  C   UNL     1       6.601   4.815  14.771  0.00  0.00    +0.000 A 
ATOM     16  N   UNL     1       7.699   5.515  14.336  0.00  0.00    +0.000 NA
ATOM     17  N   UNL     1       7.903   5.159  13.079  0.00  0.00    +0.000 NA
ATOM     18  N   UNL     1       6.946   4.265  12.818  0.00  0.00    +0.000 N 
ATOM     19  N   UNL     1       6.081   4.006  13.824  0.00  0.00    +0.000 NA
ATOM     20  H   UNL     1       6.895   3.803  11.916  0.00  0.00    +0.000 HD
ENDBRANCH  12  15
ENDBRANCH   5  11
BRANCH   1  22
ATOM     21  C   UNL     1       1.501   7.864  21.007  0.00  0.00    +0.000 C 
ATOM     22  C   UNL     1       1.975   7.802  19.577  0.00  0.00    +0.000 C 
ATOM     23  O   UNL     1       1.865   8.780  18.834  0.00  0.00    +0.000 OA
ENDBRANCH   1  22
BRANCH   6  24
ATOM     24  O   UNL     1       3.777   7.737  17.303  0.00  0.00    +0.000 OA
ATOM     25  H   UNL     1       3.600   8.483  17.890  0.00  0.00    +0.000 HD
ENDBRANCH   6  24
TORSDOF 5
ENDMDL
MODEL 4
REMARK VINA RESULT:      -7.3      2.603      3.912
REMARK  Name = 
REMARK  9 active torsions:
REMARK  status: ('A' for Active; 'I' for Inactive)
REMARK    1  A    between atoms: C_1  and  C_2
REMARK    2  A    between atoms: C_2  and  C_4
REMARK    3  A    between atoms: C_6  and  C_7
REMARK    4  A    between atoms: C_7  and  C_8
REMARK    5  A    between atoms: C_7  and  C_9
REMARK    6  A    between atoms: C_7  and  C_10
REMARK    7  A    between atoms: C_12  and  N_13
REMARK    8  A    between atoms: C_14  and  C_16
REMARK    9  A    between atoms: C_21  and  O_22
REMARK                            x       y       z     vdW  Elec       q    Type
REMARK                         _______ _______ _______ _____ _____    ______ ____
ROOT
ATOM      1  C   UNL     1       6.443   5.335  18.232  0.00  0.00    +0.000 A 
ATOM      2  C   UNL     1       5.145   5.573  18.725  0.00  0.00    +0.000 A 
ATOM      3  C   UNL     1       4.005   5.156  18.023  0.00  0.00    +0.000 A 
ATOM      4  C   UNL     1       4.218   4.517  16.793  0.00  0.00    +0.000 A 
ATOM      5  C   UNL     1       5.492   4.269  16.257  0.00  0.00    +0.000 A 
ATOM      6  C   UNL     1       6.613   4.645  17.019  0.00  0.00    +0.000 A 
ENDROOT
BRANCH   3   7
ATOM      7  C   UNL     1       2.587   5.392  18.581  0.00  0.00    +0.000 C 
ATOM      8  C   UNL     1       2.559   5.097  20.095  0.00  0.00    +0.000 C 
ATOM      9  C   UNL     1       2.075   6.841  18.393  0.00  0.00    +0.000 C 
ATOM     10  C   UNL     1       1.585   4.465  17.863  0.00  0.00    +0.000 C 
ENDBRANCH   3   7
BRANCH   5  11
ATOM     11  N   UNL     1       5.636   3.660  14.977  0.00  0.00    +0.000 N 
ATOM     12  C   UNL     1       6.283   4.227  13.875  0.00  0.00    +0.000 C 
ATOM     13  O   UNL     1       6.786   5.346  13.841  0.00  0.00    +0.000 OA
ATOM     14  H   UNL     1       5.325   2.710  14.825  0.00  0.00    +0.000 HD
BRANCH  12  15
ATOM     15  C   UNL     1       6.385   3.330  12.718  0.00  0.00    +0.000 A 
ATOM     16  N   UNL     1       7.557   3.183  12.017  0.00  0.00    +0.000 NA
ATOM     17  N   UNL     1       7.333   2.270  11.088  0.00  0.00    +0.000 NA
ATOM     18  N   UNL     1       6.062   1.901  11.273  0.00  0.00    +0.000 N 
ATOM     19  N   UNL     1       5.396   2.531  12.265  0.00  0.00    +0.000 NA
ATOM     20  H   UNL     1       5.642   1.175  10.701  0.00  0.00    +0.000 HD
ENDBRANCH  12  15
ENDBRANCH   5  11
BRANCH   1  22
ATOM     21  C   UNL     1       8.229   7.182  18.611  0.00  0.00    +0.000 C 
ATOM     22  C   UNL     1       7.571   5.895  19.040  0.00  0.00    +0.000 C 
ATOM     23  O   UNL     1       7.891   5.345  20.095  0.00  0.00    +0.000 OA
ENDBRANCH   1  22
BRANCH   6  24
ATOM     24  O   UNL     1       7.883   4.348  16.603  0.00  0.00    +0.000 OA
ATOM     25  H   UNL     1       8.253   5.088  16.104  0.00  0.00    +0.000 HD
ENDBRANCH   6  24
TORSDOF 5
ENDMDL
MODEL 5
REMARK VINA RESULT:      -7.3      4.540      7.521
REMARK  Name = 
REMARK  9 active torsions:
REMARK  status: ('A' for Active; 'I' for Inactive)
REMARK    1  A    between atoms: C_1  and  C_2
REMARK    2  A    between atoms: C_2  and  C_4
REMARK    3  A    between atoms: C_6  and  C_7
REMARK    4  A    between atoms: C_7  and  C_8
REMARK    5  A    between atoms: C_7  and  C_9
REMARK    6  A    between atoms: C_7  and  C_10
REMARK    7  A    between atoms: C_12  and  N_13
REMARK    8  A    between atoms: C_14  and  C_16
REMARK    9  A    between atoms: C_21  and  O_22
REMARK                            x       y       z     vdW  Elec       q    Type
REMARK                         _______ _______ _______ _____ _____    ______ ____
ROOT
ATOM      1  C   UNL     1       2.775   3.677  18.820  0.00  0.00    +0.000 A 
ATOM      2  C   UNL     1       3.707   4.227  17.917  0.00  0.00    +0.000 A 
ATOM      3  C   UNL     1       4.090   5.574  17.986  0.00  0.00    +0.000 A 
ATOM      4  C   UNL     1       3.480   6.355  18.978  0.00  0.00    +0.000 A 
ATOM      5  C   UNL     1       2.539   5.854  19.891  0.00  0.00    +0.000 A 
ATOM      6  C   UNL     1       2.226   4.484  19.832  0.00  0.00    +0.000 A 
ENDROOT
BRANCH   3   7
ATOM      7  C   UNL     1       5.133   6.163  17.015  0.00  0.00    +0.000 C 
ATOM      8  C   UNL     1       6.473   6.383  17.746  0.00  0.00    +0.000 C 
ATOM      9  C   UNL     1       5.427   5.260  15.792  0.00  0.00    +0.000 C 
ATOM     10  C   UNL     1       4.626   7.512  16.464  0.00  0.00    +0.000 C 
ENDBRANCH   3   7
BRANCH   5  11
ATOM     11  N   UNL     1       1.919   6.715  20.843  0.00  0.00    +0.000 N 
ATOM     12  C   UNL     1       1.484   8.021  20.595  0.00  0.00    +0.000 C 
ATOM     13  O   UNL     1       1.609   8.625  19.535  0.00  0.00    +0.000 OA
ATOM     14  H   UNL     1       1.688   6.375  21.766  0.00  0.00    +0.000 HD
BRANCH  12  15
ATOM     15  C   UNL     1       0.776   8.636  21.724  0.00  0.00    +0.000 A 
ATOM     16  N   UNL     1       1.435   9.372  22.678  0.00  0.00    +0.000 NA
ATOM     17  N   UNL     1       0.515   9.831  23.508  0.00  0.00    +0.000 NA
ATOM     18  N   UNL     1      -0.642   9.373  23.022  0.00  0.00    +0.000 N 
ATOM     19  N   UNL     1      -0.561   8.603  21.914  0.00  0.00    +0.000 NA
ATOM     20  H   UNL     1      -1.525   9.612  23.462  0.00  0.00    +0.000 HD
ENDBRANCH  12  15
ENDBRANCH   5  11
BRANCH   1  22
ATOM     21  C   UNL     1       3.475   1.206  18.434  0.00  0.00    +0.000 C 
ATOM     22  C   UNL     1       2.397   2.248  18.593  0.00  0.00    +0.000 C 
ATOM     23  O   UNL     1       1.208   1.924  18.629  0.00  0.00    +0.000 OA
ENDBRANCH   1  22
BRANCH   6  24
ATOM     24  O   UNL     1       1.390   3.908  20.751  0.00  0.00    +0.000 OA
ATOM     25  H   UNL     1       0.686   4.523  20.993  0.00  0.00    +0.000 HD
ENDBRANCH   6  24
TORSDOF 5
ENDMDL
MODEL 6
REMARK VINA RESULT:      -7.1      2.591      3.839
REMARK  Name = 
REMARK  9 active torsions:
REMARK  status: ('A' for Active; 'I' for Inactive)
REMARK    1  A    between atoms: C_1  and  C_2
REMARK    2  A    between atoms: C_2  and  C_4
REMARK    3  A    between atoms: C_6  and  C_7
REMARK    4  A    between atoms: C_7  and  C_8
REMARK    5  A    between atoms: C_7  and  C_9
REMARK    6  A    between atoms: C_7  and  C_10
REMARK    7  A    between atoms: C_12  and  N_13
REMARK    8  A    between atoms: C_14  and  C_16
REMARK    9  A    between atoms: C_21  and  O_22
REMARK                            x       y       z     vdW  Elec       q    Type
REMARK                         _______ _______ _______ _____ _____    ______ ____
ROOT
ATOM      1  C   UNL     1       6.426   5.324  18.269  0.00  0.00    +0.000 A 
ATOM      2  C   UNL     1       5.124   5.549  18.759  0.00  0.00    +0.000 A 
ATOM      3  C   UNL     1       3.990   5.135  18.048  0.00  0.00    +0.000 A 
ATOM      4  C   UNL     1       4.211   4.512  16.811  0.00  0.00    +0.000 A 
ATOM      5  C   UNL     1       5.488   4.277  16.277  0.00  0.00    +0.000 A 
ATOM      6  C   UNL     1       6.604   4.650  17.048  0.00  0.00    +0.000 A 
ENDROOT
BRANCH   3   7
ATOM      7  C   UNL     1       2.569   5.357  18.603  0.00  0.00    +0.000 C 
ATOM      8  C   UNL     1       2.168   6.839  18.454  0.00  0.00    +0.000 C 
ATOM      9  C   UNL     1       1.481   4.519  17.887  0.00  0.00    +0.000 C 
ATOM     10  C   UNL     1       2.527   4.965  20.095  0.00  0.00    +0.000 C 
ENDBRANCH   3   7
BRANCH   5  11
ATOM     11  N   UNL     1       5.641   3.684  14.991  0.00  0.00    +0.000 N 
ATOM     12  C   UNL     1       6.344   4.240  13.917  0.00  0.00    +0.000 C 
ATOM     13  O   UNL     1       6.897   5.336  13.918  0.00  0.00    +0.000 OA
ATOM     14  H   UNL     1       5.292   2.752  14.812  0.00  0.00    +0.000 HD
BRANCH  12  15
ATOM     15  C   UNL     1       6.438   3.360  12.747  0.00  0.00    +0.000 A 
ATOM     16  N   UNL     1       5.386   2.571  12.349  0.00  0.00    +0.000 NA
ATOM     17  N   UNL     1       5.769   1.956  11.243  0.00  0.00    +0.000 NA
ATOM     18  N   UNL     1       7.007   2.402  11.016  0.00  0.00    +0.000 N 
ATOM     19  N   UNL     1       7.504   3.274  11.923  0.00  0.00    +0.000 NA
ATOM     20  H   UNL     1       7.527   2.106  10.196  0.00  0.00    +0.000 HD
ENDBRANCH  12  15
ENDBRANCH   5  11
BRANCH   1  22
ATOM     21  C   UNL     1       8.235   7.149  18.648  0.00  0.00    +0.000 C 
ATOM     22  C   UNL     1       7.548   5.881  19.087  0.00  0.00    +0.000 C 
ATOM     23  O   UNL     1       7.839   5.345  20.159  0.00  0.00    +0.000 OA
ENDBRANCH   1  22
BRANCH   6  24
ATOM     24  O   UNL     1       7.878   4.365  16.634  0.00  0.00    +0.000 OA
ATOM     25  H   UNL     1       8.292   3.733  17.236  0.00  0.00    +0.000 HD
ENDBRANCH   6  24
TORSDOF 5
ENDMDL
MODEL 7
REMARK VINA RESULT:      -7.1      3.762      6.696
REMARK  Name = 
REMARK  9 active torsions:
REMARK  status: ('A' for Active; 'I' for Inactive)
REMARK    1  A    between atoms: C_1  and  C_2
REMARK    2  A    between atoms: C_2  and  C_4
REMARK    3  A    between atoms: C_6  and  C_7
REMARK    4  A    between atoms: C_7  and  C_8
REMARK    5  A    between atoms: C_7  and  C_9
REMARK    6  A    between atoms: C_7  and  C_10
REMARK    7  A    between atoms: C_12  and  N_13
REMARK    8  A    between atoms: C_14  and  C_16
REMARK    9  A    between atoms: C_21  and  O_22
REMARK                            x       y       z     vdW  Elec       q    Type
REMARK                         _______ _______ _______ _____ _____    ______ ____
ROOT
ATOM      1  C   UNL     1       3.465   3.899  17.843  0.00  0.00    +0.000 A 
ATOM      2  C   UNL     1       4.819   4.033  17.475  0.00  0.00    +0.000 A 
ATOM      3  C   UNL     1       5.417   5.292  17.324  0.00  0.00    +0.000 A 
ATOM      4  C   UNL     1       4.596   6.411  17.527  0.00  0.00    +0.000 A 
ATOM      5  C   UNL     1       3.240   6.326  17.882  0.00  0.00    +0.000 A 
ATOM      6  C   UNL     1       2.691   5.047  18.087  0.00  0.00    +0.000 A 
ENDROOT
BRANCH   3   7
ATOM      7  C   UNL     1       6.906   5.434  16.951  0.00  0.00    +0.000 C 
ATOM      8  C   UNL     1       7.378   6.882  17.199  0.00  0.00    +0.000 C 
ATOM      9  C   UNL     1       7.844   4.507  17.763  0.00  0.00    +0.000 C 
ATOM     10  C   UNL     1       7.105   5.081  15.463  0.00  0.00    +0.000 C 
ENDBRANCH   3   7
BRANCH   5  11
ATOM     11  N   UNL     1       2.450   7.503  18.024  0.00  0.00    +0.000 N 
ATOM     12  C   UNL     1       1.958   8.012  19.231  0.00  0.00    +0.000 C 
ATOM     13  O   UNL     1       2.105   7.497  20.334  0.00  0.00    +0.000 OA
ATOM     14  H   UNL     1       2.262   8.092  17.225  0.00  0.00    +0.000 HD
BRANCH  12  15
ATOM     15  C   UNL     1       1.271   9.302  19.096  0.00  0.00    +0.000 A 
ATOM     16  N   UNL     1       0.616   9.886  20.152  0.00  0.00    +0.000 NA
ATOM     17  N   UNL     1       0.165  11.051  19.723  0.00  0.00    +0.000 NA
ATOM     18  N   UNL     1       0.572  11.127  18.452  0.00  0.00    +0.000 N 
ATOM     19  N   UNL     1       1.259  10.062  17.981  0.00  0.00    +0.000 NA
ATOM     20  H   UNL     1       0.382  11.952  17.892  0.00  0.00    +0.000 HD
ENDBRANCH  12  15
ENDBRANCH   5  11
BRANCH   1  22
ATOM     21  C   UNL     1       3.734   1.420  18.571  0.00  0.00    +0.000 C 
ATOM     22  C   UNL     1       2.929   2.503  17.899  0.00  0.00    +0.000 C 
ATOM     23  O   UNL     1       1.795   2.273  17.474  0.00  0.00    +0.000 OA
ENDBRANCH   1  22
BRANCH   6  24
ATOM     24  O   UNL     1       1.404   4.892  18.527  0.00  0.00    +0.000 OA
ATOM     25  H   UNL     1       0.822   4.673  17.788  0.00  0.00    +0.000 HD
ENDBRANCH   6  24
TORSDOF 5
ENDMDL
MODEL 8
REMARK VINA RESULT:      -7.1      4.379      7.295
REMARK  Name = 
REMARK  9 active torsions:
REMARK  status: ('A' for Active; 'I' for Inactive)
REMARK    1  A    between atoms: C_1  and  C_2
REMARK    2  A    between atoms: C_2  and  C_4
REMARK    3  A    between atoms: C_6  and  C_7
REMARK    4  A    between atoms: C_7  and  C_8
REMARK    5  A    between atoms: C_7  and  C_9
REMARK    6  A    between atoms: C_7  and  C_10
REMARK    7  A    between atoms: C_12  and  N_13
REMARK    8  A    between atoms: C_14  and  C_16
REMARK    9  A    between atoms: C_21  and  O_22
REMARK                            x       y       z     vdW  Elec       q    Type
REMARK                         _______ _______ _______ _____ _____    ______ ____
ROOT
ATOM      1  C   UNL     1       2.745   3.962  18.606  0.00  0.00    +0.000 A 
ATOM      2  C   UNL     1       3.855   4.302  17.807  0.00  0.00    +0.000 A 
ATOM      3  C   UNL     1       4.447   5.571  17.875  0.00  0.00    +0.000 A 
ATOM      4  C   UNL     1       3.864   6.496  18.753  0.00  0.00    +0.000 A 
ATOM      5  C   UNL     1       2.752   6.206  19.559  0.00  0.00    +0.000 A 
ATOM      6  C   UNL     1       2.223   4.903  19.511  0.00  0.00    +0.000 A 
ENDROOT
BRANCH   3   7
ATOM      7  C   UNL     1       5.680   5.928  17.021  0.00  0.00    +0.000 C 
ATOM      8  C   UNL     1       5.260   6.159  15.555  0.00  0.00    +0.000 C 
ATOM      9  C   UNL     1       6.415   7.209  17.488  0.00  0.00    +0.000 C 
ATOM     10  C   UNL     1       6.705   4.776  17.081  0.00  0.00    +0.000 C 
ENDBRANCH   3   7
BRANCH   5  11
ATOM     11  N   UNL     1       2.177   7.208  20.393  0.00  0.00    +0.000 N 
ATOM     12  C   UNL     1       1.573   8.389  19.948  0.00  0.00    +0.000 C 
ATOM     13  O   UNL     1       1.486   8.748  18.779  0.00  0.00    +0.000 OA
ATOM     14  H   UNL     1       2.112   7.067  21.392  0.00  0.00    +0.000 HD
BRANCH  12  15
ATOM     15  C   UNL     1       0.963   9.185  21.019  0.00  0.00    +0.000 A 
ATOM     16  N   UNL     1       1.443   9.156  22.306  0.00  0.00    +0.000 NA
ATOM     17  N   UNL     1       0.722  10.019  23.000  0.00  0.00    +0.000 NA
ATOM     18  N   UNL     1      -0.139  10.533  22.117  0.00  0.00    +0.000 N 
ATOM     19  N   UNL     1      -0.061  10.050  20.857  0.00  0.00    +0.000 NA
ATOM     20  H   UNL     1      -0.796  11.257  22.390  0.00  0.00    +0.000 HD
ENDBRANCH  12  15
ENDBRANCH   5  11
BRANCH   1  22
ATOM     21  C   UNL     1       3.065   1.396  18.368  0.00  0.00    +0.000 C 
ATOM     22  C   UNL     1       2.161   2.603  18.386  0.00  0.00    +0.000 C 
ATOM     23  O   UNL     1       0.938   2.474  18.311  0.00  0.00    +0.000 OA
ENDBRANCH   1  22
BRANCH   6  24
ATOM     24  O   UNL     1       1.201   4.523  20.338  0.00  0.00    +0.000 OA
ATOM     25  H   UNL     1       0.583   5.255  20.464  0.00  0.00    +0.000 HD
ENDBRANCH   6  24
TORSDOF 5
ENDMDL
MODEL 9
REMARK VINA RESULT:      -7.1      3.227      5.838
REMARK  Name = 
REMARK  9 active torsions:
REMARK  status: ('A' for Active; 'I' for Inactive)
REMARK    1  A    between atoms: C_1  and  C_2
REMARK    2  A    between atoms: C_2  and  C_4
REMARK    3  A    between atoms: C_6  and  C_7
REMARK    4  A    between atoms: C_7  and  C_8
REMARK    5  A    between atoms: C_7  and  C_9
REMARK    6  A    between atoms: C_7  and  C_10
REMARK    7  A    between atoms: C_12  and  N_13
REMARK    8  A    between atoms: C_14  and  C_16
REMARK    9  A    between atoms: C_21  and  O_22
REMARK                            x       y       z     vdW  Elec       q    Type
REMARK                         _______ _______ _______ _____ _____    ______ ____
ROOT
ATOM      1  C   UNL     1       5.287   4.770  16.807  0.00  0.00    +0.000 A 
ATOM      2  C   UNL     1       4.731   3.678  17.502  0.00  0.00    +0.000 A 
ATOM      3  C   UNL     1       3.525   3.794  18.209  0.00  0.00    +0.000 A 
ATOM      4  C   UNL     1       2.915   5.056  18.215  0.00  0.00    +0.000 A 
ATOM      5  C   UNL     1       3.438   6.175  17.547  0.00  0.00    +0.000 A 
ATOM      6  C   UNL     1       4.615   6.005  16.797  0.00  0.00    +0.000 A 
ENDROOT
BRANCH   3   7
ATOM      7  C   UNL     1       2.906   2.588  18.943  0.00  0.00    +0.000 C 
ATOM      8  C   UNL     1       3.079   2.751  20.467  0.00  0.00    +0.000 C 
ATOM      9  C   UNL     1       1.391   2.405  18.676  0.00  0.00    +0.000 C 
ATOM     10  C   UNL     1       3.602   1.289  18.487  0.00  0.00    +0.000 C 
ENDBRANCH   3   7
BRANCH   5  11
ATOM     11  N   UNL     1       2.793   7.443  17.636  0.00  0.00    +0.000 N 
ATOM     12  C   UNL     1       2.248   7.998  18.799  0.00  0.00    +0.000 C 
ATOM     13  O   UNL     1       2.214   7.457  19.899  0.00  0.00    +0.000 OA
ATOM     14  H   UNL     1       2.765   8.060  16.837  0.00  0.00    +0.000 HD
BRANCH  12  15
ATOM     15  C   UNL     1       1.748   9.367  18.626  0.00  0.00    +0.000 A 
ATOM     16  N   UNL     1       0.786   9.895  19.453  0.00  0.00    +0.000 NA
ATOM     17  N   UNL     1       0.606  11.149  19.074  0.00  0.00    +0.000 NA
ATOM     18  N   UNL     1       1.462  11.325  18.063  0.00  0.00    +0.000 N 
ATOM     19  N   UNL     1       2.202  10.250  17.712  0.00  0.00    +0.000 NA
ATOM     20  H   UNL     1       1.550  12.227  17.605  0.00  0.00    +0.000 HD
ENDBRANCH  12  15
ENDBRANCH   5  11
BRANCH   1  22
ATOM     21  C   UNL     1       6.682   4.297  14.668  0.00  0.00    +0.000 C 
ATOM     22  C   UNL     1       6.613   4.535  16.155  0.00  0.00    +0.000 C 
ATOM     23  O   UNL     1       7.642   4.628  16.827  0.00  0.00    +0.000 OA
ENDBRANCH   1  22
BRANCH   6  24
ATOM     24  O   UNL     1       5.129   7.027  16.044  0.00  0.00    +0.000 OA
ATOM     25  H   UNL     1       5.273   7.808  16.594  0.00  0.00    +0.000 HD
ENDBRANCH   6  24
TORSDOF 5
ENDMDL
