MODEL 1
REMARK VINA RESULT:      -7.0      0.000      0.000
REMARK  Name = 
REMARK  7 active torsions:
REMARK  status: ('A' for Active; 'I' for Inactive)
REMARK    1  A    between atoms: C_1  and  O_2
REMARK    2  A    between atoms: O_2  and  C_3
REMARK    3  A    between atoms: C_5  and  C_6
REMARK    4  A    between atoms: N_8  and  C_9
REMARK    5  A    between atoms: N_12  and  C_13
REMARK    6  A    between atoms: C_18  and  C_19
REMARK    7  A    between atoms: C_23  and  C_24
REMARK                            x       y       z     vdW  Elec       q    Type
REMARK                         _______ _______ _______ _____ _____    ______ ____
ROOT
ATOM      1  C   UNL     1      -0.140  10.955  20.645  0.00  0.00    +0.000 A 
ATOM      2  C   UNL     1       0.555   9.870  20.080  0.00  0.00    +0.000 A 
ATOM      3  C   UNL     1       1.039   8.829  20.879  0.00  0.00    +0.000 A 
ATOM      4  C   UNL     1       0.908   8.913  22.263  0.00  0.00    +0.000 A 
ATOM      5  C   UNL     1       0.234   9.997  22.833  0.00  0.00    +0.000 A 
ATOM      6  C   UNL     1      -0.348  11.021  22.051  0.00  0.00    +0.000 A 
ENDROOT
BRANCH   6   7
ATOM      7  C   UNL     1      -1.176  12.070  22.723  0.00  0.00    +0.000 A 
ATOM      8  C   UNL     1      -0.808  13.419  22.757  0.00  0.00    +0.000 A 
ATOM      9  C   UNL     1      -1.667  14.352  23.321  0.00  0.00    +0.000 A 
ATOM     10  N   UNL     1      -2.856  14.048  23.876  0.00  0.00    +0.000 NA
ATOM     11  C   UNL     1      -3.214  12.747  23.873  0.00  0.00    +0.000 A 
ATOM     12  C   UNL     1      -4.565  12.405  24.428  0.00  0.00    +0.000 C 
ATOM     13  C   UNL     1      -2.406  11.748  23.327  0.00  0.00    +0.000 A 
ENDBRANCH   6   7
BRANCH   3  14
ATOM     14  C   UNL     1       1.671   7.655  20.212  0.00  0.00    +0.000 C 
ATOM     15  O   UNL     1       2.312   7.799  19.179  0.00  0.00    +0.000 OA
ATOM     16  N   UNL     1       1.446   6.424  20.798  0.00  0.00    +0.000 N 
ATOM     17  H   UNL     1       0.692   6.356  21.469  0.00  0.00    +0.000 HD
BRANCH  16  18
ATOM     18  C   UNL     1       1.900   5.193  20.160  0.00  0.00    +0.000 C 
ATOM     19  C   UNL     1       0.874   4.068  20.292  0.00  0.00    +0.000 C 
ATOM     20  C   UNL     1       1.669   2.766  20.368  0.00  0.00    +0.000 C 
ATOM     21  N   UNL     1       3.091   3.156  20.432  0.00  0.00    +0.000 N 
ATOM     22  C   UNL     1       3.170   4.595  20.776  0.00  0.00    +0.000 C 
BRANCH  21  23
ATOM     23  C   UNL     1       4.135   2.346  20.217  0.00  0.00    +0.000 C 
ATOM     24  N   UNL     1       5.029   1.638  20.044  0.00  0.00    +0.000 NA
ENDBRANCH  21  23
ENDBRANCH  16  18
ENDBRANCH   3  14
BRANCH   1  26
ATOM     25  C   UNL     1      -1.621  11.500  18.845  0.00  0.00    +0.000 C 
ATOM     26  O   UNL     1      -0.721  11.928  19.865  0.00  0.00    +0.000 OA
ENDBRANCH   1  26
TORSDOF 5
ENDMDL
MODEL 2
REMARK VINA RESULT:      -6.9      2.506      9.617
REMARK  Name = 
REMARK  7 active torsions:
REMARK  status: ('A' for Active; 'I' for Inactive)
REMARK    1  A    between atoms: C_1  and  O_2
REMARK    2  A    between atoms: O_2  and  C_3
REMARK    3  A    between atoms: C_5  and  C_6
REMARK    4  A    between atoms: N_8  and  C_9
REMARK    5  A    between atoms: N_12  and  C_13
REMARK    6  A    between atoms: C_18  and  C_19
REMARK    7  A    between atoms: C_23  and  C_24
REMARK                            x       y       z     vdW  Elec       q    Type
REMARK                         _______ _______ _______ _____ _____    ______ ____
ROOT
ATOM      1  C   UNL     1       2.301   7.088  19.735  0.00  0.00    +0.000 A 
ATOM      2  C   UNL     1       1.470   8.183  20.032  0.00  0.00    +0.000 A 
ATOM      3  C   UNL     1       1.256   9.200  19.095  0.00  0.00    +0.000 A 
ATOM      4  C   UNL     1       1.947   9.172  17.887  0.00  0.00    +0.000 A 
ATOM      5  C   UNL     1       2.789   8.095  17.593  0.00  0.00    +0.000 A 
ATOM      6  C   UNL     1       2.959   7.005  18.476  0.00  0.00    +0.000 A 
ENDROOT
BRANCH   6   7
ATOM      7  C   UNL     1       3.761   5.824  18.031  0.00  0.00    +0.000 A 
ATOM      8  C   UNL     1       3.181   4.685  17.463  0.00  0.00    +0.000 A 
ATOM      9  C   UNL     1       3.993   3.662  16.991  0.00  0.00    +0.000 A 
ATOM     10  N   UNL     1       5.338   3.671  17.061  0.00  0.00    +0.000 NA
ATOM     11  C   UNL     1       5.912   4.752  17.630  0.00  0.00    +0.000 A 
ATOM     12  C   UNL     1       7.411   4.803  17.652  0.00  0.00    +0.000 C 
ATOM     13  C   UNL     1       5.166   5.821  18.129  0.00  0.00    +0.000 A 
ENDBRANCH   6   7
BRANCH   3  14
ATOM     14  C   UNL     1       0.280  10.277  19.426  0.00  0.00    +0.000 C 
ATOM     15  O   UNL     1      -0.363  10.825  18.539  0.00  0.00    +0.000 OA
ATOM     16  N   UNL     1       0.191  10.636  20.758  0.00  0.00    +0.000 N 
ATOM     17  H   UNL     1       0.939  10.341  21.372  0.00  0.00    +0.000 HD
BRANCH  16  18
ATOM     18  C   UNL     1      -0.629  11.766  21.180  0.00  0.00    +0.000 C 
ATOM     19  C   UNL     1       0.205  13.029  21.393  0.00  0.00    +0.000 C 
ATOM     20  C   UNL     1      -0.476  13.811  22.515  0.00  0.00    +0.000 C 
ATOM     21  N   UNL     1      -1.560  12.946  23.018  0.00  0.00    +0.000 N 
ATOM     22  C   UNL     1      -1.331  11.567  22.528  0.00  0.00    +0.000 C 
BRANCH  21  23
ATOM     23  C   UNL     1      -2.581  13.341  23.790  0.00  0.00    +0.000 C 
ATOM     24  N   UNL     1      -3.469  13.684  24.441  0.00  0.00    +0.000 NA
ENDBRANCH  21  23
ENDBRANCH  16  18
ENDBRANCH   3  14
BRANCH   1  26
ATOM     25  C   UNL     1       1.382   5.061  20.616  0.00  0.00    +0.000 C 
ATOM     26  O   UNL     1       2.433   6.024  20.598  0.00  0.00    +0.000 OA
ENDBRANCH   1  26
TORSDOF 5
ENDMDL
MODEL 3
REMARK VINA RESULT:      -6.8      0.359      1.363
REMARK  Name = 
REMARK  7 active torsions:
REMARK  status: ('A' for Active; 'I' for Inactive)
REMARK    1  A    between atoms: C_1  and  O_2
REMARK    2  A    between atoms: O_2  and  C_3
REMARK    3  A    between atoms: C_5  and  C_6
REMARK    4  A    between atoms: N_8  and  C_9
REMARK    5  A    between atoms: N_12  and  C_13
REMARK    6  A    between atoms: C_18  and  C_19
REMARK    7  A    between atoms: C_23  and  C_24
REMARK                            x       y       z     vdW  Elec       q    Type
REMARK                         _______ _______ _______ _____ _____    ______ ____
ROOT
ATOM      1  C   UNL     1      -0.071  10.995  20.630  0.00  0.00    +0.000 A 
ATOM      2  C   UNL     1       0.629   9.909  20.075  0.00  0.00    +0.000 A 
ATOM      3  C   UNL     1       1.029   8.829  20.869  0.00  0.00    +0.000 A 
ATOM      4  C   UNL     1       0.810   8.872  22.243  0.00  0.00    +0.000 A 
ATOM      5  C   UNL     1       0.131   9.958  22.804  0.00  0.00    +0.000 A 
ATOM      6  C   UNL     1      -0.369  11.024  22.020  0.00  0.00    +0.000 A 
ENDROOT
BRANCH   6   7
ATOM      7  C   UNL     1      -1.209  12.076  22.672  0.00  0.00    +0.000 A 
ATOM      8  C   UNL     1      -2.515  11.836  23.113  0.00  0.00    +0.000 A 
ATOM      9  C   UNL     1      -3.206  12.833  23.788  0.00  0.00    +0.000 A 
ATOM     10  N   UNL     1      -2.710  14.060  24.040  0.00  0.00    +0.000 NA
ATOM     11  C   UNL     1      -1.461  14.315  23.598  0.00  0.00    +0.000 A 
ATOM     12  C   UNL     1      -0.875  15.655  23.932  0.00  0.00    +0.000 C 
ATOM     13  C   UNL     1      -0.701  13.368  22.910  0.00  0.00    +0.000 A 
ENDBRANCH   6   7
BRANCH   3  14
ATOM     14  C   UNL     1       1.670   7.658  20.205  0.00  0.00    +0.000 C 
ATOM     15  O   UNL     1       2.290   7.800  19.159  0.00  0.00    +0.000 OA
ATOM     16  N   UNL     1       1.479   6.430  20.810  0.00  0.00    +0.000 N 
ATOM     17  H   UNL     1       0.738   6.358  21.496  0.00  0.00    +0.000 HD
BRANCH  16  18
ATOM     18  C   UNL     1       1.943   5.199  20.180  0.00  0.00    +0.000 C 
ATOM     19  C   UNL     1       0.892   4.092  20.244  0.00  0.00    +0.000 C 
ATOM     20  C   UNL     1       1.659   2.775  20.342  0.00  0.00    +0.000 C 
ATOM     21  N   UNL     1       3.082   3.138  20.486  0.00  0.00    +0.000 N 
ATOM     22  C   UNL     1       3.169   4.570  20.853  0.00  0.00    +0.000 C 
BRANCH  21  23
ATOM     23  C   UNL     1       4.121   2.311  20.314  0.00  0.00    +0.000 C 
ATOM     24  N   UNL     1       5.022   1.603  20.181  0.00  0.00    +0.000 NA
ENDBRANCH  21  23
ENDBRANCH  16  18
ENDBRANCH   3  14
BRANCH   1  26
ATOM     25  C   UNL     1      -1.336  11.638  18.702  0.00  0.00    +0.000 C 
ATOM     26  O   UNL     1      -0.572  12.010  19.847  0.00  0.00    +0.000 OA
ENDBRANCH   1  26
TORSDOF 5
ENDMDL
MODEL 4
REMARK VINA RESULT:      -6.7      3.710      4.644
REMARK  Name = 
REMARK  7 active torsions:
REMARK  status: ('A' for Active; 'I' for Inactive)
REMARK    1  A    between atoms: C_1  and  O_2
REMARK    2  A    between atoms: O_2  and  C_3
REMARK    3  A    between atoms: C_5  and  C_6
REMARK    4  A    between atoms: N_8  and  C_9
REMARK    5  A    between atoms: N_12  and  C_13
REMARK    6  A    between atoms: C_18  and  C_19
REMARK    7  A    between atoms: C_23  and  C_24
REMARK                            x       y       z     vdW  Elec       q    Type
REMARK                         _______ _______ _______ _____ _____    ______ ____
ROOT
ATOM      1  C   UNL     1       1.515   9.123  19.113  0.00  0.00    +0.000 A 
ATOM      2  C   UNL     1       2.118   8.114  18.340  0.00  0.00    +0.000 A 
ATOM      3  C   UNL     1       2.359   6.844  18.873  0.00  0.00    +0.000 A 
ATOM      4  C   UNL     1       2.081   6.604  20.216  0.00  0.00    +0.000 A 
ATOM      5  C   UNL     1       1.498   7.608  20.996  0.00  0.00    +0.000 A 
ATOM      6  C   UNL     1       1.157   8.873  20.466  0.00  0.00    +0.000 A 
ENDROOT
BRANCH   6   7
ATOM      7  C   UNL     1       0.406   9.843  21.322  0.00  0.00    +0.000 A 
ATOM      8  C   UNL     1      -0.381   9.444  22.408  0.00  0.00    +0.000 A 
ATOM      9  C   UNL     1      -0.979  10.404  23.213  0.00  0.00    +0.000 A 
ATOM     10  N   UNL     1      -0.877  11.732  23.011  0.00  0.00    +0.000 NA
ATOM     11  C   UNL     1      -0.142  12.132  21.952  0.00  0.00    +0.000 A 
ATOM     12  C   UNL     1       0.034  13.609  21.757  0.00  0.00    +0.000 C 
ATOM     13  C   UNL     1       0.490  11.231  21.094  0.00  0.00    +0.000 A 
ENDBRANCH   6   7
BRANCH   3  14
ATOM     14  C   UNL     1       2.899   5.786  17.974  0.00  0.00    +0.000 C 
ATOM     15  O   UNL     1       2.302   4.726  17.833  0.00  0.00    +0.000 OA
ATOM     16  N   UNL     1       4.111   6.057  17.366  0.00  0.00    +0.000 N 
ATOM     17  H   UNL     1       4.664   6.815  17.746  0.00  0.00    +0.000 HD
BRANCH  16  18
ATOM     18  C   UNL     1       4.800   5.044  16.575  0.00  0.00    +0.000 C 
ATOM     19  C   UNL     1       6.135   4.641  17.199  0.00  0.00    +0.000 C 
ATOM     20  C   UNL     1       7.064   4.289  16.038  0.00  0.00    +0.000 C 
ATOM     21  N   UNL     1       6.329   4.631  14.805  0.00  0.00    +0.000 N 
ATOM     22  C   UNL     1       5.186   5.502  15.163  0.00  0.00    +0.000 C 
BRANCH  21  23
ATOM     23  C   UNL     1       6.642   4.223  13.569  0.00  0.00    +0.000 C 
ATOM     24  N   UNL     1       6.924   3.882  12.504  0.00  0.00    +0.000 NA
ENDBRANCH  21  23
ENDBRANCH  16  18
ENDBRANCH   3  14
BRANCH   1  26
ATOM     25  C   UNL     1       2.211  11.125  18.000  0.00  0.00    +0.000 C 
ATOM     26  O   UNL     1       1.168  10.339  18.572  0.00  0.00    +0.000 OA
ENDBRANCH   1  26
TORSDOF 5
ENDMDL
MODEL 5
REMARK VINA RESULT:      -6.6      2.507      9.574
REMARK  Name = 
REMARK  7 active torsions:
REMARK  status: ('A' for Active; 'I' for Inactive)
REMARK    1  A    between atoms: C_1  and  O_2
REMARK    2  A    between atoms: O_2  and  C_3
REMARK    3  A    between atoms: C_5  and  C_6
REMARK    4  A    between atoms: N_8  and  C_9
REMARK    5  A    between atoms: N_12  and  C_13
REMARK    6  A    between atoms: C_18  and  C_19
REMARK    7  A    between atoms: C_23  and  C_24
REMARK                            x       y       z     vdW  Elec       q    Type
REMARK                         _______ _______ _______ _____ _____    ______ ____
ROOT
ATOM      1  C   UNL     1       2.245   7.228  19.726  0.00  0.00    +0.000 A 
ATOM      2  C   UNL     1       1.442   8.295  20.168  0.00  0.00    +0.000 A 
ATOM      3  C   UNL     1       1.076   9.329  19.300  0.00  0.00    +0.000 A 
ATOM      4  C   UNL     1       1.588   9.348  18.006  0.00  0.00    +0.000 A 
ATOM      5  C   UNL     1       2.403   8.300  17.565  0.00  0.00    +0.000 A 
ATOM      6  C   UNL     1       2.719   7.193  18.385  0.00  0.00    +0.000 A 
ENDROOT
BRANCH   6   7
ATOM      7  C   UNL     1       3.475   6.043  17.798  0.00  0.00    +0.000 A 
ATOM      8  C   UNL     1       4.774   6.169  17.294  0.00  0.00    +0.000 A 
ATOM      9  C   UNL     1       5.449   5.043  16.844  0.00  0.00    +0.000 A 
ATOM     10  N   UNL     1       4.926   3.801  16.835  0.00  0.00    +0.000 NA
ATOM     11  C   UNL     1       3.664   3.668  17.295  0.00  0.00    +0.000 A 
ATOM     12  C   UNL     1       3.097   2.280  17.351  0.00  0.00    +0.000 C 
ATOM     13  C   UNL     1       2.918   4.750  17.763  0.00  0.00    +0.000 A 
ENDBRANCH   6   7
BRANCH   3  14
ATOM     14  C   UNL     1       0.134  10.373  19.795  0.00  0.00    +0.000 C 
ATOM     15  O   UNL     1      -1.028  10.396  19.407  0.00  0.00    +0.000 OA
ATOM     16  N   UNL     1       0.661  11.314  20.659  0.00  0.00    +0.000 N 
ATOM     17  H   UNL     1       1.669  11.392  20.706  0.00  0.00    +0.000 HD
BRANCH  16  18
ATOM     18  C   UNL     1      -0.129  12.458  21.100  0.00  0.00    +0.000 C 
ATOM     19  C   UNL     1       0.714  13.728  21.207  0.00  0.00    +0.000 C 
ATOM     20  C   UNL     1       0.114  14.548  22.348  0.00  0.00    +0.000 C 
ATOM     21  N   UNL     1      -0.929  13.701  22.959  0.00  0.00    +0.000 N 
ATOM     22  C   UNL     1      -0.731  12.306  22.502  0.00  0.00    +0.000 C 
BRANCH  21  23
ATOM     23  C   UNL     1      -1.892  14.121  23.788  0.00  0.00    +0.000 C 
ATOM     24  N   UNL     1      -2.710  14.486  24.514  0.00  0.00    +0.000 NA
ENDBRANCH  21  23
ENDBRANCH  16  18
ENDBRANCH   3  14
BRANCH   1  26
ATOM     25  C   UNL     1       1.458   5.229  20.781  0.00  0.00    +0.000 C 
ATOM     26  O   UNL     1       2.520   6.147  20.531  0.00  0.00    +0.000 OA
ENDBRANCH   1  26
TORSDOF 5
ENDMDL
MODEL 6
REMARK VINA RESULT:      -6.6      3.586     10.041
REMARK  Name = 
REMARK  7 active torsions:
REMARK  status: ('A' for Active; 'I' for Inactive)
REMARK    1  A    between atoms: C_1  and  O_2
REMARK    2  A    between atoms: O_2  and  C_3
REMARK    3  A    between atoms: C_5  and  C_6
REMARK    4  A    between atoms: N_8  and  C_9
REMARK    5  A    between atoms: N_12  and  C_13
REMARK    6  A    between atoms: C_18  and  C_19
REMARK    7  A    between atoms: C_23  and  C_24
REMARK                            x       y       z     vdW  Elec       q    Type
REMARK                         _______ _______ _______ _____ _____    ______ ____
ROOT
ATOM      1  C   UNL     1       3.648   6.133  19.142  0.00  0.00    +0.000 A 
ATOM      2  C   UNL     1       2.591   6.868  19.709  0.00  0.00    +0.000 A 
ATOM      3  C   UNL     1       2.106   8.026  19.091  0.00  0.00    +0.000 A 
ATOM      4  C   UNL     1       2.738   8.506  17.948  0.00  0.00    +0.000 A 
ATOM      5  C   UNL     1       3.802   7.791  17.389  0.00  0.00    +0.000 A 
ATOM      6  C   UNL     1       4.260   6.569  17.934  0.00  0.00    +0.000 A 
ENDROOT
BRANCH   6   7
ATOM      7  C   UNL     1       5.304   5.789  17.200  0.00  0.00    +0.000 A 
ATOM      8  C   UNL     1       6.523   5.422  17.780  0.00  0.00    +0.000 A 
ATOM      9  C   UNL     1       7.409   4.623  17.070  0.00  0.00    +0.000 A 
ATOM     10  N   UNL     1       7.190   4.178  15.818  0.00  0.00    +0.000 NA
ATOM     11  C   UNL     1       6.030   4.545  15.235  0.00  0.00    +0.000 A 
ATOM     12  C   UNL     1       5.746   4.000  13.866  0.00  0.00    +0.000 C 
ATOM     13  C   UNL     1       5.087   5.347  15.880  0.00  0.00    +0.000 A 
ENDBRANCH   6   7
BRANCH   3  14
ATOM     14  C   UNL     1       0.914   8.699  19.680  0.00  0.00    +0.000 C 
ATOM     15  O   UNL     1       0.525   8.403  20.803  0.00  0.00    +0.000 OA
ATOM     16  N   UNL     1       0.269   9.619  18.874  0.00  0.00    +0.000 N 
ATOM     17  H   UNL     1       0.478   9.599  17.884  0.00  0.00    +0.000 HD
BRANCH  16  18
ATOM     18  C   UNL     1      -0.983  10.238  19.292  0.00  0.00    +0.000 C 
ATOM     19  C   UNL     1      -1.949  10.421  18.122  0.00  0.00    +0.000 C 
ATOM     20  C   UNL     1      -2.753  11.686  18.421  0.00  0.00    +0.000 C 
ATOM     21  N   UNL     1      -2.155  12.276  19.634  0.00  0.00    +0.000 N 
ATOM     22  C   UNL     1      -0.828  11.656  19.856  0.00  0.00    +0.000 C 
BRANCH  21  23
ATOM     23  C   UNL     1      -2.717  13.214  20.406  0.00  0.00    +0.000 C 
ATOM     24  N   UNL     1      -3.187  14.024  21.080  0.00  0.00    +0.000 NA
ENDBRANCH  21  23
ENDBRANCH  16  18
ENDBRANCH   3  14
BRANCH   1  26
ATOM     25  C   UNL     1       3.150   3.839  19.608  0.00  0.00    +0.000 C 
ATOM     26  O   UNL     1       4.062   4.933  19.673  0.00  0.00    +0.000 OA
ENDBRANCH   1  26
TORSDOF 5
ENDMDL
MODEL 7
REMARK VINA RESULT:      -6.6      3.144      9.968
REMARK  Name = 
REMARK  7 active torsions:
REMARK  status: ('A' for Active; 'I' for Inactive)
REMARK    1  A    between atoms: C_1  and  O_2
REMARK    2  A    between atoms: O_2  and  C_3
REMARK    3  A    between atoms: C_5  and  C_6
REMARK    4  A    between atoms: N_8  and  C_9
REMARK    5  A    between atoms: N_12  and  C_13
REMARK    6  A    between atoms: C_18  and  C_19
REMARK    7  A    between atoms: C_23  and  C_24
REMARK                            x       y       z     vdW  Elec       q    Type
REMARK                         _______ _______ _______ _____ _____    ______ ____
ROOT
ATOM      1  C   UNL     1       2.424   6.950  19.640  0.00  0.00    +0.000 A 
ATOM      2  C   UNL     1       1.643   8.024  20.105  0.00  0.00    +0.000 A 
ATOM      3  C   UNL     1       1.361   9.119  19.283  0.00  0.00    +0.000 A 
ATOM      4  C   UNL     1       1.936   9.189  18.017  0.00  0.00    +0.000 A 
ATOM      5  C   UNL     1       2.729   8.134  17.554  0.00  0.00    +0.000 A 
ATOM      6  C   UNL     1       2.961   6.970  18.323  0.00  0.00    +0.000 A 
ENDROOT
BRANCH   6   7
ATOM      7  C   UNL     1       3.697   5.824  17.705  0.00  0.00    +0.000 A 
ATOM      8  C   UNL     1       3.136   4.550  17.565  0.00  0.00    +0.000 A 
ATOM      9  C   UNL     1       3.844   3.556  16.903  0.00  0.00    +0.000 A 
ATOM     10  N   UNL     1       5.078   3.721  16.389  0.00  0.00    +0.000 NA
ATOM     11  C   UNL     1       5.643   4.937  16.539  0.00  0.00    +0.000 A 
ATOM     12  C   UNL     1       6.989   5.150  15.912  0.00  0.00    +0.000 C 
ATOM     13  C   UNL     1       4.999   5.988  17.193  0.00  0.00    +0.000 A 
ENDBRANCH   6   7
BRANCH   3  14
ATOM     14  C   UNL     1       0.439  10.173  19.793  0.00  0.00    +0.000 C 
ATOM     15  O   UNL     1      -0.613   9.866  20.340  0.00  0.00    +0.000 OA
ATOM     16  N   UNL     1       0.820  11.483  19.569  0.00  0.00    +0.000 N 
ATOM     17  H   UNL     1       1.542  11.647  18.879  0.00  0.00    +0.000 HD
BRANCH  16  18
ATOM     18  C   UNL     1      -0.065  12.592  19.902  0.00  0.00    +0.000 C 
ATOM     19  C   UNL     1      -0.228  13.565  18.734  0.00  0.00    +0.000 C 
ATOM     20  C   UNL     1      -0.424  14.949  19.351  0.00  0.00    +0.000 C 
ATOM     21  N   UNL     1      -0.223  14.784  20.804  0.00  0.00    +0.000 N 
ATOM     22  C   UNL     1       0.442  13.483  21.043  0.00  0.00    +0.000 C 
BRANCH  21  23
ATOM     23  C   UNL     1      -0.581  15.664  21.747  0.00  0.00    +0.000 C 
ATOM     24  N   UNL     1      -0.905  16.419  22.557  0.00  0.00    +0.000 NA
ENDBRANCH  21  23
ENDBRANCH  16  18
ENDBRANCH   3  14
BRANCH   1  26
ATOM     25  C   UNL     1       1.467   5.027  20.697  0.00  0.00    +0.000 C 
ATOM     26  O   UNL     1       2.616   5.815  20.393  0.00  0.00    +0.000 OA
ENDBRANCH   1  26
TORSDOF 5
ENDMDL
MODEL 8
REMARK VINA RESULT:      -6.6      1.456      1.563
REMARK  Name = 
REMARK  7 active torsions:
REMARK  status: ('A' for Active; 'I' for Inactive)
REMARK    1  A    between atoms: C_1  and  O_2
REMARK    2  A    between atoms: O_2  and  C_3
REMARK    3  A    between atoms: C_5  and  C_6
REMARK    4  A    between atoms: N_8  and  C_9
REMARK    5  A    between atoms: N_12  and  C_13
REMARK    6  A    between atoms: C_18  and  C_19
REMARK    7  A    between atoms: C_23  and  C_24
REMARK                            x       y       z     vdW  Elec       q    Type
REMARK                         _______ _______ _______ _____ _____    ______ ____
ROOT
ATOM      1  C   UNL     1      -0.210  11.746  21.004  0.00  0.00    +0.000 A 
ATOM      2  C   UNL     1       0.512  10.777  20.284  0.00  0.00    +0.000 A 
ATOM      3  C   UNL     1       0.743   9.506  20.818  0.00  0.00    +0.000 A 
ATOM      4  C   UNL     1       0.331   9.226  22.118  0.00  0.00    +0.000 A 
ATOM      5  C   UNL     1      -0.371  10.191  22.848  0.00  0.00    +0.000 A 
ATOM      6  C   UNL     1      -0.702  11.454  22.306  0.00  0.00    +0.000 A 
ENDROOT
BRANCH   6   7
ATOM      7  C   UNL     1      -1.578  12.377  23.093  0.00  0.00    +0.000 A 
ATOM      8  C   UNL     1      -1.178  13.664  23.469  0.00  0.00    +0.000 A 
ATOM      9  C   UNL     1      -2.074  14.499  24.122  0.00  0.00    +0.000 A 
ATOM     10  N   UNL     1      -3.333  14.149  24.452  0.00  0.00    +0.000 NA
ATOM     11  C   UNL     1      -3.725  12.901  24.118  0.00  0.00    +0.000 A 
ATOM     12  C   UNL     1      -5.145  12.524  24.421  0.00  0.00    +0.000 C 
ATOM     13  C   UNL     1      -2.884  12.001  23.462  0.00  0.00    +0.000 A 
ENDBRANCH   6   7
BRANCH   3  14
ATOM     14  C   UNL     1       1.418   8.487  19.964  0.00  0.00    +0.000 C 
ATOM     15  O   UNL     1       1.652   8.722  18.785  0.00  0.00    +0.000 OA
ATOM     16  N   UNL     1       1.707   7.277  20.566  0.00  0.00    +0.000 N 
ATOM     17  H   UNL     1       1.238   7.066  21.438  0.00  0.00    +0.000 HD
BRANCH  16  18
ATOM     18  C   UNL     1       2.242   6.161  19.795  0.00  0.00    +0.000 C 
ATOM     19  C   UNL     1       2.107   4.834  20.540  0.00  0.00    +0.000 C 
ATOM     20  C   UNL     1       3.303   3.981  20.120  0.00  0.00    +0.000 C 
ATOM     21  N   UNL     1       4.159   4.853  19.293  0.00  0.00    +0.000 N 
ATOM     22  C   UNL     1       3.744   6.258  19.503  0.00  0.00    +0.000 C 
BRANCH  21  23
ATOM     23  C   UNL     1       5.147   4.442  18.488  0.00  0.00    +0.000 C 
ATOM     24  N   UNL     1       5.986   4.084  17.782  0.00  0.00    +0.000 NA
ENDBRANCH  21  23
ENDBRANCH  16  18
ENDBRANCH   3  14
BRANCH   1  26
ATOM     25  C   UNL     1       0.523  13.834  20.091  0.00  0.00    +0.000 C 
ATOM     26  O   UNL     1      -0.545  12.960  20.450  0.00  0.00    +0.000 OA
ENDBRANCH   1  26
TORSDOF 5
ENDMDL
MODEL 9
REMARK VINA RESULT:      -6.5      2.375      2.638
REMARK  Name = 
REMARK  7 active torsions:
REMARK  status: ('A' for Active; 'I' for Inactive)
REMARK    1  A    between atoms: C_1  and  O_2
REMARK    2  A    between atoms: O_2  and  C_3
REMARK    3  A    between atoms: C_5  and  C_6
REMARK    4  A    between atoms: N_8  and  C_9
REMARK    5  A    between atoms: N_12  and  C_13
REMARK    6  A    between atoms: C_18  and  C_19
REMARK    7  A    between atoms: C_23  and  C_24
REMARK                            x       y       z     vdW  Elec       q    Type
REMARK                         _______ _______ _______ _____ _____    ______ ____
ROOT
ATOM      1  C   UNL     1       0.449  10.271  20.034  0.00  0.00    +0.000 A 
ATOM      2  C   UNL     1       1.053   9.081  19.592  0.00  0.00    +0.000 A 
ATOM      3  C   UNL     1       1.519   8.128  20.504  0.00  0.00    +0.000 A 
ATOM      4  C   UNL     1       1.465   8.403  21.867  0.00  0.00    +0.000 A 
ATOM      5  C   UNL     1       0.882   9.593  22.313  0.00  0.00    +0.000 A 
ATOM      6  C   UNL     1       0.318  10.538  21.425  0.00  0.00    +0.000 A 
ENDROOT
BRANCH   6   7
ATOM      7  C   UNL     1      -0.415  11.716  21.983  0.00  0.00    +0.000 A 
ATOM      8  C   UNL     1      -0.001  13.035  21.772  0.00  0.00    +0.000 A 
ATOM      9  C   UNL     1      -0.778  14.084  22.245  0.00  0.00    +0.000 A 
ATOM     10  N   UNL     1      -1.925  13.925  22.933  0.00  0.00    +0.000 NA
ATOM     11  C   UNL     1      -2.324  12.657  23.168  0.00  0.00    +0.000 A 
ATOM     12  C   UNL     1      -3.634  12.469  23.875  0.00  0.00    +0.000 C 
ATOM     13  C   UNL     1      -1.599  11.549  22.727  0.00  0.00    +0.000 A 
ENDBRANCH   6   7
BRANCH   3  14
ATOM     14  C   UNL     1       2.050   6.839  19.976  0.00  0.00    +0.000 C 
ATOM     15  O   UNL     1       1.717   5.775  20.484  0.00  0.00    +0.000 OA
ATOM     16  N   UNL     1       2.956   6.929  18.935  0.00  0.00    +0.000 N 
ATOM     17  H   UNL     1       3.384   7.831  18.766  0.00  0.00    +0.000 HD
BRANCH  16  18
ATOM     18  C   UNL     1       3.642   5.746  18.430  0.00  0.00    +0.000 C 
ATOM     19  C   UNL     1       4.804   5.329  19.332  0.00  0.00    +0.000 C 
ATOM     20  C   UNL     1       5.861   4.716  18.416  0.00  0.00    +0.000 C 
ATOM     21  N   UNL     1       5.380   4.921  17.036  0.00  0.00    +0.000 N 
ATOM     22  C   UNL     1       4.303   5.937  17.059  0.00  0.00    +0.000 C 
BRANCH  21  23
ATOM     23  C   UNL     1       5.840   4.295  15.946  0.00  0.00    +0.000 C 
ATOM     24  N   UNL     1       6.241   3.770  15.000  0.00  0.00    +0.000 NA
ENDBRANCH  21  23
ENDBRANCH  16  18
ENDBRANCH   3  14
BRANCH   1  26
ATOM     25  C   UNL     1      -1.322  10.771  18.502  0.00  0.00    +0.000 C 
ATOM     26  O   UNL     1      -0.117  11.166  19.155  0.00  0.00    +0.000 OA
ENDBRANCH   1  26
TORSDOF 5
ENDMDL
