MODEL 1
REMARK VINA RESULT:      -7.4      0.000      0.000
REMARK  Name = 
REMARK  2 active torsions:
REMARK  status: ('A' for Active; 'I' for Inactive)
REMARK    1  A    between atoms: C_1  and  N_2
REMARK    2  A    between atoms: C_9  and  C_10
REMARK                            x       y       z     vdW  Elec       q    Type
REMARK                         _______ _______ _______ _____ _____    ______ ____
ROOT
ATOM      1  C   UNL     1       1.837   5.631  20.571  0.00  0.00    +0.000 C 
ATOM      2  N   UNL     1       2.265   4.439  19.865  0.00  0.00    +0.000 N 
ATOM      3  C   UNL     1       1.804   3.200  20.290  0.00  0.00    +0.000 C 
ATOM      4  O   UNL     1       0.926   3.044  21.138  0.00  0.00    +0.000 OA
ATOM      5  C   UNL     1       2.554   2.013  19.701  0.00  0.00    +0.000 C 
ATOM      6  O   UNL     1       3.053   2.109  18.381  0.00  0.00    +0.000 OA
ATOM      7  C   UNL     1       3.513   3.359  18.067  0.00  0.00    +0.000 A 
ATOM      8  C   UNL     1       4.354   3.414  16.948  0.00  0.00    +0.000 A 
ATOM      9  C   UNL     1       4.863   4.631  16.464  0.00  0.00    +0.000 A 
ATOM     10  C   UNL     1       4.481   5.792  17.156  0.00  0.00    +0.000 A 
ATOM     11  C   UNL     1       3.646   5.739  18.286  0.00  0.00    +0.000 A 
ATOM     12  C   UNL     1       3.153   4.521  18.756  0.00  0.00    +0.000 A 
ENDROOT
BRANCH   9  13
ATOM     13  C   UNL     1       5.759   4.678  15.286  0.00  0.00    +0.000 A 
ATOM     14  C   UNL     1       5.475   3.987  14.098  0.00  0.00    +0.000 A 
ATOM     15  C   UNL     1       6.357   4.025  13.018  0.00  0.00    +0.000 A 
ATOM     16  C   UNL     1       7.512   4.774  13.140  0.00  0.00    +0.000 A 
ATOM     17  N   UNL     1       7.832   5.468  14.249  0.00  0.00    +0.000 NA
ATOM     18  C   UNL     1       6.958   5.397  15.284  0.00  0.00    +0.000 A 
ENDBRANCH   9  13
TORSDOF 1
ENDMDL
MODEL 2
REMARK VINA RESULT:      -7.0      3.423      4.363
REMARK  Name = 
REMARK  2 active torsions:
REMARK  status: ('A' for Active; 'I' for Inactive)
REMARK    1  A    between atoms: C_1  and  N_2
REMARK    2  A    between atoms: C_9  and  C_10
REMARK                            x       y       z     vdW  Elec       q    Type
REMARK                         _______ _______ _______ _____ _____    ______ ____
ROOT
ATOM      1  C   UNL     1       0.850   8.022  21.376  0.00  0.00    +0.000 C 
ATOM      2  N   UNL     1       1.249   8.505  20.069  0.00  0.00    +0.000 N 
ATOM      3  C   UNL     1       0.706   9.692  19.593  0.00  0.00    +0.000 C 
ATOM      4  O   UNL     1       0.018  10.456  20.269  0.00  0.00    +0.000 OA
ATOM      5  C   UNL     1       0.933   9.937  18.108  0.00  0.00    +0.000 C 
ATOM      6  O   UNL     1       2.137   9.484  17.518  0.00  0.00    +0.000 OA
ATOM      7  C   UNL     1       2.575   8.293  18.030  0.00  0.00    +0.000 A 
ATOM      8  C   UNL     1       3.514   7.620  17.239  0.00  0.00    +0.000 A 
ATOM      9  C   UNL     1       4.101   6.413  17.652  0.00  0.00    +0.000 A 
ATOM     10  C   UNL     1       3.703   5.916  18.905  0.00  0.00    +0.000 A 
ATOM     11  C   UNL     1       2.752   6.584  19.697  0.00  0.00    +0.000 A 
ATOM     12  C   UNL     1       2.175   7.780  19.268  0.00  0.00    +0.000 A 
ENDROOT
BRANCH   9  13
ATOM     13  C   UNL     1       5.086   5.704  16.804  0.00  0.00    +0.000 A 
ATOM     14  C   UNL     1       4.818   4.454  16.225  0.00  0.00    +0.000 A 
ATOM     15  C   UNL     1       5.782   3.797  15.460  0.00  0.00    +0.000 A 
ATOM     16  C   UNL     1       7.003   4.415  15.270  0.00  0.00    +0.000 A 
ATOM     17  N   UNL     1       7.313   5.619  15.789  0.00  0.00    +0.000 NA
ATOM     18  C   UNL     1       6.357   6.222  16.539  0.00  0.00    +0.000 A 
ENDBRANCH   9  13
TORSDOF 1
ENDMDL
MODEL 3
REMARK VINA RESULT:      -6.9      4.068      5.686
REMARK  Name = 
REMARK  2 active torsions:
REMARK  status: ('A' for Active; 'I' for Inactive)
REMARK    1  A    between atoms: C_1  and  N_2
REMARK    2  A    between atoms: C_9  and  C_10
REMARK                            x       y       z     vdW  Elec       q    Type
REMARK                         _______ _______ _______ _____ _____    ______ ____
ROOT
ATOM      1  C   UNL     1       0.025  11.740  19.383  0.00  0.00    +0.000 C 
ATOM      2  N   UNL     1       0.408  10.565  20.140  0.00  0.00    +0.000 N 
ATOM      3  C   UNL     1       0.023  10.463  21.471  0.00  0.00    +0.000 C 
ATOM      4  O   UNL     1      -0.760  11.235  22.024  0.00  0.00    +0.000 OA
ATOM      5  C   UNL     1       0.740   9.370  22.252  0.00  0.00    +0.000 C 
ATOM      6  O   UNL     1       1.100   8.178  21.581  0.00  0.00    +0.000 OA
ATOM      7  C   UNL     1       1.494   8.384  20.287  0.00  0.00    +0.000 A 
ATOM      8  C   UNL     1       2.216   7.329  19.715  0.00  0.00    +0.000 A 
ATOM      9  C   UNL     1       2.644   7.364  18.377  0.00  0.00    +0.000 A 
ATOM     10  C   UNL     1       2.304   8.510  17.638  0.00  0.00    +0.000 A 
ATOM     11  C   UNL     1       1.589   9.575  18.213  0.00  0.00    +0.000 A 
ATOM     12  C   UNL     1       1.177   9.526  19.546  0.00  0.00    +0.000 A 
ENDROOT
BRANCH   9  13
ATOM     13  C   UNL     1       3.414   6.248  17.784  0.00  0.00    +0.000 A 
ATOM     14  C   UNL     1       4.568   6.457  17.013  0.00  0.00    +0.000 A 
ATOM     15  C   UNL     1       5.251   5.384  16.439  0.00  0.00    +0.000 A 
ATOM     16  C   UNL     1       4.773   4.107  16.663  0.00  0.00    +0.000 A 
ATOM     17  N   UNL     1       3.681   3.843  17.403  0.00  0.00    +0.000 NA
ATOM     18  C   UNL     1       3.033   4.911  17.935  0.00  0.00    +0.000 A 
ENDBRANCH   9  13
TORSDOF 1
ENDMDL
MODEL 4
REMARK VINA RESULT:      -6.8      1.967      2.717
REMARK  Name = 
REMARK  2 active torsions:
REMARK  status: ('A' for Active; 'I' for Inactive)
REMARK    1  A    between atoms: C_1  and  N_2
REMARK    2  A    between atoms: C_9  and  C_10
REMARK                            x       y       z     vdW  Elec       q    Type
REMARK                         _______ _______ _______ _____ _____    ______ ____
ROOT
ATOM      1  C   UNL     1       2.201   4.678  20.683  0.00  0.00    +0.000 C 
ATOM      2  N   UNL     1       2.530   5.746  19.759  0.00  0.00    +0.000 N 
ATOM      3  C   UNL     1       2.058   7.028  20.013  0.00  0.00    +0.000 C 
ATOM      4  O   UNL     1       1.500   7.364  21.058  0.00  0.00    +0.000 OA
ATOM      5  C   UNL     1       2.180   7.988  18.838  0.00  0.00    +0.000 C 
ATOM      6  O   UNL     1       3.283   7.858  17.962  0.00  0.00    +0.000 OA
ATOM      7  C   UNL     1       3.654   6.557  17.750  0.00  0.00    +0.000 A 
ATOM      8  C   UNL     1       4.458   6.350  16.623  0.00  0.00    +0.000 A 
ATOM      9  C   UNL     1       4.967   5.081  16.300  0.00  0.00    +0.000 A 
ATOM     10  C   UNL     1       4.633   4.029  17.170  0.00  0.00    +0.000 A 
ATOM     11  C   UNL     1       3.816   4.233  18.296  0.00  0.00    +0.000 A 
ATOM     12  C   UNL     1       3.315   5.499  18.599  0.00  0.00    +0.000 A 
ENDROOT
BRANCH   9  13
ATOM     13  C   UNL     1       5.809   4.869  15.100  0.00  0.00    +0.000 A 
ATOM     14  C   UNL     1       5.432   4.008  14.060  0.00  0.00    +0.000 A 
ATOM     15  C   UNL     1       6.265   3.804  12.959  0.00  0.00    +0.000 A 
ATOM     16  C   UNL     1       7.465   4.487  12.910  0.00  0.00    +0.000 A 
ATOM     17  N   UNL     1       7.875   5.337  13.871  0.00  0.00    +0.000 NA
ATOM     18  C   UNL     1       7.046   5.499  14.933  0.00  0.00    +0.000 A 
ENDBRANCH   9  13
TORSDOF 1
ENDMDL
MODEL 5
REMARK VINA RESULT:      -6.8      1.342      2.159
REMARK  Name = 
REMARK  2 active torsions:
REMARK  status: ('A' for Active; 'I' for Inactive)
REMARK    1  A    between atoms: C_1  and  N_2
REMARK    2  A    between atoms: C_9  and  C_10
REMARK                            x       y       z     vdW  Elec       q    Type
REMARK                         _______ _______ _______ _____ _____    ______ ____
ROOT
ATOM      1  C   UNL     1       2.187   2.544  19.868  0.00  0.00    +0.000 C 
ATOM      2  N   UNL     1       2.642   3.843  19.413  0.00  0.00    +0.000 N 
ATOM      3  C   UNL     1       2.284   4.975  20.134  0.00  0.00    +0.000 C 
ATOM      4  O   UNL     1       1.727   4.947  21.231  0.00  0.00    +0.000 OA
ATOM      5  C   UNL     1       2.531   6.290  19.406  0.00  0.00    +0.000 C 
ATOM      6  O   UNL     1       3.645   6.390  18.539  0.00  0.00    +0.000 OA
ATOM      7  C   UNL     1       3.899   5.235  17.851  0.00  0.00    +0.000 A 
ATOM      8  C   UNL     1       4.716   5.388  16.723  0.00  0.00    +0.000 A 
ATOM      9  C   UNL     1       5.114   4.290  15.943  0.00  0.00    +0.000 A 
ATOM     10  C   UNL     1       4.657   3.027  16.355  0.00  0.00    +0.000 A 
ATOM     11  C   UNL     1       3.828   2.871  17.480  0.00  0.00    +0.000 A 
ATOM     12  C   UNL     1       3.438   3.974  18.241  0.00  0.00    +0.000 A 
ENDROOT
BRANCH   9  13
ATOM     13  C   UNL     1       5.971   4.463  14.748  0.00  0.00    +0.000 A 
ATOM     14  C   UNL     1       5.719   3.795  13.540  0.00  0.00    +0.000 A 
ATOM     15  C   UNL     1       6.566   3.954  12.442  0.00  0.00    +0.000 A 
ATOM     16  C   UNL     1       7.651   4.799  12.568  0.00  0.00    +0.000 A 
ATOM     17  N   UNL     1       7.937   5.476  13.696  0.00  0.00    +0.000 NA
ATOM     18  C   UNL     1       7.100   5.288  14.748  0.00  0.00    +0.000 A 
ENDBRANCH   9  13
TORSDOF 1
ENDMDL
MODEL 6
REMARK VINA RESULT:      -6.8      1.112      1.430
REMARK  Name = 
REMARK  2 active torsions:
REMARK  status: ('A' for Active; 'I' for Inactive)
REMARK    1  A    between atoms: C_1  and  N_2
REMARK    2  A    between atoms: C_9  and  C_10
REMARK                            x       y       z     vdW  Elec       q    Type
REMARK                         _______ _______ _______ _____ _____    ______ ____
ROOT
ATOM      1  C   UNL     1       2.514   6.190  20.021  0.00  0.00    +0.000 C 
ATOM      2  N   UNL     1       2.966   4.917  19.495  0.00  0.00    +0.000 N 
ATOM      3  C   UNL     1       2.649   3.751  20.181  0.00  0.00    +0.000 C 
ATOM      4  O   UNL     1       1.873   3.702  21.135  0.00  0.00    +0.000 OA
ATOM      5  C   UNL     1       3.431   2.524  19.734  0.00  0.00    +0.000 C 
ATOM      6  O   UNL     1       3.791   2.405  18.371  0.00  0.00    +0.000 OA
ATOM      7  C   UNL     1       4.116   3.601  17.791  0.00  0.00    +0.000 A 
ATOM      8  C   UNL     1       4.837   3.500  16.595  0.00  0.00    +0.000 A 
ATOM      9  C   UNL     1       5.198   4.635  15.850  0.00  0.00    +0.000 A 
ATOM     10  C   UNL     1       4.792   5.879  16.362  0.00  0.00    +0.000 A 
ATOM     11  C   UNL     1       4.078   5.984  17.568  0.00  0.00    +0.000 A 
ATOM     12  C   UNL     1       3.732   4.846  18.298  0.00  0.00    +0.000 A 
ENDROOT
BRANCH   9  13
ATOM     13  C   UNL     1       5.968   4.519  14.590  0.00  0.00    +0.000 A 
ATOM     14  C   UNL     1       7.111   5.291  14.335  0.00  0.00    +0.000 A 
ATOM     15  C   UNL     1       7.795   5.182  13.123  0.00  0.00    +0.000 A 
ATOM     16  C   UNL     1       7.328   4.280  12.186  0.00  0.00    +0.000 A 
ATOM     17  N   UNL     1       6.246   3.503  12.379  0.00  0.00    +0.000 NA
ATOM     18  C   UNL     1       5.598   3.645  13.563  0.00  0.00    +0.000 A 
ENDBRANCH   9  13
TORSDOF 1
ENDMDL
MODEL 7
REMARK VINA RESULT:      -6.8      3.084      6.788
REMARK  Name = 
REMARK  2 active torsions:
REMARK  status: ('A' for Active; 'I' for Inactive)
REMARK    1  A    between atoms: C_1  and  N_2
REMARK    2  A    between atoms: C_9  and  C_10
REMARK                            x       y       z     vdW  Elec       q    Type
REMARK                         _______ _______ _______ _____ _____    ______ ____
ROOT
ATOM      1  C   UNL     1       4.326   3.775  17.469  0.00  0.00    +0.000 C 
ATOM      2  N   UNL     1       3.597   3.846  18.720  0.00  0.00    +0.000 N 
ATOM      3  C   UNL     1       3.493   2.706  19.508  0.00  0.00    +0.000 C 
ATOM      4  O   UNL     1       4.111   1.663  19.297  0.00  0.00    +0.000 OA
ATOM      5  C   UNL     1       2.452   2.799  20.615  0.00  0.00    +0.000 C 
ATOM      6  O   UNL     1       2.229   4.049  21.239  0.00  0.00    +0.000 OA
ATOM      7  C   UNL     1       2.322   5.107  20.376  0.00  0.00    +0.000 A 
ATOM      8  C   UNL     1       1.741   6.295  20.836  0.00  0.00    +0.000 A 
ATOM      9  C   UNL     1       1.801   7.485  20.091  0.00  0.00    +0.000 A 
ATOM     10  C   UNL     1       2.480   7.425  18.863  0.00  0.00    +0.000 A 
ATOM     11  C   UNL     1       3.055   6.231  18.394  0.00  0.00    +0.000 A 
ATOM     12  C   UNL     1       2.981   5.057  19.144  0.00  0.00    +0.000 A 
ENDROOT
BRANCH   9  13
ATOM     13  C   UNL     1       1.176   8.735  20.582  0.00  0.00    +0.000 A 
ATOM     14  C   UNL     1       0.644   9.700  19.714  0.00  0.00    +0.000 A 
ATOM     15  C   UNL     1       0.093  10.883  20.207  0.00  0.00    +0.000 A 
ATOM     16  C   UNL     1       0.067  11.074  21.576  0.00  0.00    +0.000 A 
ATOM     17  N   UNL     1       0.549  10.178  22.459  0.00  0.00    +0.000 NA
ATOM     18  C   UNL     1       1.090   9.046  21.942  0.00  0.00    +0.000 A 
ENDBRANCH   9  13
TORSDOF 1
ENDMDL
MODEL 8
REMARK VINA RESULT:      -6.8      2.884      6.667
REMARK  Name = 
REMARK  2 active torsions:
REMARK  status: ('A' for Active; 'I' for Inactive)
REMARK    1  A    between atoms: C_1  and  N_2
REMARK    2  A    between atoms: C_9  and  C_10
REMARK                            x       y       z     vdW  Elec       q    Type
REMARK                         _______ _______ _______ _____ _____    ______ ____
ROOT
ATOM      1  C   UNL     1       4.257   3.632  17.047  0.00  0.00    +0.000 C 
ATOM      2  N   UNL     1       3.457   3.625  18.256  0.00  0.00    +0.000 N 
ATOM      3  C   UNL     1       3.218   2.417  18.900  0.00  0.00    +0.000 C 
ATOM      4  O   UNL     1       3.768   1.357  18.605  0.00  0.00    +0.000 OA
ATOM      5  C   UNL     1       2.118   2.472  19.952  0.00  0.00    +0.000 C 
ATOM      6  O   UNL     1       1.951   3.660  20.702  0.00  0.00    +0.000 OA
ATOM      7  C   UNL     1       2.177   4.796  19.973  0.00  0.00    +0.000 A 
ATOM      8  C   UNL     1       1.659   5.970  20.533  0.00  0.00    +0.000 A 
ATOM      9  C   UNL     1       1.856   7.225  19.935  0.00  0.00    +0.000 A 
ATOM     10  C   UNL     1       2.605   7.245  18.747  0.00  0.00    +0.000 A 
ATOM     11  C   UNL     1       3.117   6.067  18.176  0.00  0.00    +0.000 A 
ATOM     12  C   UNL     1       2.908   4.827  18.781  0.00  0.00    +0.000 A 
ENDROOT
BRANCH   9  13
ATOM     13  C   UNL     1       1.296   8.460  20.531  0.00  0.00    +0.000 A 
ATOM     14  C   UNL     1       0.975   8.558  21.893  0.00  0.00    +0.000 A 
ATOM     15  C   UNL     1       0.417   9.725  22.416  0.00  0.00    +0.000 A 
ATOM     16  C   UNL     1       0.203  10.790  21.562  0.00  0.00    +0.000 A 
ATOM     17  N   UNL     1       0.503  10.760  20.250  0.00  0.00    +0.000 NA
ATOM     18  C   UNL     1       1.031   9.605  19.773  0.00  0.00    +0.000 A 
ENDBRANCH   9  13
TORSDOF 1
ENDMDL
MODEL 9
REMARK VINA RESULT:      -6.7      4.047      5.340
REMARK  Name = 
REMARK  2 active torsions:
REMARK  status: ('A' for Active; 'I' for Inactive)
REMARK    1  A    between atoms: C_1  and  N_2
REMARK    2  A    between atoms: C_9  and  C_10
REMARK                            x       y       z     vdW  Elec       q    Type
REMARK                         _______ _______ _______ _____ _____    ______ ____
ROOT
ATOM      1  C   UNL     1       0.210   9.065  22.061  0.00  0.00    +0.000 C 
ATOM      2  N   UNL     1       0.583   9.472  20.721  0.00  0.00    +0.000 N 
ATOM      3  C   UNL     1       0.140  10.697  20.239  0.00  0.00    +0.000 C 
ATOM      4  O   UNL     1      -0.426  11.546  20.927  0.00  0.00    +0.000 OA
ATOM      5  C   UNL     1       0.307  10.881  18.736  0.00  0.00    +0.000 C 
ATOM      6  O   UNL     1       1.422  10.289  18.097  0.00  0.00    +0.000 OA
ATOM      7  C   UNL     1       1.762   9.071  18.621  0.00  0.00    +0.000 A 
ATOM      8  C   UNL     1       2.580   8.284  17.802  0.00  0.00    +0.000 A 
ATOM      9  C   UNL     1       3.061   7.032  18.219  0.00  0.00    +0.000 A 
ATOM     10  C   UNL     1       2.685   6.611  19.506  0.00  0.00    +0.000 A 
ATOM     11  C   UNL     1       1.854   7.394  20.327  0.00  0.00    +0.000 A 
ATOM     12  C   UNL     1       1.381   8.634  19.894  0.00  0.00    +0.000 A 
ENDROOT
BRANCH   9  13
ATOM     13  C   UNL     1       3.918   6.203  17.342  0.00  0.00    +0.000 A 
ATOM     14  C   UNL     1       3.865   4.801  17.347  0.00  0.00    +0.000 A 
ATOM     15  C   UNL     1       4.711   4.048  16.532  0.00  0.00    +0.000 A 
ATOM     16  C   UNL     1       5.593   4.718  15.706  0.00  0.00    +0.000 A 
ATOM     17  N   UNL     1       5.680   6.060  15.647  0.00  0.00    +0.000 NA
ATOM     18  C   UNL     1       4.852   6.760  16.463  0.00  0.00    +0.000 A 
ENDBRANCH   9  13
TORSDOF 1
ENDMDL
