MODEL 1
REMARK VINA RESULT:      -7.9      0.000      0.000
REMARK  Name = 
REMARK  8 active torsions:
REMARK  status: ('A' for Active; 'I' for Inactive)
REMARK    1  A    between atoms: C_1  and  C_2
REMARK    2  A    between atoms: C_2  and  O_3
REMARK    3  A    between atoms: O_3  and  C_4
REMARK    4  A    between atoms: C_4  and  C_6
REMARK    5  A    between atoms: C_9  and  N_10
REMARK    6  A    between atoms: C_11  and  C_13
REMARK    7  A    between atoms: C_16  and  C_17
REMARK    8  A    between atoms: N_19  and  C_20
REMARK                            x       y       z     vdW  Elec       q    Type
REMARK                         _______ _______ _______ _____ _____    ______ ____
ROOT
ATOM      1  C   UNL     1       1.963   7.721  19.179  0.00  0.00    +0.000 A 
ATOM      2  C   UNL     1       1.493   7.707  20.507  0.00  0.00    +0.000 A 
ATOM      3  C   UNL     1       1.072   8.986  20.825  0.00  0.00    +0.000 A 
ATOM      4  C   UNL     1       0.790   9.697  21.978  0.00  0.00    +0.000 A 
ATOM      5  C   UNL     1      -0.006   9.514  23.200  0.00  0.00    +0.000 C 
ATOM      6  N   UNL     1       1.155  10.957  21.726  0.00  0.00    +0.000 NA
ATOM      7  N   UNL     1       0.861  11.089  20.396  0.00  0.00    +0.000 N 
ATOM      8  C   UNL     1       1.085   9.870  19.811  0.00  0.00    +0.000 A 
ATOM      9  S   UNL     1       1.533   9.204  18.352  0.00  0.00    +0.000 S 
ENDROOT
BRANCH   7  10
ATOM     10  C   UNL     1       0.393  12.354  20.008  0.00  0.00    +0.000 A 
ATOM     11  C   UNL     1       1.350  13.182  19.368  0.00  0.00    +0.000 A 
ATOM     12  C   UNL     1       1.034  14.456  18.930  0.00  0.00    +0.000 A 
ATOM     13  C   UNL     1      -0.244  14.937  19.144  0.00  0.00    +0.000 A 
ATOM     14  C   UNL     1      -1.173  14.171  19.854  0.00  0.00    +0.000 A 
ATOM     15  C   UNL     1      -0.857  12.881  20.314  0.00  0.00    +0.000 A 
ATOM     16 CL   UNL     1      -1.980  12.156  21.405  0.00  0.00    +0.000 Cl
ENDBRANCH   7  10
BRANCH   1  18
ATOM     17  N   UNL     1       3.882   7.158  17.804  0.00  0.00    +0.000 N 
ATOM     18  C   UNL     1       2.823   6.706  18.594  0.00  0.00    +0.000 C 
ATOM     19  O   UNL     1       2.609   5.507  18.818  0.00  0.00    +0.000 OA
ATOM     20  H   UNL     1       4.001   8.160  17.734  0.00  0.00    +0.000 HD
BRANCH  17  24
ATOM     21  C   UNL     1       6.339   5.210  15.594  0.00  0.00    +0.000 A 
ATOM     22  C   UNL     1       6.598   4.845  16.902  0.00  0.00    +0.000 A 
ATOM     23  C   UNL     1       5.746   5.520  17.841  0.00  0.00    +0.000 A 
ATOM     24  C   UNL     1       4.846   6.357  17.213  0.00  0.00    +0.000 A 
ATOM     25  S   UNL     1       5.062   6.337  15.532  0.00  0.00    +0.000 S 
BRANCH  21  26
ATOM     26  C   UNL     1       7.064   4.825  14.397  0.00  0.00    +0.000 C 
ATOM     27  O   UNL     1       7.943   5.492  13.865  0.00  0.00    +0.000 OA
BRANCH  26  28
ATOM     28  O   UNL     1       6.541   3.678  13.872  0.00  0.00    +0.000 OA
BRANCH  28  30
ATOM     29  C   UNL     1       5.106   3.377  11.982  0.00  0.00    +0.000 C 
ATOM     30  C   UNL     1       6.538   3.576  12.446  0.00  0.00    +0.000 C 
ENDBRANCH  28  30
ENDBRANCH  26  28
ENDBRANCH  21  26
ENDBRANCH  17  24
ENDBRANCH   1  18
TORSDOF 6
ENDMDL
MODEL 2
REMARK VINA RESULT:      -7.7      1.078      1.408
REMARK  Name = 
REMARK  8 active torsions:
REMARK  status: ('A' for Active; 'I' for Inactive)
REMARK    1  A    between atoms: C_1  and  C_2
REMARK    2  A    between atoms: C_2  and  O_3
REMARK    3  A    between atoms: O_3  and  C_4
REMARK    4  A    between atoms: C_4  and  C_6
REMARK    5  A    between atoms: C_9  and  N_10
REMARK    6  A    between atoms: C_11  and  C_13
REMARK    7  A    between atoms: C_16  and  C_17
REMARK    8  A    between atoms: N_19  and  C_20
REMARK                            x       y       z     vdW  Elec       q    Type
REMARK                         _______ _______ _______ _____ _____    ______ ____
ROOT
ATOM      1  C   UNL     1       2.053   7.739  19.174  0.00  0.00    +0.000 A 
ATOM      2  C   UNL     1       1.534   7.681  20.483  0.00  0.00    +0.000 A 
ATOM      3  C   UNL     1       1.086   8.946  20.820  0.00  0.00    +0.000 A 
ATOM      4  C   UNL     1       0.752   9.621  21.981  0.00  0.00    +0.000 A 
ATOM      5  C   UNL     1      -0.087   9.394  23.167  0.00  0.00    +0.000 C 
ATOM      6  N   UNL     1       1.111  10.891  21.778  0.00  0.00    +0.000 NA
ATOM      7  N   UNL     1       0.865  11.058  20.443  0.00  0.00    +0.000 N 
ATOM      8  C   UNL     1       1.126   9.859  19.832  0.00  0.00    +0.000 A 
ATOM      9  S   UNL     1       1.636   9.239  18.373  0.00  0.00    +0.000 S 
ENDROOT
BRANCH   7  10
ATOM     10  C   UNL     1       0.396  12.328  20.073  0.00  0.00    +0.000 A 
ATOM     11  C   UNL     1      -0.896  12.660  20.555  0.00  0.00    +0.000 A 
ATOM     12  C   UNL     1      -1.489  13.876  20.271  0.00  0.00    +0.000 A 
ATOM     13  C   UNL     1      -0.809  14.781  19.478  0.00  0.00    +0.000 A 
ATOM     14  C   UNL     1       0.425  14.435  18.918  0.00  0.00    +0.000 A 
ATOM     15  C   UNL     1       1.029  13.197  19.191  0.00  0.00    +0.000 A 
ATOM     16 CL   UNL     1       2.401  12.781  18.230  0.00  0.00    +0.000 Cl
ENDBRANCH   7  10
BRANCH   1  18
ATOM     17  N   UNL     1       4.031   7.236  17.859  0.00  0.00    +0.000 N 
ATOM     18  C   UNL     1       2.947   6.750  18.594  0.00  0.00    +0.000 C 
ATOM     19  O   UNL     1       2.739   5.543  18.775  0.00  0.00    +0.000 OA
ATOM     20  H   UNL     1       4.141   8.241  17.823  0.00  0.00    +0.000 HD
BRANCH  17  24
ATOM     21  C   UNL     1       6.493   5.256  15.685  0.00  0.00    +0.000 A 
ATOM     22  C   UNL     1       6.910   5.114  16.996  0.00  0.00    +0.000 A 
ATOM     23  C   UNL     1       6.071   5.825  17.920  0.00  0.00    +0.000 A 
ATOM     24  C   UNL     1       5.026   6.463  17.283  0.00  0.00    +0.000 A 
ATOM     25  S   UNL     1       5.091   6.222  15.607  0.00  0.00    +0.000 S 
BRANCH  21  26
ATOM     26  C   UNL     1       7.149   4.778  14.481  0.00  0.00    +0.000 C 
ATOM     27  O   UNL     1       8.040   5.371  13.887  0.00  0.00    +0.000 OA
BRANCH  26  28
ATOM     28  O   UNL     1       6.544   3.640  14.029  0.00  0.00    +0.000 OA
BRANCH  28  30
ATOM     29  C   UNL     1       6.533   2.714  11.824  0.00  0.00    +0.000 C 
ATOM     30  C   UNL     1       5.896   3.728  12.758  0.00  0.00    +0.000 C 
ENDBRANCH  28  30
ENDBRANCH  26  28
ENDBRANCH  21  26
ENDBRANCH  17  24
ENDBRANCH   1  18
TORSDOF 6
ENDMDL
MODEL 3
REMARK VINA RESULT:      -7.6      1.725      2.245
REMARK  Name = 
REMARK  8 active torsions:
REMARK  status: ('A' for Active; 'I' for Inactive)
REMARK    1  A    between atoms: C_1  and  C_2
REMARK    2  A    between atoms: C_2  and  O_3
REMARK    3  A    between atoms: O_3  and  C_4
REMARK    4  A    between atoms: C_4  and  C_6
REMARK    5  A    between atoms: C_9  and  N_10
REMARK    6  A    between atoms: C_11  and  C_13
REMARK    7  A    between atoms: C_16  and  C_17
REMARK    8  A    between atoms: N_19  and  C_20
REMARK                            x       y       z     vdW  Elec       q    Type
REMARK                         _______ _______ _______ _____ _____    ______ ____
ROOT
ATOM      1  C   UNL     1       1.506   8.777  18.988  0.00  0.00    +0.000 A 
ATOM      2  C   UNL     1       1.230   8.438  20.327  0.00  0.00    +0.000 A 
ATOM      3  C   UNL     1       0.618   9.526  20.925  0.00  0.00    +0.000 A 
ATOM      4  C   UNL     1       0.362   9.955  22.215  0.00  0.00    +0.000 A 
ATOM      5  C   UNL     1      -0.214   9.403  23.450  0.00  0.00    +0.000 C 
ATOM      6  N   UNL     1       0.441  11.288  22.176  0.00  0.00    +0.000 NA
ATOM      7  N   UNL     1      -0.048  11.577  20.932  0.00  0.00    +0.000 N 
ATOM      8  C   UNL     1       0.325  10.551  20.104  0.00  0.00    +0.000 A 
ATOM      9  S   UNL     1       0.693  10.252  18.507  0.00  0.00    +0.000 S 
ENDROOT
BRANCH   7  10
ATOM     10  C   UNL     1      -0.798  12.760  20.842  0.00  0.00    +0.000 A 
ATOM     11  C   UNL     1      -2.126  12.673  21.334  0.00  0.00    +0.000 A 
ATOM     12  C   UNL     1      -2.983  13.757  21.310  0.00  0.00    +0.000 A 
ATOM     13  C   UNL     1      -2.536  14.950  20.772  0.00  0.00    +0.000 A 
ATOM     14  C   UNL     1      -1.263  15.029  20.200  0.00  0.00    +0.000 A 
ATOM     15  C   UNL     1      -0.390  13.928  20.209  0.00  0.00    +0.000 A 
ATOM     16 CL   UNL     1       1.030  14.064  19.237  0.00  0.00    +0.000 Cl
ENDBRANCH   7  10
BRANCH   1  18
ATOM     17  N   UNL     1       2.991   6.889  18.632  0.00  0.00    +0.000 N 
ATOM     18  C   UNL     1       2.459   8.082  18.138  0.00  0.00    +0.000 C 
ATOM     19  O   UNL     1       2.751   8.544  17.026  0.00  0.00    +0.000 OA
ATOM     20  H   UNL     1       2.639   6.571  19.526  0.00  0.00    +0.000 HD
BRANCH  17  24
ATOM     21  C   UNL     1       5.838   5.068  16.818  0.00  0.00    +0.000 A 
ATOM     22  C   UNL     1       4.760   4.202  16.846  0.00  0.00    +0.000 A 
ATOM     23  C   UNL     1       3.620   4.764  17.516  0.00  0.00    +0.000 A 
ATOM     24  C   UNL     1       3.860   6.051  17.951  0.00  0.00    +0.000 A 
ATOM     25  S   UNL     1       5.439   6.540  17.579  0.00  0.00    +0.000 S 
BRANCH  21  26
ATOM     26  C   UNL     1       7.181   4.809  16.332  0.00  0.00    +0.000 C 
ATOM     27  O   UNL     1       8.038   4.182  16.940  0.00  0.00    +0.000 OA
BRANCH  26  28
ATOM     28  O   UNL     1       7.399   5.475  15.159  0.00  0.00    +0.000 OA
BRANCH  28  30
ATOM     29  C   UNL     1       7.899   5.318  12.826  0.00  0.00    +0.000 C 
ATOM     30  C   UNL     1       7.043   4.782  13.961  0.00  0.00    +0.000 C 
ENDBRANCH  28  30
ENDBRANCH  26  28
ENDBRANCH  21  26
ENDBRANCH  17  24
ENDBRANCH   1  18
TORSDOF 6
ENDMDL
MODEL 4
REMARK VINA RESULT:      -7.6      1.037      1.060
REMARK  Name = 
REMARK  8 active torsions:
REMARK  status: ('A' for Active; 'I' for Inactive)
REMARK    1  A    between atoms: C_1  and  C_2
REMARK    2  A    between atoms: C_2  and  O_3
REMARK    3  A    between atoms: O_3  and  C_4
REMARK    4  A    between atoms: C_4  and  C_6
REMARK    5  A    between atoms: C_9  and  N_10
REMARK    6  A    between atoms: C_11  and  C_13
REMARK    7  A    between atoms: C_16  and  C_17
REMARK    8  A    between atoms: N_19  and  C_20
REMARK                            x       y       z     vdW  Elec       q    Type
REMARK                         _______ _______ _______ _____ _____    ______ ____
ROOT
ATOM      1  C   UNL     1       2.006   7.602  19.532  0.00  0.00    +0.000 A 
ATOM      2  C   UNL     1       1.424   7.619  20.814  0.00  0.00    +0.000 A 
ATOM      3  C   UNL     1       0.987   8.907  21.068  0.00  0.00    +0.000 A 
ATOM      4  C   UNL     1       0.613   9.645  22.177  0.00  0.00    +0.000 A 
ATOM      5  C   UNL     1      -0.287   9.494  23.330  0.00  0.00    +0.000 C 
ATOM      6  N   UNL     1       1.007  10.897  21.930  0.00  0.00    +0.000 NA
ATOM      7  N   UNL     1       0.829  11.001  20.578  0.00  0.00    +0.000 N 
ATOM      8  C   UNL     1       1.093   9.769  20.040  0.00  0.00    +0.000 A 
ATOM      9  S   UNL     1       1.659   9.068  18.639  0.00  0.00    +0.000 S 
ENDROOT
BRANCH   7  10
ATOM     10  C   UNL     1       0.406  12.261  20.124  0.00  0.00    +0.000 A 
ATOM     11  C   UNL     1       0.813  13.359  20.924  0.00  0.00    +0.000 A 
ATOM     12  C   UNL     1       0.470  14.660  20.602  0.00  0.00    +0.000 A 
ATOM     13  C   UNL     1      -0.308  14.888  19.482  0.00  0.00    +0.000 A 
ATOM     14  C   UNL     1      -0.794  13.811  18.734  0.00  0.00    +0.000 A 
ATOM     15  C   UNL     1      -0.461  12.486  19.061  0.00  0.00    +0.000 A 
ATOM     16 CL   UNL     1      -1.338  11.247  18.240  0.00  0.00    +0.000 Cl
ENDBRANCH   7  10
BRANCH   1  18
ATOM     17  N   UNL     1       3.228   6.606  17.686  0.00  0.00    +0.000 N 
ATOM     18  C   UNL     1       2.905   6.569  19.044  0.00  0.00    +0.000 C 
ATOM     19  O   UNL     1       3.359   5.721  19.825  0.00  0.00    +0.000 OA
ATOM     20  H   UNL     1       2.850   7.376  17.150  0.00  0.00    +0.000 HD
BRANCH  17  24
ATOM     21  C   UNL     1       5.861   4.792  15.566  0.00  0.00    +0.000 A 
ATOM     22  C   UNL     1       5.326   3.856  16.432  0.00  0.00    +0.000 A 
ATOM     23  C   UNL     1       4.326   4.415  17.299  0.00  0.00    +0.000 A 
ATOM     24  C   UNL     1       4.113   5.754  17.044  0.00  0.00    +0.000 A 
ATOM     25  S   UNL     1       5.127   6.312  15.806  0.00  0.00    +0.000 S 
BRANCH  21  26
ATOM     26  C   UNL     1       6.959   4.623  14.633  0.00  0.00    +0.000 C 
ATOM     27  O   UNL     1       7.905   5.392  14.517  0.00  0.00    +0.000 OA
BRANCH  26  28
ATOM     28  O   UNL     1       6.725   3.559  13.810  0.00  0.00    +0.000 OA
BRANCH  28  30
ATOM     29  C   UNL     1       5.231   3.184  11.980  0.00  0.00    +0.000 C 
ATOM     30  C   UNL     1       6.516   3.858  12.428  0.00  0.00    +0.000 C 
ENDBRANCH  28  30
ENDBRANCH  26  28
ENDBRANCH  21  26
ENDBRANCH  17  24
ENDBRANCH   1  18
TORSDOF 6
ENDMDL
MODEL 5
REMARK VINA RESULT:      -7.6      1.402      1.629
REMARK  Name = 
REMARK  8 active torsions:
REMARK  status: ('A' for Active; 'I' for Inactive)
REMARK    1  A    between atoms: C_1  and  C_2
REMARK    2  A    between atoms: C_2  and  O_3
REMARK    3  A    between atoms: O_3  and  C_4
REMARK    4  A    between atoms: C_4  and  C_6
REMARK    5  A    between atoms: C_9  and  N_10
REMARK    6  A    between atoms: C_11  and  C_13
REMARK    7  A    between atoms: C_16  and  C_17
REMARK    8  A    between atoms: N_19  and  C_20
REMARK                            x       y       z     vdW  Elec       q    Type
REMARK                         _______ _______ _______ _____ _____    ______ ____
ROOT
ATOM      1  C   UNL     1       1.364   8.635  19.649  0.00  0.00    +0.000 A 
ATOM      2  C   UNL     1       0.615   8.860  20.821  0.00  0.00    +0.000 A 
ATOM      3  C   UNL     1       0.399  10.223  20.933  0.00  0.00    +0.000 A 
ATOM      4  C   UNL     1       0.014  11.103  21.929  0.00  0.00    +0.000 A 
ATOM      5  C   UNL     1      -1.056  11.210  22.931  0.00  0.00    +0.000 C 
ATOM      6  N   UNL     1       0.672  12.239  21.683  0.00  0.00    +0.000 NA
ATOM      7  N   UNL     1       0.717  12.264  20.316  0.00  0.00    +0.000 N 
ATOM      8  C   UNL     1       0.817  10.965  19.892  0.00  0.00    +0.000 A 
ATOM      9  S   UNL     1       1.438  10.062  18.638  0.00  0.00    +0.000 S 
ENDROOT
BRANCH   7  10
ATOM     10  C   UNL     1       0.612  13.538  19.735  0.00  0.00    +0.000 A 
ATOM     11  C   UNL     1       1.845  14.147  19.389  0.00  0.00    +0.000 A 
ATOM     12  C   UNL     1       1.900  15.402  18.810  0.00  0.00    +0.000 A 
ATOM     13  C   UNL     1       0.719  16.085  18.583  0.00  0.00    +0.000 A 
ATOM     14  C   UNL     1      -0.499  15.539  19.002  0.00  0.00    +0.000 A 
ATOM     15  C   UNL     1      -0.562  14.270  19.603  0.00  0.00    +0.000 A 
ATOM     16 CL   UNL     1      -2.070  13.832  20.319  0.00  0.00    +0.000 Cl
ENDBRANCH   7  10
BRANCH   1  18
ATOM     17  N   UNL     1       2.637   7.292  18.078  0.00  0.00    +0.000 N 
ATOM     18  C   UNL     1       2.112   7.421  19.366  0.00  0.00    +0.000 C 
ATOM     19  O   UNL     1       2.271   6.569  20.251  0.00  0.00    +0.000 OA
ATOM     20  H   UNL     1       2.498   8.073  17.451  0.00  0.00    +0.000 HD
BRANCH  17  24
ATOM     21  C   UNL     1       5.267   4.874  16.682  0.00  0.00    +0.000 A 
ATOM     22  C   UNL     1       4.214   4.103  17.137  0.00  0.00    +0.000 A 
ATOM     23  C   UNL     1       3.156   4.894  17.702  0.00  0.00    +0.000 A 
ATOM     24  C   UNL     1       3.429   6.245  17.632  0.00  0.00    +0.000 A 
ATOM     25  S   UNL     1       4.943   6.530  16.926  0.00  0.00    +0.000 S 
BRANCH  21  26
ATOM     26  C   UNL     1       6.544   4.425  16.157  0.00  0.00    +0.000 C 
ATOM     27  O   UNL     1       7.638   4.792  16.567  0.00  0.00    +0.000 OA
BRANCH  26  28
ATOM     28  O   UNL     1       6.357   3.637  15.058  0.00  0.00    +0.000 OA
BRANCH  28  30
ATOM     29  C   UNL     1       5.836   3.509  12.727  0.00  0.00    +0.000 C 
ATOM     30  C   UNL     1       6.638   4.238  13.792  0.00  0.00    +0.000 C 
ENDBRANCH  28  30
ENDBRANCH  26  28
ENDBRANCH  21  26
ENDBRANCH  17  24
ENDBRANCH   1  18
TORSDOF 6
ENDMDL
MODEL 6
REMARK VINA RESULT:      -7.6      1.536      1.860
REMARK  Name = 
REMARK  8 active torsions:
REMARK  status: ('A' for Active; 'I' for Inactive)
REMARK    1  A    between atoms: C_1  and  C_2
REMARK    2  A    between atoms: C_2  and  O_3
REMARK    3  A    between atoms: O_3  and  C_4
REMARK    4  A    between atoms: C_4  and  C_6
REMARK    5  A    between atoms: C_9  and  N_10
REMARK    6  A    between atoms: C_11  and  C_13
REMARK    7  A    between atoms: C_16  and  C_17
REMARK    8  A    between atoms: N_19  and  C_20
REMARK                            x       y       z     vdW  Elec       q    Type
REMARK                         _______ _______ _______ _____ _____    ______ ____
ROOT
ATOM      1  C   UNL     1       1.496   8.841  18.943  0.00  0.00    +0.000 A 
ATOM      2  C   UNL     1       1.226   8.520  20.288  0.00  0.00    +0.000 A 
ATOM      3  C   UNL     1       0.622   9.617  20.876  0.00  0.00    +0.000 A 
ATOM      4  C   UNL     1       0.376  10.063  22.162  0.00  0.00    +0.000 A 
ATOM      5  C   UNL     1      -0.195   9.529  23.407  0.00  0.00    +0.000 C 
ATOM      6  N   UNL     1       0.461  11.395  22.107  0.00  0.00    +0.000 NA
ATOM      7  N   UNL     1      -0.034  11.671  20.862  0.00  0.00    +0.000 N 
ATOM      8  C   UNL     1       0.329  10.633  20.044  0.00  0.00    +0.000 A 
ATOM      9  S   UNL     1       0.686  10.313  18.449  0.00  0.00    +0.000 S 
ENDROOT
BRANCH   7  10
ATOM     10  C   UNL     1      -0.780  12.857  20.762  0.00  0.00    +0.000 A 
ATOM     11  C   UNL     1      -0.163  13.897  20.020  0.00  0.00    +0.000 A 
ATOM     12  C   UNL     1      -0.777  15.123  19.837  0.00  0.00    +0.000 A 
ATOM     13  C   UNL     1      -2.015  15.342  20.412  0.00  0.00    +0.000 A 
ATOM     14  C   UNL     1      -2.596  14.361  21.221  0.00  0.00    +0.000 A 
ATOM     15  C   UNL     1      -1.974  13.118  21.423  0.00  0.00    +0.000 A 
ATOM     16 CL   UNL     1      -2.648  12.110  22.652  0.00  0.00    +0.000 Cl
ENDBRANCH   7  10
BRANCH   1  18
ATOM     17  N   UNL     1       2.970   6.942  18.602  0.00  0.00    +0.000 N 
ATOM     18  C   UNL     1       2.440   8.131  18.096  0.00  0.00    +0.000 C 
ATOM     19  O   UNL     1       2.728   8.578  16.977  0.00  0.00    +0.000 OA
ATOM     20  H   UNL     1       2.623   6.637  19.501  0.00  0.00    +0.000 HD
BRANCH  17  24
ATOM     21  C   UNL     1       5.792   5.094  16.775  0.00  0.00    +0.000 A 
ATOM     22  C   UNL     1       4.725   4.218  16.859  0.00  0.00    +0.000 A 
ATOM     23  C   UNL     1       3.596   4.789  17.539  0.00  0.00    +0.000 A 
ATOM     24  C   UNL     1       3.832   6.092  17.927  0.00  0.00    +0.000 A 
ATOM     25  S   UNL     1       5.395   6.586  17.498  0.00  0.00    +0.000 S 
BRANCH  21  26
ATOM     26  C   UNL     1       7.125   4.835  16.263  0.00  0.00    +0.000 C 
ATOM     27  O   UNL     1       7.996   4.214  16.858  0.00  0.00    +0.000 OA
BRANCH  26  28
ATOM     28  O   UNL     1       7.316   5.491  15.080  0.00  0.00    +0.000 OA
BRANCH  28  30
ATOM     29  C   UNL     1       7.904   5.240  12.776  0.00  0.00    +0.000 C 
ATOM     30  C   UNL     1       6.990   4.767  13.892  0.00  0.00    +0.000 C 
ENDBRANCH  28  30
ENDBRANCH  26  28
ENDBRANCH  21  26
ENDBRANCH  17  24
ENDBRANCH   1  18
TORSDOF 6
ENDMDL
MODEL 7
REMARK VINA RESULT:      -7.5      1.931      2.461
REMARK  Name = 
REMARK  8 active torsions:
REMARK  status: ('A' for Active; 'I' for Inactive)
REMARK    1  A    between atoms: C_1  and  C_2
REMARK    2  A    between atoms: C_2  and  O_3
REMARK    3  A    between atoms: O_3  and  C_4
REMARK    4  A    between atoms: C_4  and  C_6
REMARK    5  A    between atoms: C_9  and  N_10
REMARK    6  A    between atoms: C_11  and  C_13
REMARK    7  A    between atoms: C_16  and  C_17
REMARK    8  A    between atoms: N_19  and  C_20
REMARK                            x       y       z     vdW  Elec       q    Type
REMARK                         _______ _______ _______ _____ _____    ______ ____
ROOT
ATOM      1  C   UNL     1       1.217   9.057  19.693  0.00  0.00    +0.000 A 
ATOM      2  C   UNL     1       0.390   9.337  20.798  0.00  0.00    +0.000 A 
ATOM      3  C   UNL     1       0.247  10.711  20.886  0.00  0.00    +0.000 A 
ATOM      4  C   UNL     1      -0.164  11.622  21.843  0.00  0.00    +0.000 A 
ATOM      5  C   UNL     1      -1.304  11.802  22.753  0.00  0.00    +0.000 C 
ATOM      6  N   UNL     1       0.578  12.715  21.645  0.00  0.00    +0.000 NA
ATOM      7  N   UNL     1       0.735  12.724  20.287  0.00  0.00    +0.000 N 
ATOM      8  C   UNL     1       0.792  11.417  19.878  0.00  0.00    +0.000 A 
ATOM      9  S   UNL     1       1.458  10.468  18.683  0.00  0.00    +0.000 S 
ENDROOT
BRANCH   7  10
ATOM     10  C   UNL     1       0.754  13.996  19.693  0.00  0.00    +0.000 A 
ATOM     11  C   UNL     1      -0.491  14.674  19.678  0.00  0.00    +0.000 A 
ATOM     12  C   UNL     1      -0.627  15.935  19.126  0.00  0.00    +0.000 A 
ATOM     13  C   UNL     1       0.480  16.537  18.557  0.00  0.00    +0.000 A 
ATOM     14  C   UNL     1       1.693  15.847  18.481  0.00  0.00    +0.000 A 
ATOM     15  C   UNL     1       1.836  14.560  19.028  0.00  0.00    +0.000 A 
ATOM     16 CL   UNL     1       3.286  13.712  18.629  0.00  0.00    +0.000 Cl
ENDBRANCH   7  10
BRANCH   1  18
ATOM     17  N   UNL     1       2.467   7.595  18.211  0.00  0.00    +0.000 N 
ATOM     18  C   UNL     1       1.912   7.798  19.476  0.00  0.00    +0.000 C 
ATOM     19  O   UNL     1       2.003   6.973  20.396  0.00  0.00    +0.000 OA
ATOM     20  H   UNL     1       2.386   8.357  17.552  0.00  0.00    +0.000 HD
BRANCH  17  24
ATOM     21  C   UNL     1       5.036   4.996  17.046  0.00  0.00    +0.000 A 
ATOM     22  C   UNL     1       3.885   4.304  17.374  0.00  0.00    +0.000 A 
ATOM     23  C   UNL     1       2.838   5.169  17.842  0.00  0.00    +0.000 A 
ATOM     24  C   UNL     1       3.219   6.495  17.828  0.00  0.00    +0.000 A 
ATOM     25  S   UNL     1       4.816   6.669  17.289  0.00  0.00    +0.000 S 
BRANCH  21  26
ATOM     26  C   UNL     1       6.323   4.454  16.648  0.00  0.00    +0.000 C 
ATOM     27  O   UNL     1       7.384   4.682  17.214  0.00  0.00    +0.000 OA
BRANCH  26  28
ATOM     28  O   UNL     1       6.206   3.762  15.476  0.00  0.00    +0.000 OA
BRANCH  28  30
ATOM     29  C   UNL     1       6.077   3.691  13.089  0.00  0.00    +0.000 C 
ATOM     30  C   UNL     1       6.619   4.445  14.291  0.00  0.00    +0.000 C 
ENDBRANCH  28  30
ENDBRANCH  26  28
ENDBRANCH  21  26
ENDBRANCH  17  24
ENDBRANCH   1  18
TORSDOF 6
ENDMDL
MODEL 8
REMARK VINA RESULT:      -7.3      2.413      3.408
REMARK  Name = 
REMARK  8 active torsions:
REMARK  status: ('A' for Active; 'I' for Inactive)
REMARK    1  A    between atoms: C_1  and  C_2
REMARK    2  A    between atoms: C_2  and  O_3
REMARK    3  A    between atoms: O_3  and  C_4
REMARK    4  A    between atoms: C_4  and  C_6
REMARK    5  A    between atoms: C_9  and  N_10
REMARK    6  A    between atoms: C_11  and  C_13
REMARK    7  A    between atoms: C_16  and  C_17
REMARK    8  A    between atoms: N_19  and  C_20
REMARK                            x       y       z     vdW  Elec       q    Type
REMARK                         _______ _______ _______ _____ _____    ______ ____
ROOT
ATOM      1  C   UNL     1       1.012   9.505  19.824  0.00  0.00    +0.000 A 
ATOM      2  C   UNL     1       0.197   9.882  20.909  0.00  0.00    +0.000 A 
ATOM      3  C   UNL     1       0.134  11.264  20.936  0.00  0.00    +0.000 A 
ATOM      4  C   UNL     1      -0.228  12.239  21.849  0.00  0.00    +0.000 A 
ATOM      5  C   UNL     1      -1.361  12.524  22.741  0.00  0.00    +0.000 C 
ATOM      6  N   UNL     1       0.577  13.277  21.610  0.00  0.00    +0.000 NA
ATOM      7  N   UNL     1       0.742  13.217  20.253  0.00  0.00    +0.000 N 
ATOM      8  C   UNL     1       0.725  11.892  19.903  0.00  0.00    +0.000 A 
ATOM      9  S   UNL     1       1.341  10.854  18.756  0.00  0.00    +0.000 S 
ENDROOT
BRANCH   7  10
ATOM     10  C   UNL     1       0.839  14.458  19.605  0.00  0.00    +0.000 A 
ATOM     11  C   UNL     1      -0.390  15.142  19.423  0.00  0.00    +0.000 A 
ATOM     12  C   UNL     1      -0.452  16.375  18.800  0.00  0.00    +0.000 A 
ATOM     13  C   UNL     1       0.716  16.942  18.325  0.00  0.00    +0.000 A 
ATOM     14  C   UNL     1       1.922  16.242  18.413  0.00  0.00    +0.000 A 
ATOM     15  C   UNL     1       1.992  14.983  19.034  0.00  0.00    +0.000 A 
ATOM     16 CL   UNL     1       3.466  14.107  18.834  0.00  0.00    +0.000 Cl
ENDBRANCH   7  10
BRANCH   1  18
ATOM     17  N   UNL     1       2.037   7.844  18.380  0.00  0.00    +0.000 N 
ATOM     18  C   UNL     1       1.633   8.200  19.669  0.00  0.00    +0.000 C 
ATOM     19  O   UNL     1       1.797   7.469  20.656  0.00  0.00    +0.000 OA
ATOM     20  H   UNL     1       1.910   8.539  17.657  0.00  0.00    +0.000 HD
BRANCH  17  24
ATOM     21  C   UNL     1       4.405   5.014  17.334  0.00  0.00    +0.000 A 
ATOM     22  C   UNL     1       3.189   4.430  17.636  0.00  0.00    +0.000 A 
ATOM     23  C   UNL     1       2.207   5.389  18.059  0.00  0.00    +0.000 A 
ATOM     24  C   UNL     1       2.702   6.677  18.037  0.00  0.00    +0.000 A 
ATOM     25  S   UNL     1       4.323   6.703  17.545  0.00  0.00    +0.000 S 
BRANCH  21  26
ATOM     26  C   UNL     1       5.651   4.357  16.984  0.00  0.00    +0.000 C 
ATOM     27  O   UNL     1       5.916   3.899  15.879  0.00  0.00    +0.000 OA
BRANCH  26  28
ATOM     28  O   UNL     1       6.436   4.203  18.091  0.00  0.00    +0.000 OA
BRANCH  28  30
ATOM     29  C   UNL     1       7.763   6.084  18.738  0.00  0.00    +0.000 C 
ATOM     30  C   UNL     1       7.755   4.748  18.016  0.00  0.00    +0.000 C 
ENDBRANCH  28  30
ENDBRANCH  26  28
ENDBRANCH  21  26
ENDBRANCH  17  24
ENDBRANCH   1  18
TORSDOF 6
ENDMDL
MODEL 9
REMARK VINA RESULT:      -7.3      1.742      2.532
REMARK  Name = 
REMARK  8 active torsions:
REMARK  status: ('A' for Active; 'I' for Inactive)
REMARK    1  A    between atoms: C_1  and  C_2
REMARK    2  A    between atoms: C_2  and  O_3
REMARK    3  A    between atoms: O_3  and  C_4
REMARK    4  A    between atoms: C_4  and  C_6
REMARK    5  A    between atoms: C_9  and  N_10
REMARK    6  A    between atoms: C_11  and  C_13
REMARK    7  A    between atoms: C_16  and  C_17
REMARK    8  A    between atoms: N_19  and  C_20
REMARK                            x       y       z     vdW  Elec       q    Type
REMARK                         _______ _______ _______ _____ _____    ______ ____
ROOT
ATOM      1  C   UNL     1       1.356   8.560  19.732  0.00  0.00    +0.000 A 
ATOM      2  C   UNL     1       0.561   8.680  20.889  0.00  0.00    +0.000 A 
ATOM      3  C   UNL     1       0.298  10.024  21.088  0.00  0.00    +0.000 A 
ATOM      4  C   UNL     1      -0.148  10.820  22.129  0.00  0.00    +0.000 A 
ATOM      5  C   UNL     1      -1.255  10.824  23.096  0.00  0.00    +0.000 C 
ATOM      6  N   UNL     1       0.481  11.989  21.986  0.00  0.00    +0.000 NA
ATOM      7  N   UNL     1       0.571  12.112  20.627  0.00  0.00    +0.000 N 
ATOM      8  C   UNL     1       0.727  10.850  20.117  0.00  0.00    +0.000 A 
ATOM      9  S   UNL     1       1.419  10.057  18.826  0.00  0.00    +0.000 S 
ENDROOT
BRANCH   7  10
ATOM     10  C   UNL     1       0.446  13.421  20.133  0.00  0.00    +0.000 A 
ATOM     11  C   UNL     1       0.905  14.442  21.004  0.00  0.00    +0.000 A 
ATOM     12  C   UNL     1       0.845  15.778  20.654  0.00  0.00    +0.000 A 
ATOM     13  C   UNL     1       0.302  16.124  19.430  0.00  0.00    +0.000 A 
ATOM     14  C   UNL     1      -0.239  15.139  18.599  0.00  0.00    +0.000 A 
ATOM     15  C   UNL     1      -0.193  13.779  18.952  0.00  0.00    +0.000 A 
ATOM     16 CL   UNL     1      -1.131  12.701  17.984  0.00  0.00    +0.000 Cl
ENDBRANCH   7  10
BRANCH   1  18
ATOM     17  N   UNL     1       2.585   7.290  18.068  0.00  0.00    +0.000 N 
ATOM     18  C   UNL     1       2.151   7.391  19.391  0.00  0.00    +0.000 C 
ATOM     19  O   UNL     1       2.426   6.553  20.261  0.00  0.00    +0.000 OA
ATOM     20  H   UNL     1       2.354   8.060  17.454  0.00  0.00    +0.000 HD
BRANCH  17  24
ATOM     21  C   UNL     1       5.254   5.027  16.496  0.00  0.00    +0.000 A 
ATOM     22  C   UNL     1       4.261   4.199  16.985  0.00  0.00    +0.000 A 
ATOM     23  C   UNL     1       3.197   4.927  17.617  0.00  0.00    +0.000 A 
ATOM     24  C   UNL     1       3.402   6.291  17.562  0.00  0.00    +0.000 A 
ATOM     25  S   UNL     1       4.865   6.660  16.791  0.00  0.00    +0.000 S 
BRANCH  21  26
ATOM     26  C   UNL     1       6.523   4.649  15.902  0.00  0.00    +0.000 C 
ATOM     27  O   UNL     1       6.654   3.881  14.958  0.00  0.00    +0.000 OA
BRANCH  26  28
ATOM     28  O   UNL     1       7.560   5.166  16.626  0.00  0.00    +0.000 OA
BRANCH  28  30
ATOM     29  C   UNL     1       7.916   5.904  18.872  0.00  0.00    +0.000 C 
ATOM     30  C   UNL     1       7.689   4.703  17.971  0.00  0.00    +0.000 C 
ENDBRANCH  28  30
ENDBRANCH  26  28
ENDBRANCH  21  26
ENDBRANCH  17  24
ENDBRANCH   1  18
TORSDOF 6
ENDMDL
