MODEL 1
REMARK VINA RESULT:      -8.9      0.000      0.000
REMARK  Name = 
REMARK  9 active torsions:
REMARK  status: ('A' for Active; 'I' for Inactive)
REMARK    1  A    between atoms: C_1  and  O_2
REMARK    2  A    between atoms: O_2  and  C_3
REMARK    3  A    between atoms: C_3  and  C_4
REMARK    4  A    between atoms: C_3  and  C_20
REMARK    5  A    between atoms: C_3  and  C_24
REMARK    6  A    between atoms: C_8  and  C_9
REMARK    7  A    between atoms: C_9  and  O_10
REMARK    8  A    between atoms: C_9  and  C_11
REMARK    9  A    between atoms: C_9  and  C_15
REMARK                            x       y       z     vdW  Elec       q    Type
REMARK                         _______ _______ _______ _____ _____    ______ ____
ROOT
ATOM      1  C   UNL     1       2.979   4.709  18.690  0.00  0.00    +0.000 A 
ATOM      2  C   UNL     1       2.308   5.940  18.728  0.00  0.00    +0.000 A 
ATOM      3  C   UNL     1       2.915   7.083  18.206  0.00  0.00    +0.000 A 
ATOM      4  C   UNL     1       4.194   7.032  17.640  0.00  0.00    +0.000 A 
ATOM      5  C   UNL     1       4.881   5.815  17.540  0.00  0.00    +0.000 A 
ATOM      6  C   UNL     1       4.245   4.677  18.072  0.00  0.00    +0.000 A 
ENDROOT
BRANCH   1   7
ATOM      7  C   UNL     1       2.386   3.407  19.269  0.00  0.00    +0.000 C 
BRANCH   7   8
ATOM      8  C   UNL     1       1.418   2.763  18.239  0.00  0.00    +0.000 C 
ATOM      9  F   UNL     1       2.072   1.963  17.357  0.00  0.00    +0.000 F 
ATOM     10  F   UNL     1       0.435   2.006  18.771  0.00  0.00    +0.000 F 
ATOM     11  F   UNL     1       0.790   3.701  17.478  0.00  0.00    +0.000 F 
ENDBRANCH   7   8
BRANCH   7  12
ATOM     12  C   UNL     1       1.589   3.563  20.578  0.00  0.00    +0.000 C 
ATOM     13  F   UNL     1       0.373   4.122  20.367  0.00  0.00    +0.000 F 
ATOM     14  F   UNL     1       1.349   2.351  21.152  0.00  0.00    +0.000 F 
ATOM     15  F   UNL     1       2.206   4.293  21.530  0.00  0.00    +0.000 F 
ENDBRANCH   7  12
BRANCH   7  17
ATOM     16  C   UNL     1       4.240   2.545  20.669  0.00  0.00    +0.000 C 
ATOM     17  O   UNL     1       3.498   2.448  19.459  0.00  0.00    +0.000 OA
ENDBRANCH   7  17
ENDBRANCH   1   7
BRANCH   5  18
ATOM     18  C   UNL     1       6.259   5.731  16.862  0.00  0.00    +0.000 C 
BRANCH  18  19
ATOM     19  C   UNL     1       7.361   5.316  17.867  0.00  0.00    +0.000 C 
ATOM     20  F   UNL     1       6.853   5.011  19.093  0.00  0.00    +0.000 F 
ATOM     21  F   UNL     1       8.143   4.289  17.519  0.00  0.00    +0.000 F 
ATOM     22  F   UNL     1       8.194   6.384  18.086  0.00  0.00    +0.000 F 
ENDBRANCH  18  19
BRANCH  18  23
ATOM     23  C   UNL     1       6.281   4.792  15.627  0.00  0.00    +0.000 C 
ATOM     24  F   UNL     1       5.267   5.061  14.760  0.00  0.00    +0.000 F 
ATOM     25  F   UNL     1       7.424   4.945  14.902  0.00  0.00    +0.000 F 
ATOM     26  F   UNL     1       6.185   3.478  15.898  0.00  0.00    +0.000 F 
ENDBRANCH  18  23
BRANCH  18  27
ATOM     27  O   UNL     1       6.539   7.108  16.391  0.00  0.00    +0.000 OA
ATOM     28  H   UNL     1       6.930   7.038  15.490  0.00  0.00    +0.000 HD
ENDBRANCH  18  27
ENDBRANCH   5  18
TORSDOF 8
ENDMDL
MODEL 2
REMARK VINA RESULT:      -8.8      0.078      1.257
REMARK  Name = 
REMARK  9 active torsions:
REMARK  status: ('A' for Active; 'I' for Inactive)
REMARK    1  A    between atoms: C_1  and  O_2
REMARK    2  A    between atoms: O_2  and  C_3
REMARK    3  A    between atoms: C_3  and  C_4
REMARK    4  A    between atoms: C_3  and  C_20
REMARK    5  A    between atoms: C_3  and  C_24
REMARK    6  A    between atoms: C_8  and  C_9
REMARK    7  A    between atoms: C_9  and  O_10
REMARK    8  A    between atoms: C_9  and  C_11
REMARK    9  A    between atoms: C_9  and  C_15
REMARK                            x       y       z     vdW  Elec       q    Type
REMARK                         _______ _______ _______ _____ _____    ______ ____
ROOT
ATOM      1  C   UNL     1       3.010   4.658  18.695  0.00  0.00    +0.000 A 
ATOM      2  C   UNL     1       2.322   5.879  18.750  0.00  0.00    +0.000 A 
ATOM      3  C   UNL     1       2.911   7.035  18.236  0.00  0.00    +0.000 A 
ATOM      4  C   UNL     1       4.188   7.008  17.664  0.00  0.00    +0.000 A 
ATOM      5  C   UNL     1       4.891   5.802  17.548  0.00  0.00    +0.000 A 
ATOM      6  C   UNL     1       4.273   4.650  18.071  0.00  0.00    +0.000 A 
ENDROOT
BRANCH   1   7
ATOM      7  C   UNL     1       2.438   3.342  19.264  0.00  0.00    +0.000 C 
BRANCH   7   8
ATOM      8  C   UNL     1       1.477   2.694  18.231  0.00  0.00    +0.000 C 
ATOM      9  F   UNL     1       0.742   3.624  17.567  0.00  0.00    +0.000 F 
ATOM     10  F   UNL     1       2.075   1.944  17.281  0.00  0.00    +0.000 F 
ATOM     11  F   UNL     1       0.567   1.875  18.827  0.00  0.00    +0.000 F 
ENDBRANCH   7   8
BRANCH   7  12
ATOM     12  C   UNL     1       1.643   3.474  20.577  0.00  0.00    +0.000 C 
ATOM     13  F   UNL     1       2.275   4.268  21.474  0.00  0.00    +0.000 F 
ATOM     14  F   UNL     1       0.428   4.050  20.356  0.00  0.00    +0.000 F 
ATOM     15  F   UNL     1       1.376   2.304  21.194  0.00  0.00    +0.000 F 
ENDBRANCH   7  12
BRANCH   7  17
ATOM     16  C   UNL     1       4.315   2.500  20.646  0.00  0.00    +0.000 C 
ATOM     17  O   UNL     1       3.565   2.397  19.441  0.00  0.00    +0.000 OA
ENDBRANCH   7  17
ENDBRANCH   1   7
BRANCH   5  18
ATOM     18  C   UNL     1       6.267   5.745  16.862  0.00  0.00    +0.000 C 
BRANCH  18  19
ATOM     19  C   UNL     1       7.381   5.345  17.860  0.00  0.00    +0.000 C 
ATOM     20  F   UNL     1       6.887   5.053  19.095  0.00  0.00    +0.000 F 
ATOM     21  F   UNL     1       8.162   4.316  17.515  0.00  0.00    +0.000 F 
ATOM     22  F   UNL     1       8.213   6.418  18.057  0.00  0.00    +0.000 F 
ENDBRANCH  18  19
BRANCH  18  23
ATOM     23  C   UNL     1       6.298   4.810  15.624  0.00  0.00    +0.000 C 
ATOM     24  F   UNL     1       7.455   4.935  14.916  0.00  0.00    +0.000 F 
ATOM     25  F   UNL     1       6.237   3.499  15.984  0.00  0.00    +0.000 F 
ATOM     26  F   UNL     1       5.309   4.998  14.732  0.00  0.00    +0.000 F 
ENDBRANCH  18  23
BRANCH  18  27
ATOM     27  O   UNL     1       6.520   7.127  16.395  0.00  0.00    +0.000 OA
ATOM     28  H   UNL     1       5.669   7.483  16.051  0.00  0.00    +0.000 HD
ENDBRANCH  18  27
ENDBRANCH   5  18
TORSDOF 8
ENDMDL
MODEL 3
REMARK VINA RESULT:      -8.7      0.128      1.262
REMARK  Name = 
REMARK  9 active torsions:
REMARK  status: ('A' for Active; 'I' for Inactive)
REMARK    1  A    between atoms: C_1  and  O_2
REMARK    2  A    between atoms: O_2  and  C_3
REMARK    3  A    between atoms: C_3  and  C_4
REMARK    4  A    between atoms: C_3  and  C_20
REMARK    5  A    between atoms: C_3  and  C_24
REMARK    6  A    between atoms: C_8  and  C_9
REMARK    7  A    between atoms: C_9  and  O_10
REMARK    8  A    between atoms: C_9  and  C_11
REMARK    9  A    between atoms: C_9  and  C_15
REMARK                            x       y       z     vdW  Elec       q    Type
REMARK                         _______ _______ _______ _____ _____    ______ ____
ROOT
ATOM      1  C   UNL     1       2.973   4.760  18.677  0.00  0.00    +0.000 A 
ATOM      2  C   UNL     1       2.307   5.995  18.692  0.00  0.00    +0.000 A 
ATOM      3  C   UNL     1       2.923   7.126  18.154  0.00  0.00    +0.000 A 
ATOM      4  C   UNL     1       4.205   7.060  17.596  0.00  0.00    +0.000 A 
ATOM      5  C   UNL     1       4.886   5.839  17.520  0.00  0.00    +0.000 A 
ATOM      6  C   UNL     1       4.242   4.713  18.067  0.00  0.00    +0.000 A 
ENDROOT
BRANCH   1   7
ATOM      7  C   UNL     1       2.371   3.470  19.274  0.00  0.00    +0.000 C 
BRANCH   7   8
ATOM      8  C   UNL     1       1.351   2.854  18.279  0.00  0.00    +0.000 C 
ATOM      9  F   UNL     1       1.941   1.990  17.414  0.00  0.00    +0.000 F 
ATOM     10  F   UNL     1       0.333   2.174  18.849  0.00  0.00    +0.000 F 
ATOM     11  F   UNL     1       0.766   3.803  17.497  0.00  0.00    +0.000 F 
ENDBRANCH   7   8
BRANCH   7  12
ATOM     12  C   UNL     1       1.626   3.641  20.613  0.00  0.00    +0.000 C 
ATOM     13  F   UNL     1       2.302   4.444  21.469  0.00  0.00    +0.000 F 
ATOM     14  F   UNL     1       0.413   4.231  20.425  0.00  0.00    +0.000 F 
ATOM     15  F   UNL     1       1.366   2.488  21.264  0.00  0.00    +0.000 F 
ENDBRANCH   7  12
BRANCH   7  17
ATOM     16  C   UNL     1       4.243   2.549  20.610  0.00  0.00    +0.000 C 
ATOM     17  O   UNL     1       3.466   2.485  19.420  0.00  0.00    +0.000 OA
ENDBRANCH   7  17
ENDBRANCH   1   7
BRANCH   5  18
ATOM     18  C   UNL     1       6.267   5.738  16.850  0.00  0.00    +0.000 C 
BRANCH  18  19
ATOM     19  C   UNL     1       7.351   5.275  17.854  0.00  0.00    +0.000 C 
ATOM     20  F   UNL     1       8.124   4.271  17.354  0.00  0.00    +0.000 F 
ATOM     21  F   UNL     1       8.196   6.208  18.306  0.00  0.00    +0.000 F 
ATOM     22  F   UNL     1       6.740   4.735  18.957  0.00  0.00    +0.000 F 
ENDBRANCH  18  19
BRANCH  18  23
ATOM     23  C   UNL     1       6.278   4.825  15.595  0.00  0.00    +0.000 C 
ATOM     24  F   UNL     1       7.415   4.975  14.861  0.00  0.00    +0.000 F 
ATOM     25  F   UNL     1       6.239   3.507  15.934  0.00  0.00    +0.000 F 
ATOM     26  F   UNL     1       5.264   5.018  14.731  0.00  0.00    +0.000 F 
ENDBRANCH  18  23
BRANCH  18  27
ATOM     27  O   UNL     1       6.583   7.117  16.411  0.00  0.00    +0.000 OA
ATOM     28  H   UNL     1       6.214   7.732  17.085  0.00  0.00    +0.000 HD
ENDBRANCH  18  27
ENDBRANCH   5  18
TORSDOF 8
ENDMDL
MODEL 4
REMARK VINA RESULT:      -8.7      0.129      1.454
REMARK  Name = 
REMARK  9 active torsions:
REMARK  status: ('A' for Active; 'I' for Inactive)
REMARK    1  A    between atoms: C_1  and  O_2
REMARK    2  A    between atoms: O_2  and  C_3
REMARK    3  A    between atoms: C_3  and  C_4
REMARK    4  A    between atoms: C_3  and  C_20
REMARK    5  A    between atoms: C_3  and  C_24
REMARK    6  A    between atoms: C_8  and  C_9
REMARK    7  A    between atoms: C_9  and  O_10
REMARK    8  A    between atoms: C_9  and  C_11
REMARK    9  A    between atoms: C_9  and  C_15
REMARK                            x       y       z     vdW  Elec       q    Type
REMARK                         _______ _______ _______ _____ _____    ______ ____
ROOT
ATOM      1  C   UNL     1       2.982   4.799  18.691  0.00  0.00    +0.000 A 
ATOM      2  C   UNL     1       2.306   6.028  18.688  0.00  0.00    +0.000 A 
ATOM      3  C   UNL     1       2.922   7.161  18.155  0.00  0.00    +0.000 A 
ATOM      4  C   UNL     1       4.213   7.103  17.618  0.00  0.00    +0.000 A 
ATOM      5  C   UNL     1       4.905   5.887  17.559  0.00  0.00    +0.000 A 
ATOM      6  C   UNL     1       4.261   4.758  18.102  0.00  0.00    +0.000 A 
ENDROOT
BRANCH   1   7
ATOM      7  C   UNL     1       2.381   3.507  19.285  0.00  0.00    +0.000 C 
BRANCH   7   8
ATOM      8  C   UNL     1       1.371   2.885  18.282  0.00  0.00    +0.000 C 
ATOM      9  F   UNL     1       0.411   2.159  18.911  0.00  0.00    +0.000 F 
ATOM     10  F   UNL     1       0.717   3.772  17.502  0.00  0.00    +0.000 F 
ATOM     11  F   UNL     1       1.976   2.017  17.425  0.00  0.00    +0.000 F 
ENDBRANCH   7   8
BRANCH   7  12
ATOM     12  C   UNL     1       1.624   3.676  20.617  0.00  0.00    +0.000 C 
ATOM     13  F   UNL     1       2.293   4.477  21.480  0.00  0.00    +0.000 F 
ATOM     14  F   UNL     1       0.413   4.267  20.418  0.00  0.00    +0.000 F 
ATOM     15  F   UNL     1       1.357   2.522  21.264  0.00  0.00    +0.000 F 
ENDBRANCH   7  12
BRANCH   7  17
ATOM     16  C   UNL     1       4.154   2.502  20.693  0.00  0.00    +0.000 C 
ATOM     17  O   UNL     1       3.479   2.526  19.441  0.00  0.00    +0.000 OA
ENDBRANCH   7  17
ENDBRANCH   1   7
BRANCH   5  18
ATOM     18  C   UNL     1       6.299   5.793  16.913  0.00  0.00    +0.000 C 
BRANCH  18  19
ATOM     19  C   UNL     1       7.375   5.377  17.945  0.00  0.00    +0.000 C 
ATOM     20  F   UNL     1       8.130   4.330  17.510  0.00  0.00    +0.000 F 
ATOM     21  F   UNL     1       8.236   6.322  18.337  0.00  0.00    +0.000 F 
ATOM     22  F   UNL     1       6.756   4.918  19.080  0.00  0.00    +0.000 F 
ENDBRANCH  18  19
BRANCH  18  23
ATOM     23  C   UNL     1       6.344   4.849  15.683  0.00  0.00    +0.000 C 
ATOM     24  F   UNL     1       6.227   3.539  16.037  0.00  0.00    +0.000 F 
ATOM     25  F   UNL     1       5.308   5.085  14.832  0.00  0.00    +0.000 F 
ATOM     26  F   UNL     1       7.462   4.922  14.939  0.00  0.00    +0.000 F 
ENDBRANCH  18  23
BRANCH  18  27
ATOM     27  O   UNL     1       6.596   7.166  16.443  0.00  0.00    +0.000 OA
ATOM     28  H   UNL     1       7.338   7.104  15.800  0.00  0.00    +0.000 HD
ENDBRANCH  18  27
ENDBRANCH   5  18
TORSDOF 8
ENDMDL
MODEL 5
REMARK VINA RESULT:      -8.6      0.177      1.243
REMARK  Name = 
REMARK  9 active torsions:
REMARK  status: ('A' for Active; 'I' for Inactive)
REMARK    1  A    between atoms: C_1  and  O_2
REMARK    2  A    between atoms: O_2  and  C_3
REMARK    3  A    between atoms: C_3  and  C_4
REMARK    4  A    between atoms: C_3  and  C_20
REMARK    5  A    between atoms: C_3  and  C_24
REMARK    6  A    between atoms: C_8  and  C_9
REMARK    7  A    between atoms: C_9  and  O_10
REMARK    8  A    between atoms: C_9  and  C_11
REMARK    9  A    between atoms: C_9  and  C_15
REMARK                            x       y       z     vdW  Elec       q    Type
REMARK                         _______ _______ _______ _____ _____    ______ ____
ROOT
ATOM      1  C   UNL     1       2.966   4.810  18.658  0.00  0.00    +0.000 A 
ATOM      2  C   UNL     1       2.319   6.054  18.638  0.00  0.00    +0.000 A 
ATOM      3  C   UNL     1       2.959   7.165  18.086  0.00  0.00    +0.000 A 
ATOM      4  C   UNL     1       4.247   7.069  17.548  0.00  0.00    +0.000 A 
ATOM      5  C   UNL     1       4.911   5.836  17.506  0.00  0.00    +0.000 A 
ATOM      6  C   UNL     1       4.243   4.731  18.067  0.00  0.00    +0.000 A 
ENDROOT
BRANCH   1   7
ATOM      7  C   UNL     1       2.337   3.542  19.272  0.00  0.00    +0.000 C 
BRANCH   7   8
ATOM      8  C   UNL     1       1.305   2.933  18.285  0.00  0.00    +0.000 C 
ATOM      9  F   UNL     1       0.329   2.242  18.930  0.00  0.00    +0.000 F 
ATOM     10  F   UNL     1       0.670   3.825  17.495  0.00  0.00    +0.000 F 
ATOM     11  F   UNL     1       1.881   2.036  17.437  0.00  0.00    +0.000 F 
ENDBRANCH   7   8
BRANCH   7  12
ATOM     12  C   UNL     1       1.594   3.747  20.607  0.00  0.00    +0.000 C 
ATOM     13  F   UNL     1       0.377   4.314  20.427  0.00  0.00    +0.000 F 
ATOM     14  F   UNL     1       1.364   2.556  21.227  0.00  0.00    +0.000 F 
ATOM     15  F   UNL     1       2.257   4.499  21.511  0.00  0.00    +0.000 F 
ENDBRANCH   7  12
BRANCH   7  17
ATOM     16  C   UNL     1       4.296   2.703  20.536  0.00  0.00    +0.000 C 
ATOM     17  O   UNL     1       3.411   2.536  19.434  0.00  0.00    +0.000 OA
ENDBRANCH   7  17
ENDBRANCH   1   7
BRANCH   5  18
ATOM     18  C   UNL     1       6.300   5.701  16.858  0.00  0.00    +0.000 C 
BRANCH  18  19
ATOM     19  C   UNL     1       7.357   5.215  17.881  0.00  0.00    +0.000 C 
ATOM     20  F   UNL     1       8.191   6.217  18.276  0.00  0.00    +0.000 F 
ATOM     21  F   UNL     1       6.899   4.644  19.000  0.00  0.00    +0.000 F 
ATOM     22  F   UNL     1       8.174   4.293  17.278  0.00  0.00    +0.000 F 
ENDBRANCH  18  19
BRANCH  18  23
ATOM     23  C   UNL     1       6.309   4.785  15.606  0.00  0.00    +0.000 C 
ATOM     24  F   UNL     1       6.177   3.470  15.931  0.00  0.00    +0.000 F 
ATOM     25  F   UNL     1       5.261   5.058  14.780  0.00  0.00    +0.000 F 
ATOM     26  F   UNL     1       7.414   4.859  14.842  0.00  0.00    +0.000 F 
ENDBRANCH  18  23
BRANCH  18  27
ATOM     27  O   UNL     1       6.655   7.071  16.422  0.00  0.00    +0.000 OA
ATOM     28  H   UNL     1       6.166   7.251  15.587  0.00  0.00    +0.000 HD
ENDBRANCH  18  27
ENDBRANCH   5  18
TORSDOF 8
ENDMDL
MODEL 6
REMARK VINA RESULT:      -8.6      0.372      1.040
REMARK  Name = 
REMARK  9 active torsions:
REMARK  status: ('A' for Active; 'I' for Inactive)
REMARK    1  A    between atoms: C_1  and  O_2
REMARK    2  A    between atoms: O_2  and  C_3
REMARK    3  A    between atoms: C_3  and  C_4
REMARK    4  A    between atoms: C_3  and  C_20
REMARK    5  A    between atoms: C_3  and  C_24
REMARK    6  A    between atoms: C_8  and  C_9
REMARK    7  A    between atoms: C_9  and  O_10
REMARK    8  A    between atoms: C_9  and  C_11
REMARK    9  A    between atoms: C_9  and  C_15
REMARK                            x       y       z     vdW  Elec       q    Type
REMARK                         _______ _______ _______ _____ _____    ______ ____
ROOT
ATOM      1  C   UNL     1       2.931   4.999  18.737  0.00  0.00    +0.000 A 
ATOM      2  C   UNL     1       2.272   6.232  18.634  0.00  0.00    +0.000 A 
ATOM      3  C   UNL     1       2.910   7.315  18.027  0.00  0.00    +0.000 A 
ATOM      4  C   UNL     1       4.207   7.201  17.515  0.00  0.00    +0.000 A 
ATOM      5  C   UNL     1       4.884   5.976  17.556  0.00  0.00    +0.000 A 
ATOM      6  C   UNL     1       4.217   4.899  18.172  0.00  0.00    +0.000 A 
ENDROOT
BRANCH   1   7
ATOM      7  C   UNL     1       2.304   3.762  19.417  0.00  0.00    +0.000 C 
BRANCH   7   8
ATOM      8  C   UNL     1       1.327   3.060  18.436  0.00  0.00    +0.000 C 
ATOM      9  F   UNL     1       0.782   3.932  17.548  0.00  0.00    +0.000 F 
ATOM     10  F   UNL     1       1.869   2.067  17.698  0.00  0.00    +0.000 F 
ATOM     11  F   UNL     1       0.270   2.499  19.086  0.00  0.00    +0.000 F 
ENDBRANCH   7   8
BRANCH   7  12
ATOM     12  C   UNL     1       1.503   4.044  20.703  0.00  0.00    +0.000 C 
ATOM     13  F   UNL     1       1.104   2.901  21.311  0.00  0.00    +0.000 F 
ATOM     14  F   UNL     1       2.264   4.709  21.616  0.00  0.00    +0.000 F 
ATOM     15  F   UNL     1       0.406   4.809  20.527  0.00  0.00    +0.000 F 
ENDBRANCH   7  12
BRANCH   7  17
ATOM     16  C   UNL     1       3.507   2.311  21.025  0.00  0.00    +0.000 C 
ATOM     17  O   UNL     1       3.392   2.796  19.692  0.00  0.00    +0.000 OA
ENDBRANCH   7  17
ENDBRANCH   1   7
BRANCH   5  18
ATOM     18  C   UNL     1       6.284   5.817  16.939  0.00  0.00    +0.000 C 
BRANCH  18  19
ATOM     19  C   UNL     1       7.322   5.370  17.997  0.00  0.00    +0.000 C 
ATOM     20  F   UNL     1       6.738   5.004  19.172  0.00  0.00    +0.000 F 
ATOM     21  F   UNL     1       8.140   4.368  17.657  0.00  0.00    +0.000 F 
ATOM     22  F   UNL     1       8.124   6.436  18.318  0.00  0.00    +0.000 F 
ENDBRANCH  18  19
BRANCH  18  23
ATOM     23  C   UNL     1       6.314   4.856  15.721  0.00  0.00    +0.000 C 
ATOM     24  F   UNL     1       5.305   5.108  14.843  0.00  0.00    +0.000 F 
ATOM     25  F   UNL     1       7.461   4.996  15.001  0.00  0.00    +0.000 F 
ATOM     26  F   UNL     1       6.217   3.546  16.015  0.00  0.00    +0.000 F 
ENDBRANCH  18  23
BRANCH  18  27
ATOM     27  O   UNL     1       6.646   7.170  16.459  0.00  0.00    +0.000 OA
ATOM     28  H   UNL     1       5.808   7.660  16.296  0.00  0.00    +0.000 HD
ENDBRANCH  18  27
ENDBRANCH   5  18
TORSDOF 8
ENDMDL
MODEL 7
REMARK VINA RESULT:      -8.5      0.584      1.191
REMARK  Name = 
REMARK  9 active torsions:
REMARK  status: ('A' for Active; 'I' for Inactive)
REMARK    1  A    between atoms: C_1  and  O_2
REMARK    2  A    between atoms: O_2  and  C_3
REMARK    3  A    between atoms: C_3  and  C_4
REMARK    4  A    between atoms: C_3  and  C_20
REMARK    5  A    between atoms: C_3  and  C_24
REMARK    6  A    between atoms: C_8  and  C_9
REMARK    7  A    between atoms: C_9  and  O_10
REMARK    8  A    between atoms: C_9  and  C_11
REMARK    9  A    between atoms: C_9  and  C_15
REMARK                            x       y       z     vdW  Elec       q    Type
REMARK                         _______ _______ _______ _____ _____    ______ ____
ROOT
ATOM      1  C   UNL     1       2.918   4.586  18.745  0.00  0.00    +0.000 A 
ATOM      2  C   UNL     1       2.252   5.799  18.967  0.00  0.00    +0.000 A 
ATOM      3  C   UNL     1       2.753   6.981  18.420  0.00  0.00    +0.000 A 
ATOM      4  C   UNL     1       3.921   6.987  17.648  0.00  0.00    +0.000 A 
ATOM      5  C   UNL     1       4.592   5.792  17.363  0.00  0.00    +0.000 A 
ATOM      6  C   UNL     1       4.064   4.613  17.925  0.00  0.00    +0.000 A 
ENDROOT
BRANCH   1   7
ATOM      7  C   UNL     1       2.443   3.241  19.336  0.00  0.00    +0.000 C 
BRANCH   7   8
ATOM      8  C   UNL     1       1.450   2.557  18.358  0.00  0.00    +0.000 C 
ATOM      9  F   UNL     1       2.092   1.879  17.371  0.00  0.00    +0.000 F 
ATOM     10  F   UNL     1       0.602   1.672  18.926  0.00  0.00    +0.000 F 
ATOM     11  F   UNL     1       0.660   3.463  17.718  0.00  0.00    +0.000 F 
ENDBRANCH   7   8
BRANCH   7  12
ATOM     12  C   UNL     1       1.724   3.329  20.696  0.00  0.00    +0.000 C 
ATOM     13  F   UNL     1       2.375   4.145  21.560  0.00  0.00    +0.000 F 
ATOM     14  F   UNL     1       0.474   3.853  20.555  0.00  0.00    +0.000 F 
ATOM     15  F   UNL     1       1.547   2.145  21.318  0.00  0.00    +0.000 F 
ENDBRANCH   7  12
BRANCH   7  17
ATOM     16  C   UNL     1       4.384   2.414  20.634  0.00  0.00    +0.000 C 
ATOM     17  O   UNL     1       3.620   2.348  19.435  0.00  0.00    +0.000 OA
ENDBRANCH   7  17
ENDBRANCH   1   7
BRANCH   5  18
ATOM     18  C   UNL     1       5.839   5.773  16.462  0.00  0.00    +0.000 C 
BRANCH  18  19
ATOM     19  C   UNL     1       7.138   5.937  17.288  0.00  0.00    +0.000 C 
ATOM     20  F   UNL     1       7.931   6.935  16.809  0.00  0.00    +0.000 F 
ATOM     21  F   UNL     1       6.997   6.165  18.598  0.00  0.00    +0.000 F 
ATOM     22  F   UNL     1       7.893   4.798  17.169  0.00  0.00    +0.000 F 
ENDBRANCH  18  19
BRANCH  18  23
ATOM     23  C   UNL     1       5.931   4.509  15.566  0.00  0.00    +0.000 C 
ATOM     24  F   UNL     1       4.837   4.364  14.769  0.00  0.00    +0.000 F 
ATOM     25  F   UNL     1       6.990   4.577  14.713  0.00  0.00    +0.000 F 
ATOM     26  F   UNL     1       6.056   3.342  16.223  0.00  0.00    +0.000 F 
ENDBRANCH  18  23
BRANCH  18  27
ATOM     27  O   UNL     1       5.687   6.949  15.574  0.00  0.00    +0.000 OA
ATOM     28  H   UNL     1       5.128   6.674  14.813  0.00  0.00    +0.000 HD
ENDBRANCH  18  27
ENDBRANCH   5  18
TORSDOF 8
ENDMDL
MODEL 8
REMARK VINA RESULT:      -8.5      0.091      1.251
REMARK  Name = 
REMARK  9 active torsions:
REMARK  status: ('A' for Active; 'I' for Inactive)
REMARK    1  A    between atoms: C_1  and  O_2
REMARK    2  A    between atoms: O_2  and  C_3
REMARK    3  A    between atoms: C_3  and  C_4
REMARK    4  A    between atoms: C_3  and  C_20
REMARK    5  A    between atoms: C_3  and  C_24
REMARK    6  A    between atoms: C_8  and  C_9
REMARK    7  A    between atoms: C_9  and  O_10
REMARK    8  A    between atoms: C_9  and  C_11
REMARK    9  A    between atoms: C_9  and  C_15
REMARK                            x       y       z     vdW  Elec       q    Type
REMARK                         _______ _______ _______ _____ _____    ______ ____
ROOT
ATOM      1  C   UNL     1       2.980   4.695  18.718  0.00  0.00    +0.000 A 
ATOM      2  C   UNL     1       2.308   5.924  18.789  0.00  0.00    +0.000 A 
ATOM      3  C   UNL     1       2.910   7.079  18.287  0.00  0.00    +0.000 A 
ATOM      4  C   UNL     1       4.184   7.041  17.709  0.00  0.00    +0.000 A 
ATOM      5  C   UNL     1       4.871   5.828  17.577  0.00  0.00    +0.000 A 
ATOM      6  C   UNL     1       4.240   4.678  18.089  0.00  0.00    +0.000 A 
ENDROOT
BRANCH   1   7
ATOM      7  C   UNL     1       2.393   3.380  19.274  0.00  0.00    +0.000 C 
BRANCH   7   8
ATOM      8  C   UNL     1       1.471   2.723  18.212  0.00  0.00    +0.000 C 
ATOM      9  F   UNL     1       0.743   3.645  17.529  0.00  0.00    +0.000 F 
ATOM     10  F   UNL     1       2.107   1.985  17.277  0.00  0.00    +0.000 F 
ATOM     11  F   UNL     1       0.556   1.889  18.779  0.00  0.00    +0.000 F 
ENDBRANCH   7   8
BRANCH   7  12
ATOM     12  C   UNL     1       1.551   3.517  20.558  0.00  0.00    +0.000 C 
ATOM     13  F   UNL     1       0.323   4.029  20.305  0.00  0.00    +0.000 F 
ATOM     14  F   UNL     1       1.340   2.301  21.135  0.00  0.00    +0.000 F 
ATOM     15  F   UNL     1       2.113   4.276  21.521  0.00  0.00    +0.000 F 
ENDBRANCH   7  12
BRANCH   7  17
ATOM     16  C   UNL     1       4.343   2.675  20.630  0.00  0.00    +0.000 C 
ATOM     17  O   UNL     1       3.517   2.441  19.496  0.00  0.00    +0.000 OA
ENDBRANCH   7  17
ENDBRANCH   1   7
BRANCH   5  18
ATOM     18  C   UNL     1       6.244   5.760  16.885  0.00  0.00    +0.000 C 
BRANCH  18  19
ATOM     19  C   UNL     1       7.360   5.357  17.879  0.00  0.00    +0.000 C 
ATOM     20  F   UNL     1       8.245   6.369  18.100  0.00  0.00    +0.000 F 
ATOM     21  F   UNL     1       6.971   4.929  19.085  0.00  0.00    +0.000 F 
ATOM     22  F   UNL     1       8.108   4.347  17.329  0.00  0.00    +0.000 F 
ENDBRANCH  18  19
BRANCH  18  23
ATOM     23  C   UNL     1       6.264   4.823  15.649  0.00  0.00    +0.000 C 
ATOM     24  F   UNL     1       7.406   4.960  14.920  0.00  0.00    +0.000 F 
ATOM     25  F   UNL     1       6.227   3.512  16.015  0.00  0.00    +0.000 F 
ATOM     26  F   UNL     1       5.256   4.995  14.775  0.00  0.00    +0.000 F 
ENDBRANCH  18  23
BRANCH  18  27
ATOM     27  O   UNL     1       6.503   7.140  16.413  0.00  0.00    +0.000 OA
ATOM     28  H   UNL     1       5.667   7.480  16.020  0.00  0.00    +0.000 HD
ENDBRANCH  18  27
ENDBRANCH   5  18
TORSDOF 8
ENDMDL
MODEL 9
REMARK VINA RESULT:      -8.4      0.711      5.873
REMARK  Name = 
REMARK  9 active torsions:
REMARK  status: ('A' for Active; 'I' for Inactive)
REMARK    1  A    between atoms: C_1  and  O_2
REMARK    2  A    between atoms: O_2  and  C_3
REMARK    3  A    between atoms: C_3  and  C_4
REMARK    4  A    between atoms: C_3  and  C_20
REMARK    5  A    between atoms: C_3  and  C_24
REMARK    6  A    between atoms: C_8  and  C_9
REMARK    7  A    between atoms: C_9  and  O_10
REMARK    8  A    between atoms: C_9  and  C_11
REMARK    9  A    between atoms: C_9  and  C_15
REMARK                            x       y       z     vdW  Elec       q    Type
REMARK                         _______ _______ _______ _____ _____    ______ ____
ROOT
ATOM      1  C   UNL     1       4.888   5.809  17.540  0.00  0.00    +0.000 A 
ATOM      2  C   UNL     1       4.110   6.971  17.426  0.00  0.00    +0.000 A 
ATOM      3  C   UNL     1       2.823   7.004  17.966  0.00  0.00    +0.000 A 
ATOM      4  C   UNL     1       2.282   5.893  18.623  0.00  0.00    +0.000 A 
ATOM      5  C   UNL     1       3.041   4.729  18.799  0.00  0.00    +0.000 A 
ATOM      6  C   UNL     1       4.336   4.723  18.247  0.00  0.00    +0.000 A 
ENDROOT
BRANCH   1   7
ATOM      7  C   UNL     1       6.309   5.684  16.948  0.00  0.00    +0.000 C 
BRANCH   7   8
ATOM      8  C   UNL     1       6.260   4.868  15.629  0.00  0.00    +0.000 C 
ATOM      9  F   UNL     1       7.348   5.099  14.847  0.00  0.00    +0.000 F 
ATOM     10  F   UNL     1       6.191   3.528  15.784  0.00  0.00    +0.000 F 
ATOM     11  F   UNL     1       5.187   5.205  14.861  0.00  0.00    +0.000 F 
ENDBRANCH   7   8
BRANCH   7  12
ATOM     12  C   UNL     1       7.348   4.992  17.852  0.00  0.00    +0.000 C 
ATOM     13  F   UNL     1       6.769   4.121  18.713  0.00  0.00    +0.000 F 
ATOM     14  F   UNL     1       8.227   4.260  17.113  0.00  0.00    +0.000 F 
ATOM     15  F   UNL     1       8.109   5.833  18.582  0.00  0.00    +0.000 F 
ENDBRANCH   7  12
BRANCH   7  17
ATOM     16  C   UNL     1       7.520   7.756  17.564  0.00  0.00    +0.000 C 
ATOM     17  O   UNL     1       6.770   7.044  16.587  0.00  0.00    +0.000 OA
ENDBRANCH   7  17
ENDBRANCH   1   7
BRANCH   5  18
ATOM     18  C   UNL     1       2.484   3.524  19.576  0.00  0.00    +0.000 C 
BRANCH  18  19
ATOM     19  C   UNL     1       1.652   3.975  20.801  0.00  0.00    +0.000 C 
ATOM     20  F   UNL     1       2.283   4.939  21.527  0.00  0.00    +0.000 F 
ATOM     21  F   UNL     1       0.419   4.435  20.559  0.00  0.00    +0.000 F 
ATOM     22  F   UNL     1       1.512   2.918  21.663  0.00  0.00    +0.000 F 
ENDBRANCH  18  19
BRANCH  18  23
ATOM     23  C   UNL     1       1.654   2.553  18.694  0.00  0.00    +0.000 C 
ATOM     24  F   UNL     1       2.288   2.251  17.528  0.00  0.00    +0.000 F 
ATOM     25  F   UNL     1       1.456   1.359  19.316  0.00  0.00    +0.000 F 
ATOM     26  F   UNL     1       0.434   2.995  18.338  0.00  0.00    +0.000 F 
ENDBRANCH  18  23
BRANCH  18  27
ATOM     27  O   UNL     1       3.679   2.792  20.056  0.00  0.00    +0.000 OA
ATOM     28  H   UNL     1       4.342   2.800  19.329  0.00  0.00    +0.000 HD
ENDBRANCH  18  27
ENDBRANCH   5  18
TORSDOF 8
ENDMDL
