MODEL 1
REMARK VINA RESULT:      -7.3      0.000      0.000
REMARK  Name = 
REMARK  7 active torsions:
REMARK  status: ('A' for Active; 'I' for Inactive)
REMARK    1  A    between atoms: C_1  and  N_2
REMARK    2  A    between atoms: N_2  and  C_3
REMARK    3  A    between atoms: C_3  and  C_4
REMARK    4  A    between atoms: C_11  and  O_12
REMARK    5  A    between atoms: O_12  and  C_13
REMARK    6  A    between atoms: C_15  and  C_16
REMARK    7  A    between atoms: C_19  and  C_20
REMARK                            x       y       z     vdW  Elec       q    Type
REMARK                         _______ _______ _______ _____ _____    ______ ____
ROOT
ATOM      1  C   UNL     1       2.326   6.644  19.234  0.00  0.00    +0.000 A 
ATOM      2  N   UNL     1       1.977   7.223  20.394  0.00  0.00    +0.000 NA
ATOM      3  N   UNL     1       1.606   6.196  21.170  0.00  0.00    +0.000 N 
ATOM      4  C   UNL     1       1.738   4.968  20.582  0.00  0.00    +0.000 A 
ATOM      5  C   UNL     1       1.476   3.682  21.064  0.00  0.00    +0.000 A 
ATOM      6  C   UNL     1       1.769   2.616  20.216  0.00  0.00    +0.000 A 
ATOM      7  C   UNL     1       2.292   2.831  18.939  0.00  0.00    +0.000 A 
ATOM      8  C   UNL     1       2.470   4.133  18.433  0.00  0.00    +0.000 A 
ATOM      9  C   UNL     1       2.222   5.220  19.300  0.00  0.00    +0.000 A 
ATOM     10  H   UNL     1       1.282   6.398  22.108  0.00  0.00    +0.000 HD
ENDROOT
BRANCH   1  11
ATOM     11  C   UNL     1       2.803   7.486  18.084  0.00  0.00    +0.000 C 
BRANCH  11  13
ATOM     12  C   UNL     1       2.029   9.759  17.941  0.00  0.00    +0.000 C 
ATOM     13  N   UNL     1       1.721   8.372  17.633  0.00  0.00    +0.000 NA
ATOM     14  H   UNL     1       1.625   8.265  16.624  0.00  0.00    +0.000 HD
ENDBRANCH  11  13
ENDBRANCH   1  11
BRANCH   8  15
ATOM     15  O   UNL     1       2.951   4.392  17.164  0.00  0.00    +0.000 OA
BRANCH  15  16
ATOM     16  C   UNL     1       4.306   4.432  16.924  0.00  0.00    +0.000 A 
ATOM     17  C   UNL     1       5.279   4.622  17.910  0.00  0.00    +0.000 A 
ATOM     18  C   UNL     1       6.629   4.724  17.554  0.00  0.00    +0.000 A 
ATOM     19  C   UNL     1       7.014   4.546  16.223  0.00  0.00    +0.000 A 
ATOM     20  C   UNL     1       6.054   4.266  15.247  0.00  0.00    +0.000 A 
ATOM     21  C   UNL     1       4.697   4.214  15.601  0.00  0.00    +0.000 A 
BRANCH  18  22
ATOM     22  C   UNL     1       7.604   5.042  18.554  0.00  0.00    +0.000 C 
ATOM     23  N   UNL     1       8.371   5.317  19.379  0.00  0.00    +0.000 NA
ENDBRANCH  18  22
BRANCH  20  24
ATOM     24  C   UNL     1       6.454   4.042  13.885  0.00  0.00    +0.000 C 
ATOM     25  N   UNL     1       6.776   3.880  12.785  0.00  0.00    +0.000 NA
ENDBRANCH  20  24
ENDBRANCH  15  16
ENDBRANCH   8  15
TORSDOF 6
ENDMDL
MODEL 2
REMARK VINA RESULT:      -7.2      2.503      4.824
REMARK  Name = 
REMARK  7 active torsions:
REMARK  status: ('A' for Active; 'I' for Inactive)
REMARK    1  A    between atoms: C_1  and  N_2
REMARK    2  A    between atoms: N_2  and  C_3
REMARK    3  A    between atoms: C_3  and  C_4
REMARK    4  A    between atoms: C_11  and  O_12
REMARK    5  A    between atoms: O_12  and  C_13
REMARK    6  A    between atoms: C_15  and  C_16
REMARK    7  A    between atoms: C_19  and  C_20
REMARK                            x       y       z     vdW  Elec       q    Type
REMARK                         _______ _______ _______ _____ _____    ______ ____
ROOT
ATOM      1  C   UNL     1       3.761   2.311  20.959  0.00  0.00    +0.000 A 
ATOM      2  N   UNL     1       3.030   2.207  22.080  0.00  0.00    +0.000 NA
ATOM      3  N   UNL     1       2.182   3.242  22.011  0.00  0.00    +0.000 N 
ATOM      4  C   UNL     1       2.299   3.992  20.873  0.00  0.00    +0.000 A 
ATOM      5  C   UNL     1       1.596   5.119  20.437  0.00  0.00    +0.000 A 
ATOM      6  C   UNL     1       1.931   5.627  19.182  0.00  0.00    +0.000 A 
ATOM      7  C   UNL     1       2.932   5.037  18.408  0.00  0.00    +0.000 A 
ATOM      8  C   UNL     1       3.691   3.957  18.896  0.00  0.00    +0.000 A 
ATOM      9  C   UNL     1       3.329   3.403  20.145  0.00  0.00    +0.000 A 
ATOM     10  H   UNL     1       1.529   3.376  22.773  0.00  0.00    +0.000 HD
ENDROOT
BRANCH   1  11
ATOM     11  C   UNL     1       4.848   1.314  20.671  0.00  0.00    +0.000 C 
BRANCH  11  13
ATOM     12  C   UNL     1       6.153  -0.237  21.967  0.00  0.00    +0.000 C 
ATOM     13  N   UNL     1       5.691   1.138  21.861  0.00  0.00    +0.000 NA
ATOM     14  H   UNL     1       6.495   1.757  21.774  0.00  0.00    +0.000 HD
ENDBRANCH  11  13
ENDBRANCH   1  11
BRANCH   8  15
ATOM     15  O   UNL     1       4.712   3.365  18.178  0.00  0.00    +0.000 OA
BRANCH  15  16
ATOM     16  C   UNL     1       5.377   4.066  17.198  0.00  0.00    +0.000 A 
ATOM     17  C   UNL     1       5.417   3.698  15.851  0.00  0.00    +0.000 A 
ATOM     18  C   UNL     1       6.185   4.436  14.943  0.00  0.00    +0.000 A 
ATOM     19  C   UNL     1       6.842   5.595  15.365  0.00  0.00    +0.000 A 
ATOM     20  C   UNL     1       6.732   6.017  16.693  0.00  0.00    +0.000 A 
ATOM     21  C   UNL     1       6.001   5.247  17.610  0.00  0.00    +0.000 A 
BRANCH  18  22
ATOM     22  C   UNL     1       6.319   3.980  13.591  0.00  0.00    +0.000 C 
ATOM     23  N   UNL     1       6.414   3.583  12.506  0.00  0.00    +0.000 NA
ENDBRANCH  18  22
BRANCH  20  24
ATOM     24  C   UNL     1       7.373   7.230  17.119  0.00  0.00    +0.000 C 
ATOM     25  N   UNL     1       7.873   8.215  17.469  0.00  0.00    +0.000 NA
ENDBRANCH  20  24
ENDBRANCH  15  16
ENDBRANCH   8  15
TORSDOF 6
ENDMDL
MODEL 3
REMARK VINA RESULT:      -7.2      1.956      4.254
REMARK  Name = 
REMARK  7 active torsions:
REMARK  status: ('A' for Active; 'I' for Inactive)
REMARK    1  A    between atoms: C_1  and  N_2
REMARK    2  A    between atoms: N_2  and  C_3
REMARK    3  A    between atoms: C_3  and  C_4
REMARK    4  A    between atoms: C_11  and  O_12
REMARK    5  A    between atoms: O_12  and  C_13
REMARK    6  A    between atoms: C_15  and  C_16
REMARK    7  A    between atoms: C_19  and  C_20
REMARK                            x       y       z     vdW  Elec       q    Type
REMARK                         _______ _______ _______ _____ _____    ______ ____
ROOT
ATOM      1  C   UNL     1       1.825   3.081  19.076  0.00  0.00    +0.000 A 
ATOM      2  N   UNL     1       1.125   2.574  20.103  0.00  0.00    +0.000 NA
ATOM      3  N   UNL     1       0.914   3.628  20.903  0.00  0.00    +0.000 N 
ATOM      4  C   UNL     1       1.409   4.809  20.422  0.00  0.00    +0.000 A 
ATOM      5  C   UNL     1       1.376   6.104  20.949  0.00  0.00    +0.000 A 
ATOM      6  C   UNL     1       1.938   7.117  20.173  0.00  0.00    +0.000 A 
ATOM      7  C   UNL     1       2.517   6.840  18.933  0.00  0.00    +0.000 A 
ATOM      8  C   UNL     1       2.623   5.520  18.455  0.00  0.00    +0.000 A 
ATOM      9  C   UNL     1       2.013   4.492  19.209  0.00  0.00    +0.000 A 
ATOM     10  H   UNL     1       0.406   3.479  21.767  0.00  0.00    +0.000 HD
ENDROOT
BRANCH   1  11
ATOM     11  C   UNL     1       2.266   2.189  17.950  0.00  0.00    +0.000 C 
BRANCH  11  13
ATOM     12  C   UNL     1       4.214   1.891  19.329  0.00  0.00    +0.000 C 
ATOM     13  N   UNL     1       3.274   1.236  18.435  0.00  0.00    +0.000 NA
ATOM     14  H   UNL     1       2.790   0.494  18.939  0.00  0.00    +0.000 HD
ENDBRANCH  11  13
ENDBRANCH   1  11
BRANCH   8  15
ATOM     15  O   UNL     1       3.217   5.197  17.251  0.00  0.00    +0.000 OA
BRANCH  15  16
ATOM     16  C   UNL     1       4.583   5.273  17.102  0.00  0.00    +0.000 A 
ATOM     17  C   UNL     1       5.242   5.366  15.872  0.00  0.00    +0.000 A 
ATOM     18  C   UNL     1       6.640   5.361  15.822  0.00  0.00    +0.000 A 
ATOM     19  C   UNL     1       7.381   5.354  17.007  0.00  0.00    +0.000 A 
ATOM     20  C   UNL     1       6.726   5.352  18.241  0.00  0.00    +0.000 A 
ATOM     21  C   UNL     1       5.325   5.307  18.286  0.00  0.00    +0.000 A 
BRANCH  18  22
ATOM     22  C   UNL     1       7.305   5.332  14.553  0.00  0.00    +0.000 C 
ATOM     23  N   UNL     1       7.872   5.311  13.542  0.00  0.00    +0.000 NA
ENDBRANCH  18  22
BRANCH  20  24
ATOM     24  C   UNL     1       7.486   5.385  19.461  0.00  0.00    +0.000 C 
ATOM     25  N   UNL     1       8.084   5.406  20.452  0.00  0.00    +0.000 NA
ENDBRANCH  20  24
ENDBRANCH  15  16
ENDBRANCH   8  15
TORSDOF 6
ENDMDL
MODEL 4
REMARK VINA RESULT:      -7.1      1.865      3.247
REMARK  Name = 
REMARK  7 active torsions:
REMARK  status: ('A' for Active; 'I' for Inactive)
REMARK    1  A    between atoms: C_1  and  N_2
REMARK    2  A    between atoms: N_2  and  C_3
REMARK    3  A    between atoms: C_3  and  C_4
REMARK    4  A    between atoms: C_11  and  O_12
REMARK    5  A    between atoms: O_12  and  C_13
REMARK    6  A    between atoms: C_15  and  C_16
REMARK    7  A    between atoms: C_19  and  C_20
REMARK                            x       y       z     vdW  Elec       q    Type
REMARK                         _______ _______ _______ _____ _____    ______ ____
ROOT
ATOM      1  C   UNL     1       1.814   3.120  19.072  0.00  0.00    +0.000 A 
ATOM      2  N   UNL     1       1.058   2.673  20.089  0.00  0.00    +0.000 NA
ATOM      3  N   UNL     1       0.845   3.764  20.838  0.00  0.00    +0.000 N 
ATOM      4  C   UNL     1       1.394   4.911  20.333  0.00  0.00    +0.000 A 
ATOM      5  C   UNL     1       1.376   6.226  20.807  0.00  0.00    +0.000 A 
ATOM      6  C   UNL     1       1.999   7.191  20.017  0.00  0.00    +0.000 A 
ATOM      7  C   UNL     1       2.619   6.849  18.813  0.00  0.00    +0.000 A 
ATOM      8  C   UNL     1       2.705   5.510  18.391  0.00  0.00    +0.000 A 
ATOM      9  C   UNL     1       2.036   4.529  19.158  0.00  0.00    +0.000 A 
ATOM     10  H   UNL     1       0.299   3.663  21.685  0.00  0.00    +0.000 HD
ENDROOT
BRANCH   1  11
ATOM     11  C   UNL     1       2.274   2.172  18.001  0.00  0.00    +0.000 C 
BRANCH  11  13
ATOM     12  C   UNL     1       4.260   1.689  19.269  0.00  0.00    +0.000 C 
ATOM     13  N   UNL     1       3.742   2.119  17.980  0.00  0.00    +0.000 NA
ATOM     14  H   UNL     1       4.024   1.451  17.265  0.00  0.00    +0.000 HD
ENDBRANCH  11  13
ENDBRANCH   1  11
BRANCH   8  15
ATOM     15  O   UNL     1       3.339   5.123  17.226  0.00  0.00    +0.000 OA
BRANCH  15  16
ATOM     16  C   UNL     1       4.712   5.137  17.138  0.00  0.00    +0.000 A 
ATOM     17  C   UNL     1       5.576   5.112  18.236  0.00  0.00    +0.000 A 
ATOM     18  C   UNL     1       6.959   5.207  18.045  0.00  0.00    +0.000 A 
ATOM     19  C   UNL     1       7.483   5.238  16.750  0.00  0.00    +0.000 A 
ATOM     20  C   UNL     1       6.628   5.173  15.647  0.00  0.00    +0.000 A 
ATOM     21  C   UNL     1       5.240   5.127  15.844  0.00  0.00    +0.000 A 
BRANCH  18  22
ATOM     22  C   UNL     1       7.828   5.305  19.180  0.00  0.00    +0.000 C 
ATOM     23  N   UNL     1       8.534   5.351  20.099  0.00  0.00    +0.000 NA
ENDBRANCH  18  22
BRANCH  20  24
ATOM     24  C   UNL     1       7.168   5.163  14.315  0.00  0.00    +0.000 C 
ATOM     25  N   UNL     1       7.598   5.137  13.240  0.00  0.00    +0.000 NA
ENDBRANCH  20  24
ENDBRANCH  15  16
ENDBRANCH   8  15
TORSDOF 6
ENDMDL
MODEL 5
REMARK VINA RESULT:      -7.1      1.953      3.338
REMARK  Name = 
REMARK  7 active torsions:
REMARK  status: ('A' for Active; 'I' for Inactive)
REMARK    1  A    between atoms: C_1  and  N_2
REMARK    2  A    between atoms: N_2  and  C_3
REMARK    3  A    between atoms: C_3  and  C_4
REMARK    4  A    between atoms: C_11  and  O_12
REMARK    5  A    between atoms: O_12  and  C_13
REMARK    6  A    between atoms: C_15  and  C_16
REMARK    7  A    between atoms: C_19  and  C_20
REMARK                            x       y       z     vdW  Elec       q    Type
REMARK                         _______ _______ _______ _____ _____    ______ ____
ROOT
ATOM      1  C   UNL     1       2.156   2.741  19.728  0.00  0.00    +0.000 A 
ATOM      2  N   UNL     1       1.580   2.446  20.905  0.00  0.00    +0.000 NA
ATOM      3  N   UNL     1       1.323   3.644  21.448  0.00  0.00    +0.000 N 
ATOM      4  C   UNL     1       1.667   4.707  20.660  0.00  0.00    +0.000 A 
ATOM      5  C   UNL     1       1.544   6.084  20.865  0.00  0.00    +0.000 A 
ATOM      6  C   UNL     1       1.952   6.919  19.825  0.00  0.00    +0.000 A 
ATOM      7  C   UNL     1       2.469   6.393  18.639  0.00  0.00    +0.000 A 
ATOM      8  C   UNL     1       2.669   5.010  18.479  0.00  0.00    +0.000 A 
ATOM      9  C   UNL     1       2.215   4.151  19.506  0.00  0.00    +0.000 A 
ATOM     10  H   UNL     1       0.892   3.671  22.365  0.00  0.00    +0.000 HD
ENDROOT
BRANCH   1  11
ATOM     11  C   UNL     1       2.604   1.639  18.811  0.00  0.00    +0.000 C 
BRANCH  11  13
ATOM     12  C   UNL     1       4.650   1.949  20.037  0.00  0.00    +0.000 C 
ATOM     13  N   UNL     1       4.072   1.608  18.747  0.00  0.00    +0.000 NA
ATOM     14  H   UNL     1       4.358   0.666  18.488  0.00  0.00    +0.000 HD
ENDBRANCH  11  13
ENDBRANCH   1  11
BRANCH   8  15
ATOM     15  O   UNL     1       3.209   4.450  17.337  0.00  0.00    +0.000 OA
BRANCH  15  16
ATOM     16  C   UNL     1       4.474   4.795  16.920  0.00  0.00    +0.000 A 
ATOM     17  C   UNL     1       5.397   5.505  17.693  0.00  0.00    +0.000 A 
ATOM     18  C   UNL     1       6.633   5.875  17.150  0.00  0.00    +0.000 A 
ATOM     19  C   UNL     1       6.981   5.457  15.863  0.00  0.00    +0.000 A 
ATOM     20  C   UNL     1       6.098   4.671  15.118  0.00  0.00    +0.000 A 
ATOM     21  C   UNL     1       4.841   4.344  15.649  0.00  0.00    +0.000 A 
BRANCH  18  22
ATOM     22  C   UNL     1       7.520   6.707  17.905  0.00  0.00    +0.000 C 
ATOM     23  N   UNL     1       8.253   7.354  18.530  0.00  0.00    +0.000 NA
ENDBRANCH  18  22
BRANCH  20  24
ATOM     24  C   UNL     1       6.472   4.206  13.811  0.00  0.00    +0.000 C 
ATOM     25  N   UNL     1       6.773   3.814  12.764  0.00  0.00    +0.000 NA
ENDBRANCH  20  24
ENDBRANCH  15  16
ENDBRANCH   8  15
TORSDOF 6
ENDMDL
MODEL 6
REMARK VINA RESULT:      -7.1      0.677      2.742
REMARK  Name = 
REMARK  7 active torsions:
REMARK  status: ('A' for Active; 'I' for Inactive)
REMARK    1  A    between atoms: C_1  and  N_2
REMARK    2  A    between atoms: N_2  and  C_3
REMARK    3  A    between atoms: C_3  and  C_4
REMARK    4  A    between atoms: C_11  and  O_12
REMARK    5  A    between atoms: O_12  and  C_13
REMARK    6  A    between atoms: C_15  and  C_16
REMARK    7  A    between atoms: C_19  and  C_20
REMARK                            x       y       z     vdW  Elec       q    Type
REMARK                         _______ _______ _______ _____ _____    ______ ____
ROOT
ATOM      1  C   UNL     1       2.300   6.804  19.240  0.00  0.00    +0.000 A 
ATOM      2  N   UNL     1       1.873   7.366  20.382  0.00  0.00    +0.000 NA
ATOM      3  N   UNL     1       1.566   6.321  21.162  0.00  0.00    +0.000 N 
ATOM      4  C   UNL     1       1.814   5.101  20.595  0.00  0.00    +0.000 A 
ATOM      5  C   UNL     1       1.645   3.804  21.089  0.00  0.00    +0.000 A 
ATOM      6  C   UNL     1       2.048   2.755  20.263  0.00  0.00    +0.000 A 
ATOM      7  C   UNL     1       2.586   2.998  18.998  0.00  0.00    +0.000 A 
ATOM      8  C   UNL     1       2.671   4.303  18.479  0.00  0.00    +0.000 A 
ATOM      9  C   UNL     1       2.311   5.377  19.324  0.00  0.00    +0.000 A 
ATOM     10  H   UNL     1       1.201   6.506  22.089  0.00  0.00    +0.000 HD
ENDROOT
BRANCH   1  11
ATOM     11  C   UNL     1       2.738   7.668  18.091  0.00  0.00    +0.000 C 
BRANCH  11  13
ATOM     12  C   UNL     1       2.032   9.962  17.932  0.00  0.00    +0.000 C 
ATOM     13  N   UNL     1       1.649   8.577  17.708  0.00  0.00    +0.000 NA
ATOM     14  H   UNL     1       1.453   8.438  16.719  0.00  0.00    +0.000 HD
ENDBRANCH  11  13
ENDBRANCH   1  11
BRANCH   8  15
ATOM     15  O   UNL     1       3.164   4.586  17.220  0.00  0.00    +0.000 OA
BRANCH  15  16
ATOM     16  C   UNL     1       4.508   4.813  17.029  0.00  0.00    +0.000 A 
ATOM     17  C   UNL     1       5.117   4.957  15.780  0.00  0.00    +0.000 A 
ATOM     18  C   UNL     1       6.505   5.110  15.688  0.00  0.00    +0.000 A 
ATOM     19  C   UNL     1       7.274   5.208  16.850  0.00  0.00    +0.000 A 
ATOM     20  C   UNL     1       6.659   5.155  18.103  0.00  0.00    +0.000 A 
ATOM     21  C   UNL     1       5.273   4.952  18.190  0.00  0.00    +0.000 A 
BRANCH  18  22
ATOM     22  C   UNL     1       7.134   5.132  14.400  0.00  0.00    +0.000 C 
ATOM     23  N   UNL     1       7.664   5.172  13.370  0.00  0.00    +0.000 NA
ENDBRANCH  18  22
BRANCH  20  24
ATOM     24  C   UNL     1       7.444   5.297  19.299  0.00  0.00    +0.000 C 
ATOM     25  N   UNL     1       8.070   5.429  20.264  0.00  0.00    +0.000 NA
ENDBRANCH  20  24
ENDBRANCH  15  16
ENDBRANCH   8  15
TORSDOF 6
ENDMDL
MODEL 7
REMARK VINA RESULT:      -7.0      1.821      4.238
REMARK  Name = 
REMARK  7 active torsions:
REMARK  status: ('A' for Active; 'I' for Inactive)
REMARK    1  A    between atoms: C_1  and  N_2
REMARK    2  A    between atoms: N_2  and  C_3
REMARK    3  A    between atoms: C_3  and  C_4
REMARK    4  A    between atoms: C_11  and  O_12
REMARK    5  A    between atoms: O_12  and  C_13
REMARK    6  A    between atoms: C_15  and  C_16
REMARK    7  A    between atoms: C_19  and  C_20
REMARK                            x       y       z     vdW  Elec       q    Type
REMARK                         _______ _______ _______ _____ _____    ______ ____
ROOT
ATOM      1  C   UNL     1       2.143   2.890  19.714  0.00  0.00    +0.000 A 
ATOM      2  N   UNL     1       1.599   2.701  20.927  0.00  0.00    +0.000 NA
ATOM      3  N   UNL     1       1.430   3.941  21.404  0.00  0.00    +0.000 N 
ATOM      4  C   UNL     1       1.801   4.934  20.539  0.00  0.00    +0.000 A 
ATOM      5  C   UNL     1       1.763   6.326  20.663  0.00  0.00    +0.000 A 
ATOM      6  C   UNL     1       2.175   7.071  19.558  0.00  0.00    +0.000 A 
ATOM      7  C   UNL     1       2.615   6.446  18.389  0.00  0.00    +0.000 A 
ATOM      8  C   UNL     1       2.731   5.046  18.309  0.00  0.00    +0.000 A 
ATOM      9  C   UNL     1       2.271   4.279  19.403  0.00  0.00    +0.000 A 
ATOM     10  H   UNL     1       1.038   4.048  22.332  0.00  0.00    +0.000 HD
ENDROOT
BRANCH   1  11
ATOM     11  C   UNL     1       2.492   1.711  18.851  0.00  0.00    +0.000 C 
BRANCH  11  13
ATOM     12  C   UNL     1       4.688   1.791  19.830  0.00  0.00    +0.000 C 
ATOM     13  N   UNL     1       3.937   1.696  18.588  0.00  0.00    +0.000 NA
ATOM     14  H   UNL     1       4.165   0.819  18.123  0.00  0.00    +0.000 HD
ENDBRANCH  11  13
ENDBRANCH   1  11
BRANCH   8  15
ATOM     15  O   UNL     1       3.193   4.389  17.185  0.00  0.00    +0.000 OA
BRANCH  15  16
ATOM     16  C   UNL     1       4.433   4.681  16.663  0.00  0.00    +0.000 A 
ATOM     17  C   UNL     1       4.835   4.375  15.360  0.00  0.00    +0.000 A 
ATOM     18  C   UNL     1       6.144   4.646  14.947  0.00  0.00    +0.000 A 
ATOM     19  C   UNL     1       7.025   5.305  15.808  0.00  0.00    +0.000 A 
ATOM     20  C   UNL     1       6.600   5.694  17.081  0.00  0.00    +0.000 A 
ATOM     21  C   UNL     1       5.301   5.376  17.508  0.00  0.00    +0.000 A 
BRANCH  18  22
ATOM     22  C   UNL     1       6.584   4.216  13.653  0.00  0.00    +0.000 C 
ATOM     23  N   UNL     1       6.918   3.890  12.592  0.00  0.00    +0.000 NA
ENDBRANCH  18  22
BRANCH  20  24
ATOM     24  C   UNL     1       7.492   6.408  17.953  0.00  0.00    +0.000 C 
ATOM     25  N   UNL     1       8.221   6.968  18.657  0.00  0.00    +0.000 NA
ENDBRANCH  20  24
ENDBRANCH  15  16
ENDBRANCH   8  15
TORSDOF 6
ENDMDL
MODEL 8
REMARK VINA RESULT:      -6.9      1.398      3.171
REMARK  Name = 
REMARK  7 active torsions:
REMARK  status: ('A' for Active; 'I' for Inactive)
REMARK    1  A    between atoms: C_1  and  N_2
REMARK    2  A    between atoms: N_2  and  C_3
REMARK    3  A    between atoms: C_3  and  C_4
REMARK    4  A    between atoms: C_11  and  O_12
REMARK    5  A    between atoms: O_12  and  C_13
REMARK    6  A    between atoms: C_15  and  C_16
REMARK    7  A    between atoms: C_19  and  C_20
REMARK                            x       y       z     vdW  Elec       q    Type
REMARK                         _______ _______ _______ _____ _____    ______ ____
ROOT
ATOM      1  C   UNL     1       1.931   5.488  19.967  0.00  0.00    +0.000 A 
ATOM      2  N   UNL     1       1.332   5.123  21.111  0.00  0.00    +0.000 NA
ATOM      3  N   UNL     1       1.074   3.819  20.939  0.00  0.00    +0.000 N 
ATOM      4  C   UNL     1       1.516   3.308  19.750  0.00  0.00    +0.000 A 
ATOM      5  C   UNL     1       1.450   2.016  19.221  0.00  0.00    +0.000 A 
ATOM      6  C   UNL     1       2.050   1.808  17.980  0.00  0.00    +0.000 A 
ATOM      7  C   UNL     1       2.678   2.853  17.298  0.00  0.00    +0.000 A 
ATOM      8  C   UNL     1       2.660   4.167  17.800  0.00  0.00    +0.000 A 
ATOM      9  C   UNL     1       2.098   4.381  19.079  0.00  0.00    +0.000 A 
ATOM     10  H   UNL     1       0.601   3.323  21.685  0.00  0.00    +0.000 HD
ENDROOT
BRANCH   1  11
ATOM     11  C   UNL     1       2.376   6.910  19.769  0.00  0.00    +0.000 C 
BRANCH  11  13
ATOM     12  C   UNL     1       1.116   8.915  20.192  0.00  0.00    +0.000 C 
ATOM     13  N   UNL     1       1.773   7.769  20.798  0.00  0.00    +0.000 NA
ATOM     14  H   UNL     1       1.086   7.217  21.307  0.00  0.00    +0.000 HD
ENDBRANCH  11  13
ENDBRANCH   1  11
BRANCH   8  15
ATOM     15  O   UNL     1       3.238   5.236  17.143  0.00  0.00    +0.000 OA
BRANCH  15  16
ATOM     16  C   UNL     1       4.605   5.317  17.005  0.00  0.00    +0.000 A 
ATOM     17  C   UNL     1       5.274   5.399  15.781  0.00  0.00    +0.000 A 
ATOM     18  C   UNL     1       6.673   5.401  15.743  0.00  0.00    +0.000 A 
ATOM     19  C   UNL     1       7.403   5.412  16.934  0.00  0.00    +0.000 A 
ATOM     20  C   UNL     1       6.737   5.421  18.163  0.00  0.00    +0.000 A 
ATOM     21  C   UNL     1       5.336   5.369  18.195  0.00  0.00    +0.000 A 
BRANCH  18  22
ATOM     22  C   UNL     1       7.349   5.359  14.480  0.00  0.00    +0.000 C 
ATOM     23  N   UNL     1       7.895   5.358  13.457  0.00  0.00    +0.000 NA
ENDBRANCH  18  22
BRANCH  20  24
ATOM     24  C   UNL     1       7.486   5.474  19.388  0.00  0.00    +0.000 C 
ATOM     25  N   UNL     1       8.089   5.498  20.377  0.00  0.00    +0.000 NA
ENDBRANCH  20  24
ENDBRANCH  15  16
ENDBRANCH   8  15
TORSDOF 6
ENDMDL
MODEL 9
REMARK VINA RESULT:      -6.9      2.047      3.254
REMARK  Name = 
REMARK  7 active torsions:
REMARK  status: ('A' for Active; 'I' for Inactive)
REMARK    1  A    between atoms: C_1  and  N_2
REMARK    2  A    between atoms: N_2  and  C_3
REMARK    3  A    between atoms: C_3  and  C_4
REMARK    4  A    between atoms: C_11  and  O_12
REMARK    5  A    between atoms: O_12  and  C_13
REMARK    6  A    between atoms: C_15  and  C_16
REMARK    7  A    between atoms: C_19  and  C_20
REMARK                            x       y       z     vdW  Elec       q    Type
REMARK                         _______ _______ _______ _____ _____    ______ ____
ROOT
ATOM      1  C   UNL     1       2.961   2.984  20.042  0.00  0.00    +0.000 A 
ATOM      2  N   UNL     1       2.671   2.676  21.316  0.00  0.00    +0.000 NA
ATOM      3  N   UNL     1       2.258   3.836  21.844  0.00  0.00    +0.000 N 
ATOM      4  C   UNL     1       2.226   4.879  20.959  0.00  0.00    +0.000 A 
ATOM      5  C   UNL     1       1.846   6.214  21.123  0.00  0.00    +0.000 A 
ATOM      6  C   UNL     1       1.881   7.025  19.990  0.00  0.00    +0.000 A 
ATOM      7  C   UNL     1       2.289   6.521  18.753  0.00  0.00    +0.000 A 
ATOM      8  C   UNL     1       2.753   5.199  18.621  0.00  0.00    +0.000 A 
ATOM      9  C   UNL     1       2.675   4.353  19.751  0.00  0.00    +0.000 A 
ATOM     10  H   UNL     1       1.994   3.849  22.822  0.00  0.00    +0.000 HD
ENDROOT
BRANCH   1  11
ATOM     11  C   UNL     1       3.472   1.924  19.107  0.00  0.00    +0.000 C 
BRANCH  11  13
ATOM     12  C   UNL     1       1.147   1.851  18.497  0.00  0.00    +0.000 C 
ATOM     13  N   UNL     1       2.512   1.717  18.015  0.00  0.00    +0.000 NA
ATOM     14  H   UNL     1       2.687   2.422  17.301  0.00  0.00    +0.000 HD
ENDBRANCH  11  13
ENDBRANCH   1  11
BRANCH   8  15
ATOM     15  O   UNL     1       3.198   4.669  17.425  0.00  0.00    +0.000 OA
BRANCH  15  16
ATOM     16  C   UNL     1       4.450   4.979  16.945  0.00  0.00    +0.000 A 
ATOM     17  C   UNL     1       5.390   5.755  17.629  0.00  0.00    +0.000 A 
ATOM     18  C   UNL     1       6.609   6.078  17.023  0.00  0.00    +0.000 A 
ATOM     19  C   UNL     1       6.926   5.551  15.769  0.00  0.00    +0.000 A 
ATOM     20  C   UNL     1       6.027   4.700  15.119  0.00  0.00    +0.000 A 
ATOM     21  C   UNL     1       4.785   4.419  15.709  0.00  0.00    +0.000 A 
BRANCH  18  22
ATOM     22  C   UNL     1       7.513   6.975  17.679  0.00  0.00    +0.000 C 
ATOM     23  N   UNL     1       8.236   7.688  18.240  0.00  0.00    +0.000 NA
ENDBRANCH  18  22
BRANCH  20  24
ATOM     24  C   UNL     1       6.368   4.124  13.848  0.00  0.00    +0.000 C 
ATOM     25  N   UNL     1       6.661   3.667  12.825  0.00  0.00    +0.000 NA
ENDBRANCH  20  24
ENDBRANCH  15  16
ENDBRANCH   8  15
TORSDOF 6
ENDMDL
