MODEL 1
REMARK VINA RESULT:      -7.7      0.000      0.000
REMARK  Name = 
REMARK  11 active torsions:
REMARK  status: ('A' for Active; 'I' for Inactive)
REMARK    1  A    between atoms: C_2  and  O_3
REMARK    2  A    between atoms: C_2  and  C_11
REMARK    3  A    between atoms: O_3  and  C_4
REMARK    4  A    between atoms: C_4  and  C_5
REMARK    5  A    between atoms: C_11  and  C_12
REMARK    6  A    between atoms: C_11  and  N_19
REMARK    7  A    between atoms: C_12  and  C_13
REMARK    8  A    between atoms: N_19  and  C_20
REMARK    9  A    between atoms: N_19  and  C_27
REMARK   10  A    between atoms: C_20  and  C_21
REMARK   11  A    between atoms: C_27  and  C_28
REMARK                            x       y       z     vdW  Elec       q    Type
REMARK                         _______ _______ _______ _____ _____    ______ ____
ROOT
ATOM      1  C   UNL     1       4.711   4.387  16.396  0.00  0.00    +0.000 C 
ENDROOT
BRANCH   1   3
ATOM      2  O   UNL     1       2.367   3.509  16.450  0.00  0.00    +0.000 OA
ATOM      3  C   UNL     1       3.547   3.406  16.744  0.00  0.00    +0.000 C 
BRANCH   3   4
ATOM      4  O   UNL     1       4.059   2.389  17.485  0.00  0.00    +0.000 OA
BRANCH   4   5
ATOM      5  C   UNL     1       3.204   1.437  18.123  0.00  0.00    +0.000 C 
BRANCH   5   6
ATOM      6  C   UNL     1       2.564   2.151  19.294  0.00  0.00    +0.000 A 
ATOM      7  C   UNL     1       3.301   2.405  20.456  0.00  0.00    +0.000 A 
ATOM      8  C   UNL     1       2.703   3.038  21.547  0.00  0.00    +0.000 A 
ATOM      9  C   UNL     1       1.364   3.428  21.491  0.00  0.00    +0.000 A 
ATOM     10  C   UNL     1       0.626   3.204  20.334  0.00  0.00    +0.000 A 
ATOM     11  C   UNL     1       1.227   2.584  19.240  0.00  0.00    +0.000 A 
ENDBRANCH   5   6
ENDBRANCH   4   5
ENDBRANCH   3   4
ENDBRANCH   1   3
BRANCH   1  12
ATOM     12  C   UNL     1       5.869   3.569  15.774  0.00  0.00    +0.000 C 
BRANCH  12  13
ATOM     13  C   UNL     1       6.386   3.960  14.417  0.00  0.00    +0.000 A 
ATOM     14  C   UNL     1       5.891   3.339  13.261  0.00  0.00    +0.000 A 
ATOM     15  C   UNL     1       6.352   3.712  12.000  0.00  0.00    +0.000 A 
ATOM     16  C   UNL     1       7.306   4.724  11.886  0.00  0.00    +0.000 A 
ATOM     17  C   UNL     1       7.789   5.357  13.020  0.00  0.00    +0.000 A 
ATOM     18  C   UNL     1       7.330   4.981  14.280  0.00  0.00    +0.000 A 
ENDBRANCH  12  13
ENDBRANCH   1  12
BRANCH   1  19
ATOM     19  N   UNL     1       4.951   5.391  17.481  0.00  0.00    +0.000 NA
BRANCH  19  20
ATOM     20  C   UNL     1       4.007   5.288  18.619  0.00  0.00    +0.000 C 
BRANCH  20  21
ATOM     21  C   UNL     1       3.067   6.484  18.727  0.00  0.00    +0.000 A 
ATOM     22  C   UNL     1       3.002   7.442  17.704  0.00  0.00    +0.000 A 
ATOM     23  C   UNL     1       2.309   8.641  17.897  0.00  0.00    +0.000 A 
ATOM     24  C   UNL     1       1.664   8.889  19.107  0.00  0.00    +0.000 A 
ATOM     25  C   UNL     1       1.650   7.910  20.098  0.00  0.00    +0.000 A 
ATOM     26  C   UNL     1       2.325   6.704  19.897  0.00  0.00    +0.000 A 
ENDBRANCH  20  21
ENDBRANCH  19  20
BRANCH  19  27
ATOM     27  C   UNL     1       6.371   5.396  17.959  0.00  0.00    +0.000 C 
BRANCH  27  28
ATOM     28  C   UNL     1       7.105   6.739  18.034  0.00  0.00    +0.000 A 
ATOM     29  C   UNL     1       8.211   6.945  18.868  0.00  0.00    +0.000 A 
ATOM     30  C   UNL     1       8.853   8.173  18.983  0.00  0.00    +0.000 A 
ATOM     31  C   UNL     1       8.420   9.241  18.226  0.00  0.00    +0.000 A 
ATOM     32  C   UNL     1       7.352   9.060  17.349  0.00  0.00    +0.000 A 
ATOM     33  C   UNL     1       6.713   7.817  17.240  0.00  0.00    +0.000 A 
ENDBRANCH  27  28
ENDBRANCH  19  27
ENDBRANCH   1  19
TORSDOF 11
ENDMDL
MODEL 2
REMARK VINA RESULT:      -7.7      5.340      9.511
REMARK  Name = 
REMARK  11 active torsions:
REMARK  status: ('A' for Active; 'I' for Inactive)
REMARK    1  A    between atoms: C_2  and  O_3
REMARK    2  A    between atoms: C_2  and  C_11
REMARK    3  A    between atoms: O_3  and  C_4
REMARK    4  A    between atoms: C_4  and  C_5
REMARK    5  A    between atoms: C_11  and  C_12
REMARK    6  A    between atoms: C_11  and  N_19
REMARK    7  A    between atoms: C_12  and  C_13
REMARK    8  A    between atoms: N_19  and  C_20
REMARK    9  A    between atoms: N_19  and  C_27
REMARK   10  A    between atoms: C_20  and  C_21
REMARK   11  A    between atoms: C_27  and  C_28
REMARK                            x       y       z     vdW  Elec       q    Type
REMARK                         _______ _______ _______ _____ _____    ______ ____
ROOT
ATOM      1  C   UNL     1       0.296   9.097  20.167  0.00  0.00    +0.000 C 
ENDROOT
BRANCH   1   3
ATOM      2  O   UNL     1      -0.780   8.414  22.322  0.00  0.00    +0.000 OA
ATOM      3  C   UNL     1      -0.359   9.281  21.573  0.00  0.00    +0.000 C 
BRANCH   3   4
ATOM      4  O   UNL     1      -0.422  10.611  21.840  0.00  0.00    +0.000 OA
BRANCH   4   5
ATOM      5  C   UNL     1      -1.142  11.104  22.972  0.00  0.00    +0.000 C 
BRANCH   5   6
ATOM      6  C   UNL     1      -1.634  12.486  22.599  0.00  0.00    +0.000 A 
ATOM      7  C   UNL     1      -2.462  12.666  21.486  0.00  0.00    +0.000 A 
ATOM      8  C   UNL     1      -2.892  13.944  21.125  0.00  0.00    +0.000 A 
ATOM      9  C   UNL     1      -2.505  15.057  21.872  0.00  0.00    +0.000 A 
ATOM     10  C   UNL     1      -1.702  14.891  22.995  0.00  0.00    +0.000 A 
ATOM     11  C   UNL     1      -1.283  13.614  23.363  0.00  0.00    +0.000 A 
ENDBRANCH   5   6
ENDBRANCH   4   5
ENDBRANCH   3   4
ENDBRANCH   1   3
BRANCH   1  12
ATOM     12  C   UNL     1       1.732   8.555  20.364  0.00  0.00    +0.000 C 
BRANCH  12  13
ATOM     13  C   UNL     1       2.080   7.202  19.807  0.00  0.00    +0.000 A 
ATOM     14  C   UNL     1       1.817   6.039  20.545  0.00  0.00    +0.000 A 
ATOM     15  C   UNL     1       2.119   4.782  20.025  0.00  0.00    +0.000 A 
ATOM     16  C   UNL     1       2.674   4.680  18.749  0.00  0.00    +0.000 A 
ATOM     17  C   UNL     1       2.921   5.821  18.002  0.00  0.00    +0.000 A 
ATOM     18  C   UNL     1       2.623   7.076  18.525  0.00  0.00    +0.000 A 
ENDBRANCH  12  13
ENDBRANCH   1  12
BRANCH   1  19
ATOM     19  N   UNL     1       0.009  10.249  19.253  0.00  0.00    +0.000 NA
BRANCH  19  20
ATOM     20  C   UNL     1       1.151  11.176  19.073  0.00  0.00    +0.000 C 
BRANCH  20  21
ATOM     21  C   UNL     1       0.816  12.617  19.440  0.00  0.00    +0.000 A 
ATOM     22  C   UNL     1       0.002  13.401  18.608  0.00  0.00    +0.000 A 
ATOM     23  C   UNL     1      -0.127  14.775  18.831  0.00  0.00    +0.000 A 
ATOM     24  C   UNL     1       0.545  15.378  19.893  0.00  0.00    +0.000 A 
ATOM     25  C   UNL     1       1.287  14.597  20.775  0.00  0.00    +0.000 A 
ATOM     26  C   UNL     1       1.399  13.220  20.565  0.00  0.00    +0.000 A 
ENDBRANCH  20  21
ENDBRANCH  19  20
BRANCH  19  27
ATOM     27  C   UNL     1      -0.546   9.813  17.931  0.00  0.00    +0.000 C 
BRANCH  27  28
ATOM     28  C   UNL     1      -1.908  10.365  17.499  0.00  0.00    +0.000 A 
ATOM     29  C   UNL     1      -2.389  10.242  16.190  0.00  0.00    +0.000 A 
ATOM     30  C   UNL     1      -3.600  10.783  15.774  0.00  0.00    +0.000 A 
ATOM     31  C   UNL     1      -4.397  11.446  16.683  0.00  0.00    +0.000 A 
ATOM     32  C   UNL     1      -3.973  11.547  18.007  0.00  0.00    +0.000 A 
ATOM     33  C   UNL     1      -2.750  10.996  18.416  0.00  0.00    +0.000 A 
ENDBRANCH  27  28
ENDBRANCH  19  27
ENDBRANCH   1  19
TORSDOF 11
ENDMDL
MODEL 3
REMARK VINA RESULT:      -7.7      3.139      7.396
REMARK  Name = 
REMARK  11 active torsions:
REMARK  status: ('A' for Active; 'I' for Inactive)
REMARK    1  A    between atoms: C_2  and  O_3
REMARK    2  A    between atoms: C_2  and  C_11
REMARK    3  A    between atoms: O_3  and  C_4
REMARK    4  A    between atoms: C_4  and  C_5
REMARK    5  A    between atoms: C_11  and  C_12
REMARK    6  A    between atoms: C_11  and  N_19
REMARK    7  A    between atoms: C_12  and  C_13
REMARK    8  A    between atoms: N_19  and  C_20
REMARK    9  A    between atoms: N_19  and  C_27
REMARK   10  A    between atoms: C_20  and  C_21
REMARK   11  A    between atoms: C_27  and  C_28
REMARK                            x       y       z     vdW  Elec       q    Type
REMARK                         _______ _______ _______ _____ _____    ______ ____
ROOT
ATOM      1  C   UNL     1       2.191   8.018  18.957  0.00  0.00    +0.000 C 
ENDROOT
BRANCH   1   3
ATOM      2  O   UNL     1       1.248   6.683  20.853  0.00  0.00    +0.000 OA
ATOM      3  C   UNL     1       1.640   7.743  20.391  0.00  0.00    +0.000 C 
BRANCH   3   4
ATOM      4  O   UNL     1       1.630   8.917  21.073  0.00  0.00    +0.000 OA
BRANCH   4   5
ATOM      5  C   UNL     1       1.107   8.997  22.401  0.00  0.00    +0.000 C 
BRANCH   5   6
ATOM      6  C   UNL     1       0.215  10.219  22.439  0.00  0.00    +0.000 A 
ATOM      7  C   UNL     1       0.568  11.374  21.733  0.00  0.00    +0.000 A 
ATOM      8  C   UNL     1      -0.239  12.512  21.790  0.00  0.00    +0.000 A 
ATOM      9  C   UNL     1      -1.410  12.509  22.550  0.00  0.00    +0.000 A 
ATOM     10  C   UNL     1      -1.786  11.360  23.238  0.00  0.00    +0.000 A 
ATOM     11  C   UNL     1      -0.987  10.221  23.169  0.00  0.00    +0.000 A 
ENDBRANCH   5   6
ENDBRANCH   4   5
ENDBRANCH   3   4
ENDBRANCH   1   3
BRANCH   1  12
ATOM     12  C   UNL     1       1.052   8.628  18.104  0.00  0.00    +0.000 C 
BRANCH  12  13
ATOM     13  C   UNL     1       0.796  10.107  18.188  0.00  0.00    +0.000 A 
ATOM     14  C   UNL     1      -0.515  10.599  18.271  0.00  0.00    +0.000 A 
ATOM     15  C   UNL     1      -0.757  11.968  18.369  0.00  0.00    +0.000 A 
ATOM     16  C   UNL     1       0.318  12.857  18.400  0.00  0.00    +0.000 A 
ATOM     17  C   UNL     1       1.618  12.382  18.337  0.00  0.00    +0.000 A 
ATOM     18  C   UNL     1       1.858  11.014  18.235  0.00  0.00    +0.000 A 
ENDBRANCH  12  13
ENDBRANCH   1  12
BRANCH   1  19
ATOM     19  N   UNL     1       3.037   6.891  18.448  0.00  0.00    +0.000 NA
BRANCH  19  20
ATOM     20  C   UNL     1       2.260   5.744  17.919  0.00  0.00    +0.000 C 
BRANCH  20  21
ATOM     21  C   UNL     1       2.883   4.394  18.254  0.00  0.00    +0.000 A 
ATOM     22  C   UNL     1       2.835   3.332  17.338  0.00  0.00    +0.000 A 
ATOM     23  C   UNL     1       3.210   2.042  17.727  0.00  0.00    +0.000 A 
ATOM     24  C   UNL     1       3.648   1.802  19.027  0.00  0.00    +0.000 A 
ATOM     25  C   UNL     1       3.780   2.863  19.920  0.00  0.00    +0.000 A 
ATOM     26  C   UNL     1       3.426   4.156  19.526  0.00  0.00    +0.000 A 
ENDBRANCH  20  21
ENDBRANCH  19  20
BRANCH  19  27
ATOM     27  C   UNL     1       4.070   7.343  17.461  0.00  0.00    +0.000 C 
BRANCH  27  28
ATOM     28  C   UNL     1       5.170   6.355  17.061  0.00  0.00    +0.000 A 
ATOM     29  C   UNL     1       5.256   5.806  15.776  0.00  0.00    +0.000 A 
ATOM     30  C   UNL     1       6.219   4.869  15.415  0.00  0.00    +0.000 A 
ATOM     31  C   UNL     1       7.163   4.474  16.340  0.00  0.00    +0.000 A 
ATOM     32  C   UNL     1       7.138   5.035  17.614  0.00  0.00    +0.000 A 
ATOM     33  C   UNL     1       6.163   5.980  17.967  0.00  0.00    +0.000 A 
ENDBRANCH  27  28
ENDBRANCH  19  27
ENDBRANCH   1  19
TORSDOF 11
ENDMDL
MODEL 4
REMARK VINA RESULT:      -7.7      1.432      6.332
REMARK  Name = 
REMARK  11 active torsions:
REMARK  status: ('A' for Active; 'I' for Inactive)
REMARK    1  A    between atoms: C_2  and  O_3
REMARK    2  A    between atoms: C_2  and  C_11
REMARK    3  A    between atoms: O_3  and  C_4
REMARK    4  A    between atoms: C_4  and  C_5
REMARK    5  A    between atoms: C_11  and  C_12
REMARK    6  A    between atoms: C_11  and  N_19
REMARK    7  A    between atoms: C_12  and  C_13
REMARK    8  A    between atoms: N_19  and  C_20
REMARK    9  A    between atoms: N_19  and  C_27
REMARK   10  A    between atoms: C_20  and  C_21
REMARK   11  A    between atoms: C_27  and  C_28
REMARK                            x       y       z     vdW  Elec       q    Type
REMARK                         _______ _______ _______ _____ _____    ______ ____
ROOT
ATOM      1  C   UNL     1       3.416   4.838  17.234  0.00  0.00    +0.000 C 
ENDROOT
BRANCH   1   3
ATOM      2  O   UNL     1       3.587   5.885  19.501  0.00  0.00    +0.000 OA
ATOM      3  C   UNL     1       3.159   5.890  18.358  0.00  0.00    +0.000 C 
BRANCH   3   4
ATOM      4  O   UNL     1       2.326   6.842  17.864  0.00  0.00    +0.000 OA
BRANCH   4   5
ATOM      5  C   UNL     1       2.669   8.228  17.924  0.00  0.00    +0.000 C 
BRANCH   5   6
ATOM      6  C   UNL     1       1.546   8.917  18.670  0.00  0.00    +0.000 A 
ATOM      7  C   UNL     1       1.412   8.755  20.053  0.00  0.00    +0.000 A 
ATOM      8  C   UNL     1       0.360   9.366  20.737  0.00  0.00    +0.000 A 
ATOM      9  C   UNL     1      -0.569  10.149  20.051  0.00  0.00    +0.000 A 
ATOM     10  C   UNL     1      -0.434  10.340  18.679  0.00  0.00    +0.000 A 
ATOM     11  C   UNL     1       0.624   9.740  17.999  0.00  0.00    +0.000 A 
ENDBRANCH   5   6
ENDBRANCH   4   5
ENDBRANCH   3   4
ENDBRANCH   1   3
BRANCH   1  12
ATOM     12  C   UNL     1       2.611   3.558  17.569  0.00  0.00    +0.000 C 
BRANCH  12  13
ATOM     13  C   UNL     1       2.378   3.206  19.012  0.00  0.00    +0.000 A 
ATOM     14  C   UNL     1       3.420   2.695  19.798  0.00  0.00    +0.000 A 
ATOM     15  C   UNL     1       3.214   2.386  21.141  0.00  0.00    +0.000 A 
ATOM     16  C   UNL     1       1.960   2.601  21.713  0.00  0.00    +0.000 A 
ATOM     17  C   UNL     1       0.926   3.122  20.951  0.00  0.00    +0.000 A 
ATOM     18  C   UNL     1       1.133   3.427  19.608  0.00  0.00    +0.000 A 
ENDBRANCH  12  13
ENDBRANCH   1  12
BRANCH   1  19
ATOM     19  N   UNL     1       4.858   4.777  16.833  0.00  0.00    +0.000 NA
BRANCH  19  20
ATOM     20  C   UNL     1       5.801   4.723  17.976  0.00  0.00    +0.000 C 
BRANCH  20  21
ATOM     21  C   UNL     1       6.601   6.009  18.152  0.00  0.00    +0.000 A 
ATOM     22  C   UNL     1       6.370   7.119  17.326  0.00  0.00    +0.000 A 
ATOM     23  C   UNL     1       7.243   8.211  17.344  0.00  0.00    +0.000 A 
ATOM     24  C   UNL     1       8.346   8.212  18.194  0.00  0.00    +0.000 A 
ATOM     25  C   UNL     1       8.538   7.154  19.079  0.00  0.00    +0.000 A 
ATOM     26  C   UNL     1       7.654   6.072  19.077  0.00  0.00    +0.000 A 
ENDBRANCH  20  21
ENDBRANCH  19  20
BRANCH  19  27
ATOM     27  C   UNL     1       5.139   3.680  15.851  0.00  0.00    +0.000 C 
BRANCH  27  28
ATOM     28  C   UNL     1       5.941   4.023  14.592  0.00  0.00    +0.000 A 
ATOM     29  C   UNL     1       7.044   4.885  14.615  0.00  0.00    +0.000 A 
ATOM     30  C   UNL     1       7.748   5.245  13.471  0.00  0.00    +0.000 A 
ATOM     31  C   UNL     1       7.381   4.714  12.252  0.00  0.00    +0.000 A 
ATOM     32  C   UNL     1       6.318   3.815  12.197  0.00  0.00    +0.000 A 
ATOM     33  C   UNL     1       5.616   3.458  13.358  0.00  0.00    +0.000 A 
ENDBRANCH  27  28
ENDBRANCH  19  27
ENDBRANCH   1  19
TORSDOF 11
ENDMDL
MODEL 5
REMARK VINA RESULT:      -7.6      1.029      6.143
REMARK  Name = 
REMARK  11 active torsions:
REMARK  status: ('A' for Active; 'I' for Inactive)
REMARK    1  A    between atoms: C_2  and  O_3
REMARK    2  A    between atoms: C_2  and  C_11
REMARK    3  A    between atoms: O_3  and  C_4
REMARK    4  A    between atoms: C_4  and  C_5
REMARK    5  A    between atoms: C_11  and  C_12
REMARK    6  A    between atoms: C_11  and  N_19
REMARK    7  A    between atoms: C_12  and  C_13
REMARK    8  A    between atoms: N_19  and  C_20
REMARK    9  A    between atoms: N_19  and  C_27
REMARK   10  A    between atoms: C_20  and  C_21
REMARK   11  A    between atoms: C_27  and  C_28
REMARK                            x       y       z     vdW  Elec       q    Type
REMARK                         _______ _______ _______ _____ _____    ______ ____
ROOT
ATOM      1  C   UNL     1       3.603   3.606  17.035  0.00  0.00    +0.000 C 
ENDROOT
BRANCH   1   3
ATOM      2  O   UNL     1       1.338   4.659  17.197  0.00  0.00    +0.000 OA
ATOM      3  C   UNL     1       2.539   4.683  17.413  0.00  0.00    +0.000 C 
BRANCH   3   4
ATOM      4  O   UNL     1       3.179   5.716  18.020  0.00  0.00    +0.000 OA
BRANCH   4   5
ATOM      5  C   UNL     1       2.826   6.130  19.342  0.00  0.00    +0.000 C 
BRANCH   5   6
ATOM      6  C   UNL     1       2.199   7.501  19.210  0.00  0.00    +0.000 A 
ATOM      7  C   UNL     1       2.282   8.203  18.002  0.00  0.00    +0.000 A 
ATOM      8  C   UNL     1       1.729   9.480  17.888  0.00  0.00    +0.000 A 
ATOM      9  C   UNL     1       1.085  10.071  18.976  0.00  0.00    +0.000 A 
ATOM     10  C   UNL     1       0.974   9.376  20.175  0.00  0.00    +0.000 A 
ATOM     11  C   UNL     1       1.514   8.095  20.285  0.00  0.00    +0.000 A 
ENDBRANCH   5   6
ENDBRANCH   4   5
ENDBRANCH   3   4
ENDBRANCH   1   3
BRANCH   1  12
ATOM     12  C   UNL     1       3.355   2.349  17.904  0.00  0.00    +0.000 C 
BRANCH  12  13
ATOM     13  C   UNL     1       2.662   2.508  19.229  0.00  0.00    +0.000 A 
ATOM     14  C   UNL     1       1.262   2.483  19.308  0.00  0.00    +0.000 A 
ATOM     15  C   UNL     1       0.615   2.610  20.536  0.00  0.00    +0.000 A 
ATOM     16  C   UNL     1       1.370   2.749  21.701  0.00  0.00    +0.000 A 
ATOM     17  C   UNL     1       2.755   2.757  21.638  0.00  0.00    +0.000 A 
ATOM     18  C   UNL     1       3.399   2.633  20.410  0.00  0.00    +0.000 A 
ENDBRANCH  12  13
ENDBRANCH   1  12
BRANCH   1  19
ATOM     19  N   UNL     1       4.972   4.192  16.874  0.00  0.00    +0.000 NA
BRANCH  19  20
ATOM     20  C   UNL     1       5.622   4.570  18.151  0.00  0.00    +0.000 C 
BRANCH  20  21
ATOM     21  C   UNL     1       6.556   5.767  18.017  0.00  0.00    +0.000 A 
ATOM     22  C   UNL     1       7.691   5.889  18.832  0.00  0.00    +0.000 A 
ATOM     23  C   UNL     1       8.421   7.081  18.859  0.00  0.00    +0.000 A 
ATOM     24  C   UNL     1       8.033   8.158  18.065  0.00  0.00    +0.000 A 
ATOM     25  C   UNL     1       6.959   8.020  17.189  0.00  0.00    +0.000 A 
ATOM     26  C   UNL     1       6.242   6.821  17.146  0.00  0.00    +0.000 A 
ENDBRANCH  20  21
ENDBRANCH  19  20
BRANCH  19  27
ATOM     27  C   UNL     1       5.875   3.332  16.044  0.00  0.00    +0.000 C 
BRANCH  27  28
ATOM     28  C   UNL     1       6.329   3.863  14.680  0.00  0.00    +0.000 A 
ATOM     29  C   UNL     1       5.778   3.409  13.475  0.00  0.00    +0.000 A 
ATOM     30  C   UNL     1       6.217   3.845  12.230  0.00  0.00    +0.000 A 
ATOM     31  C   UNL     1       7.216   4.793  12.155  0.00  0.00    +0.000 A 
ATOM     32  C   UNL     1       7.755   5.303  13.334  0.00  0.00    +0.000 A 
ATOM     33  C   UNL     1       7.304   4.857  14.585  0.00  0.00    +0.000 A 
ENDBRANCH  27  28
ENDBRANCH  19  27
ENDBRANCH   1  19
TORSDOF 11
ENDMDL
MODEL 6
REMARK VINA RESULT:      -7.6      1.713      6.061
REMARK  Name = 
REMARK  11 active torsions:
REMARK  status: ('A' for Active; 'I' for Inactive)
REMARK    1  A    between atoms: C_2  and  O_3
REMARK    2  A    between atoms: C_2  and  C_11
REMARK    3  A    between atoms: O_3  and  C_4
REMARK    4  A    between atoms: C_4  and  C_5
REMARK    5  A    between atoms: C_11  and  C_12
REMARK    6  A    between atoms: C_11  and  N_19
REMARK    7  A    between atoms: C_12  and  C_13
REMARK    8  A    between atoms: N_19  and  C_20
REMARK    9  A    between atoms: N_19  and  C_27
REMARK   10  A    between atoms: C_20  and  C_21
REMARK   11  A    between atoms: C_27  and  C_28
REMARK                            x       y       z     vdW  Elec       q    Type
REMARK                         _______ _______ _______ _____ _____    ______ ____
ROOT
ATOM      1  C   UNL     1       5.602   5.512  17.000  0.00  0.00    +0.000 C 
ENDROOT
BRANCH   1   3
ATOM      2  O   UNL     1       7.928   4.736  17.502  0.00  0.00    +0.000 OA
ATOM      3  C   UNL     1       7.107   5.633  17.395  0.00  0.00    +0.000 C 
BRANCH   3   4
ATOM      4  O   UNL     1       7.376   6.940  17.642  0.00  0.00    +0.000 OA
BRANCH   4   5
ATOM      5  C   UNL     1       8.277   7.326  18.684  0.00  0.00    +0.000 C 
BRANCH   5   6
ATOM      6  C   UNL     1       8.493   8.816  18.534  0.00  0.00    +0.000 A 
ATOM      7  C   UNL     1       7.817   9.534  17.542  0.00  0.00    +0.000 A 
ATOM      8  C   UNL     1       8.038  10.903  17.385  0.00  0.00    +0.000 A 
ATOM      9  C   UNL     1       8.934  11.574  18.218  0.00  0.00    +0.000 A 
ATOM     10  C   UNL     1       9.596  10.879  19.225  0.00  0.00    +0.000 A 
ATOM     11  C   UNL     1       9.365   9.514  19.390  0.00  0.00    +0.000 A 
ENDBRANCH   5   6
ENDBRANCH   4   5
ENDBRANCH   3   4
ENDBRANCH   1   3
BRANCH   1  12
ATOM     12  C   UNL     1       5.434   6.028  15.550  0.00  0.00    +0.000 C 
BRANCH  12  13
ATOM     13  C   UNL     1       5.936   5.178  14.416  0.00  0.00    +0.000 A 
ATOM     14  C   UNL     1       5.120   4.187  13.852  0.00  0.00    +0.000 A 
ATOM     15  C   UNL     1       5.574   3.411  12.787  0.00  0.00    +0.000 A 
ATOM     16  C   UNL     1       6.849   3.634  12.267  0.00  0.00    +0.000 A 
ATOM     17  C   UNL     1       7.658   4.622  12.804  0.00  0.00    +0.000 A 
ATOM     18  C   UNL     1       7.205   5.394  13.870  0.00  0.00    +0.000 A 
ENDBRANCH  12  13
ENDBRANCH   1  12
BRANCH   1  19
ATOM     19  N   UNL     1       4.689   5.955  18.102  0.00  0.00    +0.000 NA
BRANCH  19  20
ATOM     20  C   UNL     1       3.299   6.223  17.664  0.00  0.00    +0.000 C 
BRANCH  20  21
ATOM     21  C   UNL     1       2.668   7.417  18.372  0.00  0.00    +0.000 A 
ATOM     22  C   UNL     1       2.225   7.314  19.700  0.00  0.00    +0.000 A 
ATOM     23  C   UNL     1       1.457   8.333  20.272  0.00  0.00    +0.000 A 
ATOM     24  C   UNL     1       1.135   9.468  19.531  0.00  0.00    +0.000 A 
ATOM     25  C   UNL     1       1.640   9.619  18.242  0.00  0.00    +0.000 A 
ATOM     26  C   UNL     1       2.425   8.611  17.677  0.00  0.00    +0.000 A 
ENDBRANCH  20  21
ENDBRANCH  19  20
BRANCH  19  27
ATOM     27  C   UNL     1       4.714   5.029  19.280  0.00  0.00    +0.000 C 
BRANCH  27  28
ATOM     28  C   UNL     1       3.637   3.943  19.370  0.00  0.00    +0.000 A 
ATOM     29  C   UNL     1       3.534   2.908  18.433  0.00  0.00    +0.000 A 
ATOM     30  C   UNL     1       2.530   1.946  18.475  0.00  0.00    +0.000 A 
ATOM     31  C   UNL     1       1.604   1.973  19.497  0.00  0.00    +0.000 A 
ATOM     32  C   UNL     1       1.705   2.960  20.474  0.00  0.00    +0.000 A 
ATOM     33  C   UNL     1       2.722   3.925  20.424  0.00  0.00    +0.000 A 
ENDBRANCH  27  28
ENDBRANCH  19  27
ENDBRANCH   1  19
TORSDOF 11
ENDMDL
MODEL 7
REMARK VINA RESULT:      -7.6      3.071      7.372
REMARK  Name = 
REMARK  11 active torsions:
REMARK  status: ('A' for Active; 'I' for Inactive)
REMARK    1  A    between atoms: C_2  and  O_3
REMARK    2  A    between atoms: C_2  and  C_11
REMARK    3  A    between atoms: O_3  and  C_4
REMARK    4  A    between atoms: C_4  and  C_5
REMARK    5  A    between atoms: C_11  and  C_12
REMARK    6  A    between atoms: C_11  and  N_19
REMARK    7  A    between atoms: C_12  and  C_13
REMARK    8  A    between atoms: N_19  and  C_20
REMARK    9  A    between atoms: N_19  and  C_27
REMARK   10  A    between atoms: C_20  and  C_21
REMARK   11  A    between atoms: C_27  and  C_28
REMARK                            x       y       z     vdW  Elec       q    Type
REMARK                         _______ _______ _______ _____ _____    ______ ____
ROOT
ATOM      1  C   UNL     1       2.202   7.813  19.066  0.00  0.00    +0.000 C 
ENDROOT
BRANCH   1   3
ATOM      2  O   UNL     1       1.548   6.304  20.953  0.00  0.00    +0.000 OA
ATOM      3  C   UNL     1       1.529   7.397  20.411  0.00  0.00    +0.000 C 
BRANCH   3   4
ATOM      4  O   UNL     1       0.861   8.474  20.900  0.00  0.00    +0.000 OA
BRANCH   4   5
ATOM      5  C   UNL     1       1.347   9.192  22.037  0.00  0.00    +0.000 C 
BRANCH   5   6
ATOM      6  C   UNL     1       0.373  10.325  22.278  0.00  0.00    +0.000 A 
ATOM      7  C   UNL     1      -0.789  10.112  23.026  0.00  0.00    +0.000 A 
ATOM      8  C   UNL     1      -1.702  11.150  23.224  0.00  0.00    +0.000 A 
ATOM      9  C   UNL     1      -1.465  12.413  22.681  0.00  0.00    +0.000 A 
ATOM     10  C   UNL     1      -0.301  12.646  21.955  0.00  0.00    +0.000 A 
ATOM     11  C   UNL     1       0.616  11.614  21.768  0.00  0.00    +0.000 A 
ENDBRANCH   5   6
ENDBRANCH   4   5
ENDBRANCH   3   4
ENDBRANCH   1   3
BRANCH   1  12
ATOM     12  C   UNL     1       1.138   8.507  18.181  0.00  0.00    +0.000 C 
BRANCH  12  13
ATOM     13  C   UNL     1       1.007  10.004  18.245  0.00  0.00    +0.000 A 
ATOM     14  C   UNL     1      -0.258  10.605  18.327  0.00  0.00    +0.000 A 
ATOM     15  C   UNL     1      -0.384  11.990  18.407  0.00  0.00    +0.000 A 
ATOM     16  C   UNL     1       0.761  12.787  18.420  0.00  0.00    +0.000 A 
ATOM     17  C   UNL     1       2.017  12.204  18.358  0.00  0.00    +0.000 A 
ATOM     18  C   UNL     1       2.141  10.819  18.274  0.00  0.00    +0.000 A 
ENDBRANCH  12  13
ENDBRANCH   1  12
BRANCH   1  19
ATOM     19  N   UNL     1       3.096   6.740  18.524  0.00  0.00    +0.000 NA
BRANCH  19  20
ATOM     20  C   UNL     1       2.375   5.644  17.833  0.00  0.00    +0.000 C 
BRANCH  20  21
ATOM     21  C   UNL     1       2.789   4.258  18.313  0.00  0.00    +0.000 A 
ATOM     22  C   UNL     1       3.510   4.096  19.506  0.00  0.00    +0.000 A 
ATOM     23  C   UNL     1       4.073   2.858  19.832  0.00  0.00    +0.000 A 
ATOM     24  C   UNL     1       3.912   1.769  18.979  0.00  0.00    +0.000 A 
ATOM     25  C   UNL     1       3.128   1.896  17.835  0.00  0.00    +0.000 A 
ATOM     26  C   UNL     1       2.548   3.127  17.519  0.00  0.00    +0.000 A 
ENDBRANCH  20  21
ENDBRANCH  19  20
BRANCH  19  27
ATOM     27  C   UNL     1       4.198   7.284  17.667  0.00  0.00    +0.000 C 
BRANCH  27  28
ATOM     28  C   UNL     1       5.213   6.298  17.080  0.00  0.00    +0.000 A 
ATOM     29  C   UNL     1       5.187   5.901  15.738  0.00  0.00    +0.000 A 
ATOM     30  C   UNL     1       6.071   4.969  15.206  0.00  0.00    +0.000 A 
ATOM     31  C   UNL     1       7.047   4.421  16.011  0.00  0.00    +0.000 A 
ATOM     32  C   UNL     1       7.134   4.828  17.341  0.00  0.00    +0.000 A 
ATOM     33  C   UNL     1       6.239   5.771  17.866  0.00  0.00    +0.000 A 
ENDBRANCH  27  28
ENDBRANCH  19  27
ENDBRANCH   1  19
TORSDOF 11
ENDMDL
MODEL 8
REMARK VINA RESULT:      -7.6      2.873      6.546
REMARK  Name = 
REMARK  11 active torsions:
REMARK  status: ('A' for Active; 'I' for Inactive)
REMARK    1  A    between atoms: C_2  and  O_3
REMARK    2  A    between atoms: C_2  and  C_11
REMARK    3  A    between atoms: O_3  and  C_4
REMARK    4  A    between atoms: C_4  and  C_5
REMARK    5  A    between atoms: C_11  and  C_12
REMARK    6  A    between atoms: C_11  and  N_19
REMARK    7  A    between atoms: C_12  and  C_13
REMARK    8  A    between atoms: N_19  and  C_20
REMARK    9  A    between atoms: N_19  and  C_27
REMARK   10  A    between atoms: C_20  and  C_21
REMARK   11  A    between atoms: C_27  and  C_28
REMARK                            x       y       z     vdW  Elec       q    Type
REMARK                         _______ _______ _______ _____ _____    ______ ____
ROOT
ATOM      1  C   UNL     1       2.356   6.617  18.488  0.00  0.00    +0.000 C 
ENDROOT
BRANCH   1   3
ATOM      2  O   UNL     1       2.600   8.702  17.125  0.00  0.00    +0.000 OA
ATOM      3  C   UNL     1       2.289   8.142  18.163  0.00  0.00    +0.000 C 
BRANCH   3   4
ATOM      4  O   UNL     1       1.839   8.790  19.269  0.00  0.00    +0.000 OA
BRANCH   4   5
ATOM      5  C   UNL     1       0.887   9.852  19.167  0.00  0.00    +0.000 C 
BRANCH   5   6
ATOM      6  C   UNL     1       0.303  10.040  20.551  0.00  0.00    +0.000 A 
ATOM      7  C   UNL     1       0.089   8.936  21.384  0.00  0.00    +0.000 A 
ATOM      8  C   UNL     1      -0.476   9.106  22.649  0.00  0.00    +0.000 A 
ATOM      9  C   UNL     1      -0.830  10.378  23.100  0.00  0.00    +0.000 A 
ATOM     10  C   UNL     1      -0.600  11.487  22.293  0.00  0.00    +0.000 A 
ATOM     11  C   UNL     1      -0.024  11.319  21.035  0.00  0.00    +0.000 A 
ENDBRANCH   5   6
ENDBRANCH   4   5
ENDBRANCH   3   4
ENDBRANCH   1   3
BRANCH   1  12
ATOM     12  C   UNL     1       1.901   6.408  19.952  0.00  0.00    +0.000 C 
BRANCH  12  13
ATOM     13  C   UNL     1       1.695   5.006  20.455  0.00  0.00    +0.000 A 
ATOM     14  C   UNL     1       0.843   4.123  19.776  0.00  0.00    +0.000 A 
ATOM     15  C   UNL     1       0.666   2.816  20.227  0.00  0.00    +0.000 A 
ATOM     16  C   UNL     1       1.355   2.378  21.357  0.00  0.00    +0.000 A 
ATOM     17  C   UNL     1       2.214   3.235  22.027  0.00  0.00    +0.000 A 
ATOM     18  C   UNL     1       2.388   4.541  21.577  0.00  0.00    +0.000 A 
ENDBRANCH  12  13
ENDBRANCH   1  12
BRANCH   1  19
ATOM     19  N   UNL     1       3.602   5.978  17.954  0.00  0.00    +0.000 NA
BRANCH  19  20
ATOM     20  C   UNL     1       3.362   4.725  17.199  0.00  0.00    +0.000 C 
BRANCH  20  21
ATOM     21  C   UNL     1       3.811   3.478  17.951  0.00  0.00    +0.000 A 
ATOM     22  C   UNL     1       3.268   2.220  17.648  0.00  0.00    +0.000 A 
ATOM     23  C   UNL     1       3.517   1.121  18.477  0.00  0.00    +0.000 A 
ATOM     24  C   UNL     1       4.320   1.264  19.606  0.00  0.00    +0.000 A 
ATOM     25  C   UNL     1       4.934   2.486  19.870  0.00  0.00    +0.000 A 
ATOM     26  C   UNL     1       4.702   3.579  19.031  0.00  0.00    +0.000 A 
ENDBRANCH  20  21
ENDBRANCH  19  20
BRANCH  19  27
ATOM     27  C   UNL     1       4.446   6.930  17.163  0.00  0.00    +0.000 C 
BRANCH  27  28
ATOM     28  C   UNL     1       5.891   7.163  17.614  0.00  0.00    +0.000 A 
ATOM     29  C   UNL     1       6.627   6.196  18.310  0.00  0.00    +0.000 A 
ATOM     30  C   UNL     1       7.921   6.415  18.770  0.00  0.00    +0.000 A 
ATOM     31  C   UNL     1       8.540   7.619  18.510  0.00  0.00    +0.000 A 
ATOM     32  C   UNL     1       7.857   8.587  17.778  0.00  0.00    +0.000 A 
ATOM     33  C   UNL     1       6.552   8.356  17.318  0.00  0.00    +0.000 A 
ENDBRANCH  27  28
ENDBRANCH  19  27
ENDBRANCH   1  19
TORSDOF 11
ENDMDL
MODEL 9
REMARK VINA RESULT:      -7.5      3.150      7.340
REMARK  Name = 
REMARK  11 active torsions:
REMARK  status: ('A' for Active; 'I' for Inactive)
REMARK    1  A    between atoms: C_2  and  O_3
REMARK    2  A    between atoms: C_2  and  C_11
REMARK    3  A    between atoms: O_3  and  C_4
REMARK    4  A    between atoms: C_4  and  C_5
REMARK    5  A    between atoms: C_11  and  C_12
REMARK    6  A    between atoms: C_11  and  N_19
REMARK    7  A    between atoms: C_12  and  C_13
REMARK    8  A    between atoms: N_19  and  C_20
REMARK    9  A    between atoms: N_19  and  C_27
REMARK   10  A    between atoms: C_20  and  C_21
REMARK   11  A    between atoms: C_27  and  C_28
REMARK                            x       y       z     vdW  Elec       q    Type
REMARK                         _______ _______ _______ _____ _____    ______ ____
ROOT
ATOM      1  C   UNL     1       2.253   7.986  18.980  0.00  0.00    +0.000 C 
ENDROOT
BRANCH   1   3
ATOM      2  O   UNL     1       1.469   6.590  20.904  0.00  0.00    +0.000 OA
ATOM      3  C   UNL     1       1.682   7.681  20.401  0.00  0.00    +0.000 C 
BRANCH   3   4
ATOM      4  O   UNL     1       1.417   8.864  21.013  0.00  0.00    +0.000 OA
BRANCH   4   5
ATOM      5  C   UNL     1       0.818   8.907  22.310  0.00  0.00    +0.000 C 
BRANCH   5   6
ATOM      6  C   UNL     1       0.069  10.219  22.394  0.00  0.00    +0.000 A 
ATOM      7  C   UNL     1       0.537  11.345  21.709  0.00  0.00    +0.000 A 
ATOM      8  C   UNL     1      -0.137  12.564  21.810  0.00  0.00    +0.000 A 
ATOM      9  C   UNL     1      -1.288  12.672  22.592  0.00  0.00    +0.000 A 
ATOM     10  C   UNL     1      -1.779  11.555  23.259  0.00  0.00    +0.000 A 
ATOM     11  C   UNL     1      -1.112  10.336  23.148  0.00  0.00    +0.000 A 
ENDBRANCH   5   6
ENDBRANCH   4   5
ENDBRANCH   3   4
ENDBRANCH   1   3
BRANCH   1  12
ATOM     12  C   UNL     1       1.115   8.578  18.114  0.00  0.00    +0.000 C 
BRANCH  12  13
ATOM     13  C   UNL     1       0.837  10.054  18.192  0.00  0.00    +0.000 A 
ATOM     14  C   UNL     1      -0.481  10.529  18.247  0.00  0.00    +0.000 A 
ATOM     15  C   UNL     1      -0.743  11.895  18.340  0.00  0.00    +0.000 A 
ATOM     16  C   UNL     1       0.319  12.798  18.395  0.00  0.00    +0.000 A 
ATOM     17  C   UNL     1       1.627  12.339  18.360  0.00  0.00    +0.000 A 
ATOM     18  C   UNL     1       1.886  10.975  18.263  0.00  0.00    +0.000 A 
ENDBRANCH  12  13
ENDBRANCH   1  12
BRANCH   1  19
ATOM     19  N   UNL     1       3.133   6.885  18.474  0.00  0.00    +0.000 NA
BRANCH  19  20
ATOM     20  C   UNL     1       2.414   5.840  17.707  0.00  0.00    +0.000 C 
BRANCH  20  21
ATOM     21  C   UNL     1       2.269   4.529  18.471  0.00  0.00    +0.000 A 
ATOM     22  C   UNL     1       3.297   4.067  19.308  0.00  0.00    +0.000 A 
ATOM     23  C   UNL     1       3.255   2.772  19.834  0.00  0.00    +0.000 A 
ATOM     24  C   UNL     1       2.183   1.931  19.541  0.00  0.00    +0.000 A 
ATOM     25  C   UNL     1       1.118   2.408  18.782  0.00  0.00    +0.000 A 
ATOM     26  C   UNL     1       1.148   3.708  18.273  0.00  0.00    +0.000 A 
ENDBRANCH  20  21
ENDBRANCH  19  20
BRANCH  19  27
ATOM     27  C   UNL     1       4.316   7.396  17.709  0.00  0.00    +0.000 C 
BRANCH  27  28
ATOM     28  C   UNL     1       5.280   6.374  17.099  0.00  0.00    +0.000 A 
ATOM     29  C   UNL     1       6.237   5.693  17.861  0.00  0.00    +0.000 A 
ATOM     30  C   UNL     1       7.151   4.802  17.310  0.00  0.00    +0.000 A 
ATOM     31  C   UNL     1       7.110   4.536  15.957  0.00  0.00    +0.000 A 
ATOM     32  C   UNL     1       6.141   5.159  15.174  0.00  0.00    +0.000 A 
ATOM     33  C   UNL     1       5.222   6.055  15.741  0.00  0.00    +0.000 A 
ENDBRANCH  27  28
ENDBRANCH  19  27
ENDBRANCH   1  19
TORSDOF 11
ENDMDL
