MODEL 1
REMARK VINA RESULT:      -8.2      0.000      0.000
REMARK  Name = 
REMARK  8 active torsions:
REMARK  status: ('A' for Active; 'I' for Inactive)
REMARK    1  A    between atoms: C_2  and  C_3
REMARK    2  A    between atoms: C_6  and  C_7
REMARK    3  A    between atoms: C_7  and  C_9
REMARK    4  A    between atoms: C_12  and  O_13
REMARK    5  A    between atoms: O_13  and  C_14
REMARK    6  A    between atoms: C_17  and  O_18
REMARK    7  A    between atoms: C_19  and  O_20
REMARK    8  A    between atoms: C_21  and  O_22
REMARK                            x       y       z     vdW  Elec       q    Type
REMARK                         _______ _______ _______ _____ _____    ______ ____
ROOT
ATOM      1  C   UNL     1       1.464   8.861  19.534  0.00  0.00    +0.000 A 
ATOM      2  C   UNL     1       1.545   7.826  20.476  0.00  0.00    +0.000 A 
ATOM      3  C   UNL     1       2.260   6.655  20.188  0.00  0.00    +0.000 A 
ATOM      4  C   UNL     1       2.891   6.511  18.953  0.00  0.00    +0.000 A 
ATOM      5  C   UNL     1       2.856   7.565  18.036  0.00  0.00    +0.000 A 
ATOM      6  C   UNL     1       2.152   8.738  18.323  0.00  0.00    +0.000 A 
ENDROOT
BRANCH   1   7
ATOM      7  C   UNL     1       0.686  10.084  19.875  0.00  0.00    +0.000 C 
ATOM      8  O   UNL     1       1.088  10.815  20.778  0.00  0.00    +0.000 OA
BRANCH   7  12
ATOM      9  C   UNL     1      -2.974  11.180  17.893  0.00  0.00    +0.000 A 
ATOM     10  C   UNL     1      -2.620  11.760  19.115  0.00  0.00    +0.000 A 
ATOM     11  C   UNL     1      -1.426  11.393  19.749  0.00  0.00    +0.000 A 
ATOM     12  C   UNL     1      -0.572  10.450  19.163  0.00  0.00    +0.000 A 
ATOM     13  C   UNL     1      -0.946   9.845  17.955  0.00  0.00    +0.000 A 
ATOM     14  C   UNL     1      -2.136  10.218  17.318  0.00  0.00    +0.000 A 
BRANCH   9  16
ATOM     15  N   UNL     1      -5.173  11.876  16.703  0.00  0.00    +0.000 NA
ATOM     16  C   UNL     1      -4.190  11.564  17.232  0.00  0.00    +0.000 C 
ENDBRANCH   9  16
ENDBRANCH   7  12
ENDBRANCH   1   7
BRANCH   4  17
ATOM     17  O   UNL     1       3.610   5.420  18.553  0.00  0.00    +0.000 OA
BRANCH  17  18
ATOM     18  C   UNL     1       4.757   5.666  17.728  0.00  0.00    +0.000 C 
ATOM     19  O   UNL     1       4.462   5.325  16.371  0.00  0.00    +0.000 OA
ATOM     20  C   UNL     1       5.568   5.521  15.497  0.00  0.00    +0.000 C 
ATOM     21  C   UNL     1       6.756   4.643  15.884  0.00  0.00    +0.000 C 
ATOM     22  C   UNL     1       7.142   4.920  17.344  0.00  0.00    +0.000 C 
ATOM     23  C   UNL     1       5.919   4.794  18.270  0.00  0.00    +0.000 C 
BRANCH  21  24
ATOM     24  O   UNL     1       7.841   4.886  14.987  0.00  0.00    +0.000 OA
ATOM     25  H   UNL     1       7.623   5.649  14.424  0.00  0.00    +0.000 HD
ENDBRANCH  21  24
BRANCH  22  26
ATOM     26  O   UNL     1       8.205   4.053  17.758  0.00  0.00    +0.000 OA
ATOM     27  H   UNL     1       8.385   3.420  17.041  0.00  0.00    +0.000 HD
ENDBRANCH  22  26
BRANCH  23  28
ATOM     28  O   UNL     1       6.274   5.167  19.612  0.00  0.00    +0.000 OA
ATOM     29  H   UNL     1       5.993   6.084  19.770  0.00  0.00    +0.000 HD
ENDBRANCH  23  28
ENDBRANCH  17  18
ENDBRANCH   4  17
TORSDOF 8
ENDMDL
MODEL 2
REMARK VINA RESULT:      -8.1      0.439      1.043
REMARK  Name = 
REMARK  8 active torsions:
REMARK  status: ('A' for Active; 'I' for Inactive)
REMARK    1  A    between atoms: C_2  and  C_3
REMARK    2  A    between atoms: C_6  and  C_7
REMARK    3  A    between atoms: C_7  and  C_9
REMARK    4  A    between atoms: C_12  and  O_13
REMARK    5  A    between atoms: O_13  and  C_14
REMARK    6  A    between atoms: C_17  and  O_18
REMARK    7  A    between atoms: C_19  and  O_20
REMARK    8  A    between atoms: C_21  and  O_22
REMARK                            x       y       z     vdW  Elec       q    Type
REMARK                         _______ _______ _______ _____ _____    ______ ____
ROOT
ATOM      1  C   UNL     1       1.340   9.309  19.380  0.00  0.00    +0.000 A 
ATOM      2  C   UNL     1       1.935   9.197  18.116  0.00  0.00    +0.000 A 
ATOM      3  C   UNL     1       2.677   8.056  17.777  0.00  0.00    +0.000 A 
ATOM      4  C   UNL     1       2.832   7.026  18.704  0.00  0.00    +0.000 A 
ATOM      5  C   UNL     1       2.193   7.114  19.943  0.00  0.00    +0.000 A 
ATOM      6  C   UNL     1       1.445   8.245  20.282  0.00  0.00    +0.000 A 
ENDROOT
BRANCH   1   7
ATOM      7  C   UNL     1       0.569  10.542  19.705  0.00  0.00    +0.000 C 
ATOM      8  O   UNL     1       1.055  11.364  20.479  0.00  0.00    +0.000 OA
BRANCH   7  12
ATOM      9  C   UNL     1      -3.345  11.361  18.112  0.00  0.00    +0.000 A 
ATOM     10  C   UNL     1      -2.862  12.062  19.223  0.00  0.00    +0.000 A 
ATOM     11  C   UNL     1      -1.587  11.783  19.731  0.00  0.00    +0.000 A 
ATOM     12  C   UNL     1      -0.780  10.810  19.128  0.00  0.00    +0.000 A 
ATOM     13  C   UNL     1      -1.279  10.085  18.037  0.00  0.00    +0.000 A 
ATOM     14  C   UNL     1      -2.552  10.369  17.525  0.00  0.00    +0.000 A 
BRANCH   9  16
ATOM     15  N   UNL     1      -5.698  11.884  17.151  0.00  0.00    +0.000 NA
ATOM     16  C   UNL     1      -4.647  11.653  17.580  0.00  0.00    +0.000 C 
ENDBRANCH   9  16
ENDBRANCH   7  12
ENDBRANCH   1   7
BRANCH   4  17
ATOM     17  O   UNL     1       3.533   5.872  18.495  0.00  0.00    +0.000 OA
BRANCH  17  18
ATOM     18  C   UNL     1       4.724   5.972  17.701  0.00  0.00    +0.000 C 
ATOM     19  O   UNL     1       4.441   5.594  16.351  0.00  0.00    +0.000 OA
ATOM     20  C   UNL     1       5.587   5.645  15.509  0.00  0.00    +0.000 C 
ATOM     21  C   UNL     1       6.676   4.682  15.978  0.00  0.00    +0.000 C 
ATOM     22  C   UNL     1       7.040   4.994  17.437  0.00  0.00    +0.000 C 
ATOM     23  C   UNL     1       5.782   5.025  18.324  0.00  0.00    +0.000 C 
BRANCH  21  24
ATOM     24  O   UNL     1       7.807   4.782  15.110  0.00  0.00    +0.000 OA
ATOM     25  H   UNL     1       8.316   3.955  15.156  0.00  0.00    +0.000 HD
ENDBRANCH  21  24
BRANCH  22  26
ATOM     26  O   UNL     1       8.005   4.056  17.927  0.00  0.00    +0.000 OA
ATOM     27  H   UNL     1       8.716   3.969  17.268  0.00  0.00    +0.000 HD
ENDBRANCH  22  26
BRANCH  23  28
ATOM     28  O   UNL     1       6.128   5.430  19.659  0.00  0.00    +0.000 OA
ATOM     29  H   UNL     1       6.878   4.893  19.967  0.00  0.00    +0.000 HD
ENDBRANCH  23  28
ENDBRANCH  17  18
ENDBRANCH   4  17
TORSDOF 8
ENDMDL
MODEL 3
REMARK VINA RESULT:      -8.0      0.214      1.349
REMARK  Name = 
REMARK  8 active torsions:
REMARK  status: ('A' for Active; 'I' for Inactive)
REMARK    1  A    between atoms: C_2  and  C_3
REMARK    2  A    between atoms: C_6  and  C_7
REMARK    3  A    between atoms: C_7  and  C_9
REMARK    4  A    between atoms: C_12  and  O_13
REMARK    5  A    between atoms: O_13  and  C_14
REMARK    6  A    between atoms: C_17  and  O_18
REMARK    7  A    between atoms: C_19  and  O_20
REMARK    8  A    between atoms: C_21  and  O_22
REMARK                            x       y       z     vdW  Elec       q    Type
REMARK                         _______ _______ _______ _____ _____    ______ ____
ROOT
ATOM      1  C   UNL     1       1.404   8.922  19.716  0.00  0.00    +0.000 A 
ATOM      2  C   UNL     1       2.000   8.930  18.448  0.00  0.00    +0.000 A 
ATOM      3  C   UNL     1       2.765   7.838  18.014  0.00  0.00    +0.000 A 
ATOM      4  C   UNL     1       2.942   6.736  18.850  0.00  0.00    +0.000 A 
ATOM      5  C   UNL     1       2.302   6.705  20.091  0.00  0.00    +0.000 A 
ATOM      6  C   UNL     1       1.532   7.788  20.524  0.00  0.00    +0.000 A 
ENDROOT
BRANCH   1   7
ATOM      7  C   UNL     1       0.607  10.106  20.143  0.00  0.00    +0.000 C 
ATOM      8  O   UNL     1       0.994  10.772  21.101  0.00  0.00    +0.000 OA
BRANCH   7  12
ATOM      9  C   UNL     1      -3.003  11.215  18.077  0.00  0.00    +0.000 A 
ATOM     10  C   UNL     1      -2.245  10.116  17.657  0.00  0.00    +0.000 A 
ATOM     11  C   UNL     1      -1.072   9.768  18.339  0.00  0.00    +0.000 A 
ATOM     12  C   UNL     1      -0.651  10.509  19.451  0.00  0.00    +0.000 A 
ATOM     13  C   UNL     1      -1.392  11.630  19.849  0.00  0.00    +0.000 A 
ATOM     14  C   UNL     1      -2.570  11.973  19.172  0.00  0.00    +0.000 A 
BRANCH   9  16
ATOM     15  N   UNL     1      -5.194  11.847  16.838  0.00  0.00    +0.000 NA
ATOM     16  C   UNL     1      -4.214  11.567  17.390  0.00  0.00    +0.000 C 
ENDBRANCH   9  16
ENDBRANCH   7  12
ENDBRANCH   1   7
BRANCH   4  17
ATOM     17  O   UNL     1       3.668   5.619  18.545  0.00  0.00    +0.000 OA
BRANCH  17  18
ATOM     18  C   UNL     1       4.823   5.804  17.715  0.00  0.00    +0.000 C 
ATOM     19  O   UNL     1       4.507   5.467  16.361  0.00  0.00    +0.000 OA
ATOM     20  C   UNL     1       5.619   5.603  15.483  0.00  0.00    +0.000 C 
ATOM     21  C   UNL     1       6.764   4.671  15.873  0.00  0.00    +0.000 C 
ATOM     22  C   UNL     1       7.168   4.940  17.330  0.00  0.00    +0.000 C 
ATOM     23  C   UNL     1       5.943   4.880  18.261  0.00  0.00    +0.000 C 
BRANCH  21  24
ATOM     24  O   UNL     1       7.857   4.856  14.971  0.00  0.00    +0.000 OA
ATOM     25  H   UNL     1       7.776   5.728  14.548  0.00  0.00    +0.000 HD
ENDBRANCH  21  24
BRANCH  22  26
ATOM     26  O   UNL     1       8.190   4.027  17.748  0.00  0.00    +0.000 OA
ATOM     27  H   UNL     1       8.678   3.727  16.960  0.00  0.00    +0.000 HD
ENDBRANCH  22  26
BRANCH  23  28
ATOM     28  O   UNL     1       6.320   5.246  19.599  0.00  0.00    +0.000 OA
ATOM     29  H   UNL     1       7.280   5.132  19.699  0.00  0.00    +0.000 HD
ENDBRANCH  23  28
ENDBRANCH  17  18
ENDBRANCH   4  17
TORSDOF 8
ENDMDL
MODEL 4
REMARK VINA RESULT:      -8.0      0.708      1.184
REMARK  Name = 
REMARK  8 active torsions:
REMARK  status: ('A' for Active; 'I' for Inactive)
REMARK    1  A    between atoms: C_2  and  C_3
REMARK    2  A    between atoms: C_6  and  C_7
REMARK    3  A    between atoms: C_7  and  C_9
REMARK    4  A    between atoms: C_12  and  O_13
REMARK    5  A    between atoms: O_13  and  C_14
REMARK    6  A    between atoms: C_17  and  O_18
REMARK    7  A    between atoms: C_19  and  O_20
REMARK    8  A    between atoms: C_21  and  O_22
REMARK                            x       y       z     vdW  Elec       q    Type
REMARK                         _______ _______ _______ _____ _____    ______ ____
ROOT
ATOM      1  C   UNL     1       1.394   9.539  19.029  0.00  0.00    +0.000 A 
ATOM      2  C   UNL     1       1.406   8.631  20.096  0.00  0.00    +0.000 A 
ATOM      3  C   UNL     1       2.078   7.405  19.981  0.00  0.00    +0.000 A 
ATOM      4  C   UNL     1       2.735   7.081  18.794  0.00  0.00    +0.000 A 
ATOM      5  C   UNL     1       2.769   8.010  17.752  0.00  0.00    +0.000 A 
ATOM      6  C   UNL     1       2.107   9.236  17.865  0.00  0.00    +0.000 A 
ENDROOT
BRANCH   1   7
ATOM      7  C   UNL     1       0.659  10.825  19.189  0.00  0.00    +0.000 C 
ATOM      8  O   UNL     1       1.269  11.816  19.585  0.00  0.00    +0.000 OA
BRANCH   7  12
ATOM      9  C   UNL     1      -3.531  11.138  18.256  0.00  0.00    +0.000 A 
ATOM     10  C   UNL     1      -2.726  10.184  17.626  0.00  0.00    +0.000 A 
ATOM     11  C   UNL     1      -1.363  10.094  17.939  0.00  0.00    +0.000 A 
ATOM     12  C   UNL     1      -0.797  10.951  18.891  0.00  0.00    +0.000 A 
ATOM     13  C   UNL     1      -1.597  11.930  19.495  0.00  0.00    +0.000 A 
ATOM     14  C   UNL     1      -2.961  12.014  19.188  0.00  0.00    +0.000 A 
BRANCH   9  16
ATOM     15  N   UNL     1      -6.062  11.297  17.705  0.00  0.00    +0.000 NA
ATOM     16  C   UNL     1      -4.932  11.224  17.949  0.00  0.00    +0.000 C 
ENDBRANCH   9  16
ENDBRANCH   7  12
ENDBRANCH   1   7
BRANCH   4  17
ATOM     17  O   UNL     1       3.417   5.921  18.558  0.00  0.00    +0.000 OA
BRANCH  17  18
ATOM     18  C   UNL     1       4.613   6.021  17.774  0.00  0.00    +0.000 C 
ATOM     19  O   UNL     1       4.338   5.653  16.419  0.00  0.00    +0.000 OA
ATOM     20  C   UNL     1       5.491   5.705  15.586  0.00  0.00    +0.000 C 
ATOM     21  C   UNL     1       6.572   4.733  16.056  0.00  0.00    +0.000 C 
ATOM     22  C   UNL     1       6.926   5.033  17.519  0.00  0.00    +0.000 C 
ATOM     23  C   UNL     1       5.663   5.064  18.397  0.00  0.00    +0.000 C 
BRANCH  21  24
ATOM     24  O   UNL     1       7.709   4.833  15.197  0.00  0.00    +0.000 OA
ATOM     25  H   UNL     1       7.725   5.717  14.792  0.00  0.00    +0.000 HD
ENDBRANCH  21  24
BRANCH  22  26
ATOM     26  O   UNL     1       7.884   4.086  18.011  0.00  0.00    +0.000 OA
ATOM     27  H   UNL     1       7.873   3.306  17.429  0.00  0.00    +0.000 HD
ENDBRANCH  22  26
BRANCH  23  28
ATOM     28  O   UNL     1       6.001   5.458  19.738  0.00  0.00    +0.000 OA
ATOM     29  H   UNL     1       6.238   6.400  19.740  0.00  0.00    +0.000 HD
ENDBRANCH  23  28
ENDBRANCH  17  18
ENDBRANCH   4  17
TORSDOF 8
ENDMDL
MODEL 5
REMARK VINA RESULT:      -7.9      2.382      3.141
REMARK  Name = 
REMARK  8 active torsions:
REMARK  status: ('A' for Active; 'I' for Inactive)
REMARK    1  A    between atoms: C_2  and  C_3
REMARK    2  A    between atoms: C_6  and  C_7
REMARK    3  A    between atoms: C_7  and  C_9
REMARK    4  A    between atoms: C_12  and  O_13
REMARK    5  A    between atoms: O_13  and  C_14
REMARK    6  A    between atoms: C_17  and  O_18
REMARK    7  A    between atoms: C_19  and  O_20
REMARK    8  A    between atoms: C_21  and  O_22
REMARK                            x       y       z     vdW  Elec       q    Type
REMARK                         _______ _______ _______ _____ _____    ______ ____
ROOT
ATOM      1  C   UNL     1       0.585  10.036  19.083  0.00  0.00    +0.000 A 
ATOM      2  C   UNL     1       1.359   9.393  18.107  0.00  0.00    +0.000 A 
ATOM      3  C   UNL     1       2.080   8.232  18.419  0.00  0.00    +0.000 A 
ATOM      4  C   UNL     1       2.034   7.712  19.713  0.00  0.00    +0.000 A 
ATOM      5  C   UNL     1       1.219   8.321  20.670  0.00  0.00    +0.000 A 
ATOM      6  C   UNL     1       0.493   9.474  20.360  0.00  0.00    +0.000 A 
ENDROOT
BRANCH   1   7
ATOM      7  C   UNL     1      -0.157  11.273  18.712  0.00  0.00    +0.000 C 
ATOM      8  O   UNL     1       0.474  12.305  18.495  0.00  0.00    +0.000 OA
BRANCH   7  12
ATOM      9  C   UNL     1      -4.443  11.323  18.318  0.00  0.00    +0.000 A 
ATOM     10  C   UNL     1      -3.657  10.514  17.490  0.00  0.00    +0.000 A 
ATOM     11  C   UNL     1      -2.263  10.509  17.630  0.00  0.00    +0.000 A 
ATOM     12  C   UNL     1      -1.644  11.305  18.603  0.00  0.00    +0.000 A 
ATOM     13  C   UNL     1      -2.431  12.140  19.407  0.00  0.00    +0.000 A 
ATOM     14  C   UNL     1      -3.825  12.139  19.273  0.00  0.00    +0.000 A 
BRANCH   9  16
ATOM     15  N   UNL     1      -7.028  11.313  18.083  0.00  0.00    +0.000 NA
ATOM     16  C   UNL     1      -5.874  11.320  18.189  0.00  0.00    +0.000 C 
ENDBRANCH   9  16
ENDBRANCH   7  12
ENDBRANCH   1   7
BRANCH   4  17
ATOM     17  O   UNL     1       2.694   6.595  20.140  0.00  0.00    +0.000 OA
BRANCH  17  18
ATOM     18  C   UNL     1       2.802   5.510  19.208  0.00  0.00    +0.000 C 
ATOM     19  O   UNL     1       1.576   4.774  19.176  0.00  0.00    +0.000 OA
ATOM     20  C   UNL     1       1.620   3.663  18.288  0.00  0.00    +0.000 C 
ATOM     21  C   UNL     1       2.687   2.651  18.702  0.00  0.00    +0.000 C 
ATOM     22  C   UNL     1       4.050   3.352  18.787  0.00  0.00    +0.000 C 
ATOM     23  C   UNL     1       3.971   4.604  19.678  0.00  0.00    +0.000 C 
BRANCH  21  24
ATOM     24  O   UNL     1       2.699   1.565  17.773  0.00  0.00    +0.000 OA
ATOM     25  H   UNL     1       2.780   1.919  16.871  0.00  0.00    +0.000 HD
ENDBRANCH  21  24
BRANCH  22  26
ATOM     26  O   UNL     1       5.057   2.443  19.248  0.00  0.00    +0.000 OA
ATOM     27  H   UNL     1       4.878   2.229  20.181  0.00  0.00    +0.000 HD
ENDBRANCH  22  26
BRANCH  23  28
ATOM     28  O   UNL     1       5.223   5.309  19.654  0.00  0.00    +0.000 OA
ATOM     29  H   UNL     1       5.948   4.667  19.739  0.00  0.00    +0.000 HD
ENDBRANCH  23  28
ENDBRANCH  17  18
ENDBRANCH   4  17
TORSDOF 8
ENDMDL
MODEL 6
REMARK VINA RESULT:      -7.9      2.251      3.297
REMARK  Name = 
REMARK  8 active torsions:
REMARK  status: ('A' for Active; 'I' for Inactive)
REMARK    1  A    between atoms: C_2  and  C_3
REMARK    2  A    between atoms: C_6  and  C_7
REMARK    3  A    between atoms: C_7  and  C_9
REMARK    4  A    between atoms: C_12  and  O_13
REMARK    5  A    between atoms: O_13  and  C_14
REMARK    6  A    between atoms: C_17  and  O_18
REMARK    7  A    between atoms: C_19  and  O_20
REMARK    8  A    between atoms: C_21  and  O_22
REMARK                            x       y       z     vdW  Elec       q    Type
REMARK                         _______ _______ _______ _____ _____    ______ ____
ROOT
ATOM      1  C   UNL     1       0.710  10.056  18.923  0.00  0.00    +0.000 A 
ATOM      2  C   UNL     1       0.709   9.488  20.204  0.00  0.00    +0.000 A 
ATOM      3  C   UNL     1       1.452   8.330  20.471  0.00  0.00    +0.000 A 
ATOM      4  C   UNL     1       2.195   7.731  19.454  0.00  0.00    +0.000 A 
ATOM      5  C   UNL     1       2.240   8.328  18.192  0.00  0.00    +0.000 A 
ATOM      6  C   UNL     1       1.507   9.488  17.925  0.00  0.00    +0.000 A 
ENDROOT
BRANCH   1   7
ATOM      7  C   UNL     1      -0.102  11.281  18.679  0.00  0.00    +0.000 C 
ATOM      8  O   UNL     1       0.466  12.368  18.598  0.00  0.00    +0.000 OA
BRANCH   7  12
ATOM      9  C   UNL     1      -4.393  11.199  18.341  0.00  0.00    +0.000 A 
ATOM     10  C   UNL     1      -3.758  12.115  19.188  0.00  0.00    +0.000 A 
ATOM     11  C   UNL     1      -2.360  12.129  19.288  0.00  0.00    +0.000 A 
ATOM     12  C   UNL     1      -1.586  11.235  18.537  0.00  0.00    +0.000 A 
ATOM     13  C   UNL     1      -2.225  10.296  17.717  0.00  0.00    +0.000 A 
ATOM     14  C   UNL     1      -3.622  10.287  17.611  0.00  0.00    +0.000 A 
BRANCH   9  16
ATOM     15  N   UNL     1      -6.979  11.184  18.125  0.00  0.00    +0.000 NA
ATOM     16  C   UNL     1      -5.824  11.191  18.224  0.00  0.00    +0.000 C 
ENDBRANCH   9  16
ENDBRANCH   7  12
ENDBRANCH   1   7
BRANCH   4  17
ATOM     17  O   UNL     1       2.953   6.601  19.587  0.00  0.00    +0.000 OA
BRANCH  17  18
ATOM     18  C   UNL     1       2.382   5.378  19.101  0.00  0.00    +0.000 C 
ATOM     19  O   UNL     1       1.670   4.722  20.154  0.00  0.00    +0.000 OA
ATOM     20  C   UNL     1       1.097   3.485  19.749  0.00  0.00    +0.000 C 
ATOM     21  C   UNL     1       2.165   2.487  19.302  0.00  0.00    +0.000 C 
ATOM     22  C   UNL     1       3.005   3.109  18.177  0.00  0.00    +0.000 C 
ATOM     23  C   UNL     1       3.546   4.489  18.592  0.00  0.00    +0.000 C 
BRANCH  21  24
ATOM     24  O   UNL     1       1.538   1.270  18.894  0.00  0.00    +0.000 OA
ATOM     25  H   UNL     1       1.662   1.154  17.936  0.00  0.00    +0.000 HD
ENDBRANCH  21  24
BRANCH  22  26
ATOM     26  O   UNL     1       4.064   2.224  17.791  0.00  0.00    +0.000 OA
ATOM     27  H   UNL     1       4.762   2.747  17.358  0.00  0.00    +0.000 HD
ENDBRANCH  22  26
BRANCH  23  28
ATOM     28  O   UNL     1       4.233   5.103  17.489  0.00  0.00    +0.000 OA
ATOM     29  H   UNL     1       4.663   4.411  16.960  0.00  0.00    +0.000 HD
ENDBRANCH  23  28
ENDBRANCH  17  18
ENDBRANCH   4  17
TORSDOF 8
ENDMDL
MODEL 7
REMARK VINA RESULT:      -7.7      3.738      9.297
REMARK  Name = 
REMARK  8 active torsions:
REMARK  status: ('A' for Active; 'I' for Inactive)
REMARK    1  A    between atoms: C_2  and  C_3
REMARK    2  A    between atoms: C_6  and  C_7
REMARK    3  A    between atoms: C_7  and  C_9
REMARK    4  A    between atoms: C_12  and  O_13
REMARK    5  A    between atoms: O_13  and  C_14
REMARK    6  A    between atoms: C_17  and  O_18
REMARK    7  A    between atoms: C_19  and  O_20
REMARK    8  A    between atoms: C_21  and  O_22
REMARK                            x       y       z     vdW  Elec       q    Type
REMARK                         _______ _______ _______ _____ _____    ______ ____
ROOT
ATOM      1  C   UNL     1       2.386   7.416  19.045  0.00  0.00    +0.000 A 
ATOM      2  C   UNL     1       2.240   8.133  17.850  0.00  0.00    +0.000 A 
ATOM      3  C   UNL     1       1.432   9.278  17.800  0.00  0.00    +0.000 A 
ATOM      4  C   UNL     1       0.760   9.705  18.945  0.00  0.00    +0.000 A 
ATOM      5  C   UNL     1       0.950   9.023  20.148  0.00  0.00    +0.000 A 
ATOM      6  C   UNL     1       1.762   7.887  20.205  0.00  0.00    +0.000 A 
ENDROOT
BRANCH   1   7
ATOM      7  C   UNL     1       3.246   6.200  19.053  0.00  0.00    +0.000 C 
ATOM      8  O   UNL     1       3.375   5.567  20.099  0.00  0.00    +0.000 OA
BRANCH   7  12
ATOM      9  C   UNL     1       5.301   4.748  15.561  0.00  0.00    +0.000 A 
ATOM     10  C   UNL     1       4.486   3.899  16.317  0.00  0.00    +0.000 A 
ATOM     11  C   UNL     1       3.824   4.385  17.452  0.00  0.00    +0.000 A 
ATOM     12  C   UNL     1       3.964   5.726  17.835  0.00  0.00    +0.000 A 
ATOM     13  C   UNL     1       4.808   6.565  17.096  0.00  0.00    +0.000 A 
ATOM     14  C   UNL     1       5.464   6.081  15.957  0.00  0.00    +0.000 A 
BRANCH   9  16
ATOM     15  N   UNL     1       6.506   3.859  13.441  0.00  0.00    +0.000 NA
ATOM     16  C   UNL     1       5.970   4.258  14.388  0.00  0.00    +0.000 C 
ENDBRANCH   9  16
ENDBRANCH   7  12
ENDBRANCH   1   7
BRANCH   4  17
ATOM     17  O   UNL     1      -0.058  10.798  19.021  0.00  0.00    +0.000 OA
BRANCH  17  18
ATOM     18  C   UNL     1      -1.447  10.588  18.730  0.00  0.00    +0.000 C 
ATOM     19  O   UNL     1      -1.617  10.328  17.334  0.00  0.00    +0.000 OA
ATOM     20  C   UNL     1      -2.978  10.136  16.969  0.00  0.00    +0.000 C 
ATOM     21  C   UNL     1      -3.822  11.377  17.254  0.00  0.00    +0.000 C 
ATOM     22  C   UNL     1      -3.689  11.754  18.736  0.00  0.00    +0.000 C 
ATOM     23  C   UNL     1      -2.210  11.872  19.145  0.00  0.00    +0.000 C 
BRANCH  21  24
ATOM     24  O   UNL     1      -5.179  11.127  16.882  0.00  0.00    +0.000 OA
ATOM     25  H   UNL     1      -5.605  10.593  17.575  0.00  0.00    +0.000 HD
ENDBRANCH  21  24
BRANCH  22  26
ATOM     26  O   UNL     1      -4.409  12.962  19.015  0.00  0.00    +0.000 OA
ATOM     27  H   UNL     1      -3.892  13.715  18.680  0.00  0.00    +0.000 HD
ENDBRANCH  22  26
BRANCH  23  28
ATOM     28  O   UNL     1      -2.105  12.114  20.558  0.00  0.00    +0.000 OA
ATOM     29  H   UNL     1      -1.779  11.308  20.992  0.00  0.00    +0.000 HD
ENDBRANCH  23  28
ENDBRANCH  17  18
ENDBRANCH   4  17
TORSDOF 8
ENDMDL
MODEL 8
REMARK VINA RESULT:      -7.7      3.908      9.046
REMARK  Name = 
REMARK  8 active torsions:
REMARK  status: ('A' for Active; 'I' for Inactive)
REMARK    1  A    between atoms: C_2  and  C_3
REMARK    2  A    between atoms: C_6  and  C_7
REMARK    3  A    between atoms: C_7  and  C_9
REMARK    4  A    between atoms: C_12  and  O_13
REMARK    5  A    between atoms: O_13  and  C_14
REMARK    6  A    between atoms: C_17  and  O_18
REMARK    7  A    between atoms: C_19  and  O_20
REMARK    8  A    between atoms: C_21  and  O_22
REMARK                            x       y       z     vdW  Elec       q    Type
REMARK                         _______ _______ _______ _____ _____    ______ ____
ROOT
ATOM      1  C   UNL     1       2.429   7.371  19.052  0.00  0.00    +0.000 A 
ATOM      2  C   UNL     1       1.846   7.764  20.264  0.00  0.00    +0.000 A 
ATOM      3  C   UNL     1       1.031   8.903  20.327  0.00  0.00    +0.000 A 
ATOM      4  C   UNL     1       0.803   9.659  19.177  0.00  0.00    +0.000 A 
ATOM      5  C   UNL     1       1.339   9.236  17.959  0.00  0.00    +0.000 A 
ATOM      6  C   UNL     1       2.144   8.096  17.890  0.00  0.00    +0.000 A 
ENDROOT
BRANCH   1   7
ATOM      7  C   UNL     1       3.296   6.160  19.031  0.00  0.00    +0.000 C 
ATOM      8  O   UNL     1       3.444   5.513  20.065  0.00  0.00    +0.000 OA
BRANCH   7  12
ATOM      9  C   UNL     1       5.314   4.772  15.490  0.00  0.00    +0.000 A 
ATOM     10  C   UNL     1       4.564   3.893  16.279  0.00  0.00    +0.000 A 
ATOM     11  C   UNL     1       3.914   4.359  17.429  0.00  0.00    +0.000 A 
ATOM     12  C   UNL     1       3.999   5.709  17.795  0.00  0.00    +0.000 A 
ATOM     13  C   UNL     1       4.779   6.580  17.023  0.00  0.00    +0.000 A 
ATOM     14  C   UNL     1       5.423   6.115  15.869  0.00  0.00    +0.000 A 
BRANCH   9  16
ATOM     15  N   UNL     1       6.497   3.918  13.344  0.00  0.00    +0.000 NA
ATOM     16  C   UNL     1       5.970   4.302  14.303  0.00  0.00    +0.000 C 
ENDBRANCH   9  16
ENDBRANCH   7  12
ENDBRANCH   1   7
BRANCH   4  17
ATOM     17  O   UNL     1       0.036  10.788  19.112  0.00  0.00    +0.000 OA
BRANCH  17  18
ATOM     18  C   UNL     1       0.731  12.036  18.983  0.00  0.00    +0.000 C 
ATOM     19  O   UNL     1       1.461  12.312  20.181  0.00  0.00    +0.000 OA
ATOM     20  C   UNL     1       2.157  13.552  20.133  0.00  0.00    +0.000 C 
ATOM     21  C   UNL     1       1.200  14.731  19.965  0.00  0.00    +0.000 C 
ATOM     22  C   UNL     1       0.348  14.519  18.705  0.00  0.00    +0.000 C 
ATOM     23  C   UNL     1      -0.330  13.138  18.724  0.00  0.00    +0.000 C 
BRANCH  21  24
ATOM     24  O   UNL     1       1.947  15.947  19.909  0.00  0.00    +0.000 OA
ATOM     25  H   UNL     1       2.813  15.771  19.501  0.00  0.00    +0.000 HD
ENDBRANCH  21  24
BRANCH  22  26
ATOM     26  O   UNL     1      -0.613  15.573  18.564  0.00  0.00    +0.000 OA
ATOM     27  H   UNL     1      -1.331  15.262  17.985  0.00  0.00    +0.000 HD
ENDBRANCH  22  26
BRANCH  23  28
ATOM     28  O   UNL     1      -1.029  12.913  17.488  0.00  0.00    +0.000 OA
ATOM     29  H   UNL     1      -1.470  13.737  17.221  0.00  0.00    +0.000 HD
ENDBRANCH  23  28
ENDBRANCH  17  18
ENDBRANCH   4  17
TORSDOF 8
ENDMDL
MODEL 9
REMARK VINA RESULT:      -7.6      1.832      2.645
REMARK  Name = 
REMARK  8 active torsions:
REMARK  status: ('A' for Active; 'I' for Inactive)
REMARK    1  A    between atoms: C_2  and  C_3
REMARK    2  A    between atoms: C_6  and  C_7
REMARK    3  A    between atoms: C_7  and  C_9
REMARK    4  A    between atoms: C_12  and  O_13
REMARK    5  A    between atoms: O_13  and  C_14
REMARK    6  A    between atoms: C_17  and  O_18
REMARK    7  A    between atoms: C_19  and  O_20
REMARK    8  A    between atoms: C_21  and  O_22
REMARK                            x       y       z     vdW  Elec       q    Type
REMARK                         _______ _______ _______ _____ _____    ______ ____
ROOT
ATOM      1  C   UNL     1       1.514   9.003  19.254  0.00  0.00    +0.000 A 
ATOM      2  C   UNL     1       1.843   7.880  20.026  0.00  0.00    +0.000 A 
ATOM      3  C   UNL     1       2.700   6.893  19.518  0.00  0.00    +0.000 A 
ATOM      4  C   UNL     1       3.225   7.023  18.233  0.00  0.00    +0.000 A 
ATOM      5  C   UNL     1       2.941   8.168  17.486  0.00  0.00    +0.000 A 
ATOM      6  C   UNL     1       2.095   9.159  17.992  0.00  0.00    +0.000 A 
ENDROOT
BRANCH   1   7
ATOM      7  C   UNL     1       0.592  10.023  19.827  0.00  0.00    +0.000 C 
ATOM      8  O   UNL     1       0.878  10.553  20.898  0.00  0.00    +0.000 OA
BRANCH   7  12
ATOM      9  C   UNL     1      -3.086  11.216  17.936  0.00  0.00    +0.000 A 
ATOM     10  C   UNL     1      -2.626  11.870  19.084  0.00  0.00    +0.000 A 
ATOM     11  C   UNL     1      -1.428  11.470  19.689  0.00  0.00    +0.000 A 
ATOM     12  C   UNL     1      -0.675  10.420  19.147  0.00  0.00    +0.000 A 
ATOM     13  C   UNL     1      -1.155   9.744  18.017  0.00  0.00    +0.000 A 
ATOM     14  C   UNL     1      -2.350  10.150  17.408  0.00  0.00    +0.000 A 
BRANCH   9  16
ATOM     15  N   UNL     1      -5.290  11.966  16.789  0.00  0.00    +0.000 NA
ATOM     16  C   UNL     1      -4.307  11.632  17.303  0.00  0.00    +0.000 C 
ENDBRANCH   9  16
ENDBRANCH   7  12
ENDBRANCH   1   7
BRANCH   4  17
ATOM     17  O   UNL     1       4.063   6.129  17.626  0.00  0.00    +0.000 OA
BRANCH  17  18
ATOM     18  C   UNL     1       3.645   4.758  17.610  0.00  0.00    +0.000 C 
ATOM     19  O   UNL     1       2.254   4.670  17.932  0.00  0.00    +0.000 OA
ATOM     20  C   UNL     1       1.775   3.331  17.960  0.00  0.00    +0.000 C 
ATOM     21  C   UNL     1       2.487   2.498  19.024  0.00  0.00    +0.000 C 
ATOM     22  C   UNL     1       4.002   2.544  18.778  0.00  0.00    +0.000 C 
ATOM     23  C   UNL     1       4.497   3.997  18.659  0.00  0.00    +0.000 C 
BRANCH  21  24
ATOM     24  O   UNL     1       1.981   1.162  19.002  0.00  0.00    +0.000 OA
ATOM     25  H   UNL     1       1.443   1.012  19.799  0.00  0.00    +0.000 HD
ENDBRANCH  21  24
BRANCH  22  26
ATOM     26  O   UNL     1       4.702   1.834  19.808  0.00  0.00    +0.000 OA
ATOM     27  H   UNL     1       4.437   0.898  19.773  0.00  0.00    +0.000 HD
ENDBRANCH  22  26
BRANCH  23  28
ATOM     28  O   UNL     1       5.893   4.018  18.318  0.00  0.00    +0.000 OA
ATOM     29  H   UNL     1       6.032   3.473  17.525  0.00  0.00    +0.000 HD
ENDBRANCH  23  28
ENDBRANCH  17  18
ENDBRANCH   4  17
TORSDOF 8
ENDMDL
