MODEL 1
REMARK VINA RESULT:      -7.1      0.000      0.000
REMARK  Name = 
REMARK  5 active torsions:
REMARK  status: ('A' for Active; 'I' for Inactive)
REMARK    1  A    between atoms: C_1  and  O_2
REMARK    2  A    between atoms: O_2  and  C_3
REMARK    3  A    between atoms: C_4  and  C_5
REMARK    4  A    between atoms: C_15  and  O_16
REMARK    5  A    between atoms: C_18  and  O_19
REMARK                            x       y       z     vdW  Elec       q    Type
REMARK                         _______ _______ _______ _____ _____    ______ ____
ROOT
ATOM      1  C   UNL     1       5.750   5.289  17.095  0.00  0.00    +0.000 A 
ATOM      2  C   UNL     1       4.820   4.339  16.874  0.00  0.00    +0.000 A 
ATOM      3  O   UNL     1       4.749   3.544  15.747  0.00  0.00    +0.000 OA
ATOM      4  C   UNL     1       5.564   3.838  14.687  0.00  0.00    +0.000 A 
ATOM      5  C   UNL     1       5.300   3.148  13.501  0.00  0.00    +0.000 A 
ATOM      6  C   UNL     1       6.089   3.393  12.385  0.00  0.00    +0.000 A 
ATOM      7  C   UNL     1       7.134   4.308  12.439  0.00  0.00    +0.000 A 
ATOM      8  C   UNL     1       7.389   4.996  13.628  0.00  0.00    +0.000 A 
ATOM      9  C   UNL     1       6.605   4.761  14.765  0.00  0.00    +0.000 A 
ATOM     10  C   UNL     1       6.831   5.438  16.061  0.00  0.00    +0.000 A 
ATOM     11  O   UNL     1       7.859   6.066  16.290  0.00  0.00    +0.000 OA
ENDROOT
BRANCH   2  12
ATOM     12  C   UNL     1       3.743   4.015  17.825  0.00  0.00    +0.000 A 
ATOM     13  C   UNL     1       2.518   4.697  17.769  0.00  0.00    +0.000 A 
ATOM     14  C   UNL     1       1.452   4.296  18.580  0.00  0.00    +0.000 A 
ATOM     15  C   UNL     1       1.613   3.218  19.444  0.00  0.00    +0.000 A 
ATOM     16  F   UNL     1       0.580   2.816  20.195  0.00  0.00    +0.000 F 
ATOM     17  C   UNL     1       2.824   2.543  19.527  0.00  0.00    +0.000 A 
ATOM     18  C   UNL     1       3.892   2.941  18.717  0.00  0.00    +0.000 A 
ENDBRANCH   2  12
BRANCH   1  20
ATOM     19  C   UNL     1       6.527   5.563  19.331  0.00  0.00    +0.000 C 
ATOM     20  O   UNL     1       5.726   6.054  18.257  0.00  0.00    +0.000 OA
ENDBRANCH   1  20
BRANCH   6  21
ATOM     21  O   UNL     1       5.867   2.755  11.201  0.00  0.00    +0.000 OA
ATOM     22  H   UNL     1       6.690   2.749  10.683  0.00  0.00    +0.000 HD
ENDBRANCH   6  21
BRANCH   8  23
ATOM     23  O   UNL     1       8.399   5.915  13.646  0.00  0.00    +0.000 OA
ATOM     24  H   UNL     1       8.040   6.809  13.750  0.00  0.00    +0.000 HD
ENDBRANCH   8  23
TORSDOF 4
ENDMDL
MODEL 2
REMARK VINA RESULT:      -7.1      0.246      1.061
REMARK  Name = 
REMARK  5 active torsions:
REMARK  status: ('A' for Active; 'I' for Inactive)
REMARK    1  A    between atoms: C_1  and  O_2
REMARK    2  A    between atoms: O_2  and  C_3
REMARK    3  A    between atoms: C_4  and  C_5
REMARK    4  A    between atoms: C_15  and  O_16
REMARK    5  A    between atoms: C_18  and  O_19
REMARK                            x       y       z     vdW  Elec       q    Type
REMARK                         _______ _______ _______ _____ _____    ______ ____
ROOT
ATOM      1  C   UNL     1       5.697   5.288  17.102  0.00  0.00    +0.000 A 
ATOM      2  C   UNL     1       4.760   4.347  16.870  0.00  0.00    +0.000 A 
ATOM      3  O   UNL     1       4.692   3.556  15.740  0.00  0.00    +0.000 OA
ATOM      4  C   UNL     1       5.519   3.844  14.689  0.00  0.00    +0.000 A 
ATOM      5  C   UNL     1       5.259   3.160  13.499  0.00  0.00    +0.000 A 
ATOM      6  C   UNL     1       6.061   3.400  12.390  0.00  0.00    +0.000 A 
ATOM      7  C   UNL     1       7.114   4.304  12.456  0.00  0.00    +0.000 A 
ATOM      8  C   UNL     1       7.366   4.986  13.649  0.00  0.00    +0.000 A 
ATOM      9  C   UNL     1       6.568   4.757  14.778  0.00  0.00    +0.000 A 
ATOM     10  C   UNL     1       6.789   5.428  16.078  0.00  0.00    +0.000 A 
ATOM     11  O   UNL     1       7.821   6.046  16.318  0.00  0.00    +0.000 OA
ENDROOT
BRANCH   2  12
ATOM     12  C   UNL     1       3.671   4.032  17.810  0.00  0.00    +0.000 A 
ATOM     13  C   UNL     1       3.836   3.027  18.776  0.00  0.00    +0.000 A 
ATOM     14  C   UNL     1       2.856   2.823  19.752  0.00  0.00    +0.000 A 
ATOM     15  C   UNL     1       1.716   3.620  19.760  0.00  0.00    +0.000 A 
ATOM     16  F   UNL     1       0.796   3.444  20.717  0.00  0.00    +0.000 F 
ATOM     17  C   UNL     1       1.527   4.606  18.800  0.00  0.00    +0.000 A 
ATOM     18  C   UNL     1       2.505   4.814  17.823  0.00  0.00    +0.000 A 
ENDBRANCH   2  12
BRANCH   1  20
ATOM     19  C   UNL     1       6.469   5.558  19.340  0.00  0.00    +0.000 C 
ATOM     20  O   UNL     1       5.670   6.050  18.265  0.00  0.00    +0.000 OA
ENDBRANCH   1  20
BRANCH   6  21
ATOM     21  O   UNL     1       5.844   2.767  11.203  0.00  0.00    +0.000 OA
ATOM     22  H   UNL     1       6.676   2.738  10.700  0.00  0.00    +0.000 HD
ENDBRANCH   6  21
BRANCH   8  23
ATOM     23  O   UNL     1       8.384   5.895  13.679  0.00  0.00    +0.000 OA
ATOM     24  H   UNL     1       8.492   6.310  12.809  0.00  0.00    +0.000 HD
ENDBRANCH   8  23
TORSDOF 4
ENDMDL
MODEL 3
REMARK VINA RESULT:      -6.9      3.483      5.068
REMARK  Name = 
REMARK  5 active torsions:
REMARK  status: ('A' for Active; 'I' for Inactive)
REMARK    1  A    between atoms: C_1  and  O_2
REMARK    2  A    between atoms: O_2  and  C_3
REMARK    3  A    between atoms: C_4  and  C_5
REMARK    4  A    between atoms: C_15  and  O_16
REMARK    5  A    between atoms: C_18  and  O_19
REMARK                            x       y       z     vdW  Elec       q    Type
REMARK                         _______ _______ _______ _____ _____    ______ ____
ROOT
ATOM      1  C   UNL     1       2.284   5.359  18.744  0.00  0.00    +0.000 A 
ATOM      2  C   UNL     1       2.682   6.616  18.463  0.00  0.00    +0.000 A 
ATOM      3  O   UNL     1       3.682   6.951  17.572  0.00  0.00    +0.000 OA
ATOM      4  C   UNL     1       4.459   5.951  17.053  0.00  0.00    +0.000 A 
ATOM      5  C   UNL     1       5.587   6.359  16.336  0.00  0.00    +0.000 A 
ATOM      6  C   UNL     1       6.419   5.398  15.778  0.00  0.00    +0.000 A 
ATOM      7  C   UNL     1       6.139   4.043  15.922  0.00  0.00    +0.000 A 
ATOM      8  C   UNL     1       5.011   3.644  16.642  0.00  0.00    +0.000 A 
ATOM      9  C   UNL     1       4.159   4.599  17.211  0.00  0.00    +0.000 A 
ATOM     10  C   UNL     1       2.937   4.248  17.969  0.00  0.00    +0.000 A 
ATOM     11  O   UNL     1       2.467   3.116  17.946  0.00  0.00    +0.000 OA
ENDROOT
BRANCH   2  12
ATOM     12  C   UNL     1       2.087   7.815  19.075  0.00  0.00    +0.000 A 
ATOM     13  C   UNL     1       1.690   8.899  18.275  0.00  0.00    +0.000 A 
ATOM     14  C   UNL     1       1.003   9.976  18.842  0.00  0.00    +0.000 A 
ATOM     15  C   UNL     1       0.716   9.970  20.203  0.00  0.00    +0.000 A 
ATOM     16  F   UNL     1       0.028  10.989  20.735  0.00  0.00    +0.000 F 
ATOM     17  C   UNL     1       1.117   8.916  21.013  0.00  0.00    +0.000 A 
ATOM     18  C   UNL     1       1.805   7.836  20.450  0.00  0.00    +0.000 A 
ENDBRANCH   2  12
BRANCH   1  20
ATOM     19  C   UNL     1       1.667   4.367  20.821  0.00  0.00    +0.000 C 
ATOM     20  O   UNL     1       1.277   5.121  19.674  0.00  0.00    +0.000 OA
ENDBRANCH   1  20
BRANCH   6  21
ATOM     21  O   UNL     1       7.537   5.741  15.079  0.00  0.00    +0.000 OA
ATOM     22  H   UNL     1       8.242   5.987  15.703  0.00  0.00    +0.000 HD
ENDBRANCH   6  21
BRANCH   8  23
ATOM     23  O   UNL     1       4.776   2.308  16.798  0.00  0.00    +0.000 OA
ATOM     24  H   UNL     1       5.339   1.794  16.199  0.00  0.00    +0.000 HD
ENDBRANCH   8  23
TORSDOF 4
ENDMDL
MODEL 4
REMARK VINA RESULT:      -6.9      3.613      6.799
REMARK  Name = 
REMARK  5 active torsions:
REMARK  status: ('A' for Active; 'I' for Inactive)
REMARK    1  A    between atoms: C_1  and  O_2
REMARK    2  A    between atoms: O_2  and  C_3
REMARK    3  A    between atoms: C_4  and  C_5
REMARK    4  A    between atoms: C_15  and  O_16
REMARK    5  A    between atoms: C_18  and  O_19
REMARK                            x       y       z     vdW  Elec       q    Type
REMARK                         _______ _______ _______ _____ _____    ______ ____
ROOT
ATOM      1  C   UNL     1       4.215   4.731  18.207  0.00  0.00    +0.000 A 
ATOM      2  C   UNL     1       4.517   5.502  17.144  0.00  0.00    +0.000 A 
ATOM      3  O   UNL     1       4.141   6.822  16.988  0.00  0.00    +0.000 OA
ATOM      4  C   UNL     1       3.253   7.359  17.880  0.00  0.00    +0.000 A 
ATOM      5  C   UNL     1       2.741   8.617  17.553  0.00  0.00    +0.000 A 
ATOM      6  C   UNL     1       1.837   9.225  18.414  0.00  0.00    +0.000 A 
ATOM      7  C   UNL     1       1.445   8.599  19.593  0.00  0.00    +0.000 A 
ATOM      8  C   UNL     1       1.960   7.341  19.911  0.00  0.00    +0.000 A 
ATOM      9  C   UNL     1       2.874   6.712  19.054  0.00  0.00    +0.000 A 
ATOM     10  C   UNL     1       3.474   5.389  19.338  0.00  0.00    +0.000 A 
ATOM     11  O   UNL     1       3.395   4.869  20.446  0.00  0.00    +0.000 OA
ENDROOT
BRANCH   2  12
ATOM     12  C   UNL     1       5.304   5.030  15.992  0.00  0.00    +0.000 A 
ATOM     13  C   UNL     1       4.681   4.335  14.943  0.00  0.00    +0.000 A 
ATOM     14  C   UNL     1       5.402   4.009  13.790  0.00  0.00    +0.000 A 
ATOM     15  C   UNL     1       6.740   4.376  13.688  0.00  0.00    +0.000 A 
ATOM     16  F   UNL     1       7.417   4.092  12.569  0.00  0.00    +0.000 F 
ATOM     17  C   UNL     1       7.377   5.048  14.724  0.00  0.00    +0.000 A 
ATOM     18  C   UNL     1       6.660   5.376  15.879  0.00  0.00    +0.000 A 
ENDBRANCH   2  12
BRANCH   1  20
ATOM     19  C   UNL     1       3.605   2.436  18.012  0.00  0.00    +0.000 C 
ATOM     20  O   UNL     1       4.624   3.402  18.264  0.00  0.00    +0.000 OA
ENDBRANCH   1  20
BRANCH   6  21
ATOM     21  O   UNL     1       1.299  10.446  18.138  0.00  0.00    +0.000 OA
ATOM     22  H   UNL     1       1.511  11.060  18.861  0.00  0.00    +0.000 HD
ENDBRANCH   6  21
BRANCH   8  23
ATOM     23  O   UNL     1       1.534   6.732  21.056  0.00  0.00    +0.000 OA
ATOM     24  H   UNL     1       0.567   6.671  21.067  0.00  0.00    +0.000 HD
ENDBRANCH   8  23
TORSDOF 4
ENDMDL
MODEL 5
REMARK VINA RESULT:      -6.8      4.436      7.515
REMARK  Name = 
REMARK  5 active torsions:
REMARK  status: ('A' for Active; 'I' for Inactive)
REMARK    1  A    between atoms: C_1  and  O_2
REMARK    2  A    between atoms: O_2  and  C_3
REMARK    3  A    between atoms: C_4  and  C_5
REMARK    4  A    between atoms: C_15  and  O_16
REMARK    5  A    between atoms: C_18  and  O_19
REMARK                            x       y       z     vdW  Elec       q    Type
REMARK                         _______ _______ _______ _____ _____    ______ ____
ROOT
ATOM      1  C   UNL     1       2.610   7.236  18.211  0.00  0.00    +0.000 A 
ATOM      2  C   UNL     1       2.335   6.392  19.225  0.00  0.00    +0.000 A 
ATOM      3  O   UNL     1       1.648   6.729  20.374  0.00  0.00    +0.000 OA
ATOM      4  C   UNL     1       1.365   8.048  20.605  0.00  0.00    +0.000 A 
ATOM      5  C   UNL     1       0.869   8.356  21.874  0.00  0.00    +0.000 A 
ATOM      6  C   UNL     1       0.557   9.674  22.178  0.00  0.00    +0.000 A 
ATOM      7  C   UNL     1       0.727  10.682  21.234  0.00  0.00    +0.000 A 
ATOM      8  C   UNL     1       1.225  10.365  19.968  0.00  0.00    +0.000 A 
ATOM      9  C   UNL     1       1.545   9.040  19.644  0.00  0.00    +0.000 A 
ATOM     10  C   UNL     1       2.059   8.631  18.318  0.00  0.00    +0.000 A 
ATOM     11  O   UNL     1       2.013   9.381  17.348  0.00  0.00    +0.000 OA
ENDROOT
BRANCH   2  12
ATOM     12  C   UNL     1       2.734   4.975  19.236  0.00  0.00    +0.000 A 
ATOM     13  C   UNL     1       1.857   3.986  18.763  0.00  0.00    +0.000 A 
ATOM     14  C   UNL     1       2.288   2.661  18.648  0.00  0.00    +0.000 A 
ATOM     15  C   UNL     1       3.589   2.327  19.006  0.00  0.00    +0.000 A 
ATOM     16  F   UNL     1       4.008   1.063  18.863  0.00  0.00    +0.000 F 
ATOM     17  C   UNL     1       4.465   3.288  19.494  0.00  0.00    +0.000 A 
ATOM     18  C   UNL     1       4.038   4.615  19.610  0.00  0.00    +0.000 A 
ENDBRANCH   2  12
BRANCH   1  20
ATOM     19  C   UNL     1       4.722   7.104  17.117  0.00  0.00    +0.000 C 
ATOM     20  O   UNL     1       3.327   6.807  17.099  0.00  0.00    +0.000 OA
ENDBRANCH   1  20
BRANCH   6  21
ATOM     21  O   UNL     1       0.080  10.031  23.404  0.00  0.00    +0.000 OA
ATOM     22  H   UNL     1      -0.550  10.764  23.301  0.00  0.00    +0.000 HD
ENDBRANCH   6  21
BRANCH   8  23
ATOM     23  O   UNL     1       1.416  11.376  19.071  0.00  0.00    +0.000 OA
ATOM     24  H   UNL     1       2.067  11.115  18.401  0.00  0.00    +0.000 HD
ENDBRANCH   8  23
TORSDOF 4
ENDMDL
MODEL 6
REMARK VINA RESULT:      -6.8      3.472      5.249
REMARK  Name = 
REMARK  5 active torsions:
REMARK  status: ('A' for Active; 'I' for Inactive)
REMARK    1  A    between atoms: C_1  and  O_2
REMARK    2  A    between atoms: O_2  and  C_3
REMARK    3  A    between atoms: C_4  and  C_5
REMARK    4  A    between atoms: C_15  and  O_16
REMARK    5  A    between atoms: C_18  and  O_19
REMARK                            x       y       z     vdW  Elec       q    Type
REMARK                         _______ _______ _______ _____ _____    ______ ____
ROOT
ATOM      1  C   UNL     1       2.154   5.230  18.775  0.00  0.00    +0.000 A 
ATOM      2  C   UNL     1       2.562   6.513  18.705  0.00  0.00    +0.000 A 
ATOM      3  O   UNL     1       3.637   6.966  17.966  0.00  0.00    +0.000 OA
ATOM      4  C   UNL     1       4.470   6.045  17.391  0.00  0.00    +0.000 A 
ATOM      5  C   UNL     1       5.654   6.547  16.846  0.00  0.00    +0.000 A 
ATOM      6  C   UNL     1       6.547   5.670  16.243  0.00  0.00    +0.000 A 
ATOM      7  C   UNL     1       6.271   4.309  16.173  0.00  0.00    +0.000 A 
ATOM      8  C   UNL     1       5.085   3.815  16.724  0.00  0.00    +0.000 A 
ATOM      9  C   UNL     1       4.172   4.685  17.335  0.00  0.00    +0.000 A 
ATOM     10  C   UNL     1       2.890   4.235  17.921  0.00  0.00    +0.000 A 
ATOM     11  O   UNL     1       2.437   3.117  17.699  0.00  0.00    +0.000 OA
ENDROOT
BRANCH   2  12
ATOM     12  C   UNL     1       1.899   7.618  19.417  0.00  0.00    +0.000 A 
ATOM     13  C   UNL     1       1.745   7.574  20.812  0.00  0.00    +0.000 A 
ATOM     14  C   UNL     1       1.240   8.682  21.499  0.00  0.00    +0.000 A 
ATOM     15  C   UNL     1       0.889   9.828  20.793  0.00  0.00    +0.000 A 
ATOM     16  F   UNL     1       0.437  10.898  21.459  0.00  0.00    +0.000 F 
ATOM     17  C   UNL     1       1.016   9.883  19.411  0.00  0.00    +0.000 A 
ATOM     18  C   UNL     1       1.521   8.777  18.720  0.00  0.00    +0.000 A 
ENDBRANCH   2  12
BRANCH   1  20
ATOM     19  C   UNL     1       1.369   4.012  20.666  0.00  0.00    +0.000 C 
ATOM     20  O   UNL     1       1.069   4.868  19.565  0.00  0.00    +0.000 OA
ENDBRANCH   1  20
BRANCH   6  21
ATOM     21  O   UNL     1       7.721   6.104  15.704  0.00  0.00    +0.000 OA
ATOM     22  H   UNL     1       7.535   6.591  14.884  0.00  0.00    +0.000 HD
ENDBRANCH   6  21
BRANCH   8  23
ATOM     23  O   UNL     1       4.853   2.471  16.674  0.00  0.00    +0.000 OA
ATOM     24  H   UNL     1       4.670   2.193  15.763  0.00  0.00    +0.000 HD
ENDBRANCH   8  23
TORSDOF 4
ENDMDL
MODEL 7
REMARK VINA RESULT:      -6.8      3.074      6.334
REMARK  Name = 
REMARK  5 active torsions:
REMARK  status: ('A' for Active; 'I' for Inactive)
REMARK    1  A    between atoms: C_1  and  O_2
REMARK    2  A    between atoms: O_2  and  C_3
REMARK    3  A    between atoms: C_4  and  C_5
REMARK    4  A    between atoms: C_15  and  O_16
REMARK    5  A    between atoms: C_18  and  O_19
REMARK                            x       y       z     vdW  Elec       q    Type
REMARK                         _______ _______ _______ _____ _____    ______ ____
ROOT
ATOM      1  C   UNL     1       5.024   5.924  16.667  0.00  0.00    +0.000 A 
ATOM      2  C   UNL     1       4.907   4.789  15.950  0.00  0.00    +0.000 A 
ATOM      3  O   UNL     1       4.029   3.760  16.230  0.00  0.00    +0.000 OA
ATOM      4  C   UNL     1       3.338   3.792  17.410  0.00  0.00    +0.000 A 
ATOM      5  C   UNL     1       2.637   2.630  17.742  0.00  0.00    +0.000 A 
ATOM      6  C   UNL     1       1.911   2.591  18.925  0.00  0.00    +0.000 A 
ATOM      7  C   UNL     1       1.871   3.693  19.772  0.00  0.00    +0.000 A 
ATOM      8  C   UNL     1       2.577   4.850  19.435  0.00  0.00    +0.000 A 
ATOM      9  C   UNL     1       3.315   4.908  18.245  0.00  0.00    +0.000 A 
ATOM     10  C   UNL     1       4.070   6.106  17.815  0.00  0.00    +0.000 A 
ATOM     11  O   UNL     1       3.906   7.198  18.350  0.00  0.00    +0.000 OA
ENDROOT
BRANCH   2  12
ATOM     12  C   UNL     1       5.711   4.495  14.752  0.00  0.00    +0.000 A 
ATOM     13  C   UNL     1       5.167   3.743  13.699  0.00  0.00    +0.000 A 
ATOM     14  C   UNL     1       5.882   3.582  12.508  0.00  0.00    +0.000 A 
ATOM     15  C   UNL     1       7.136   4.169  12.373  0.00  0.00    +0.000 A 
ATOM     16  F   UNL     1       7.802   4.041  11.219  0.00  0.00    +0.000 F 
ATOM     17  C   UNL     1       7.698   4.901  13.412  0.00  0.00    +0.000 A 
ATOM     18  C   UNL     1       6.986   5.064  14.604  0.00  0.00    +0.000 A 
ENDBRANCH   2  12
BRANCH   1  20
ATOM     19  C   UNL     1       6.958   7.166  17.295  0.00  0.00    +0.000 C 
ATOM     20  O   UNL     1       5.954   6.897  16.317  0.00  0.00    +0.000 OA
ENDBRANCH   1  20
BRANCH   6  21
ATOM     21  O   UNL     1       1.218   1.479  19.301  0.00  0.00    +0.000 OA
ATOM     22  H   UNL     1       1.824   0.859  19.742  0.00  0.00    +0.000 HD
ENDBRANCH   6  21
BRANCH   8  23
ATOM     23  O   UNL     1       2.551   5.906  20.300  0.00  0.00    +0.000 OA
ATOM     24  H   UNL     1       3.275   5.835  20.941  0.00  0.00    +0.000 HD
ENDBRANCH   8  23
TORSDOF 4
ENDMDL
MODEL 8
REMARK VINA RESULT:      -6.7      3.244      6.900
REMARK  Name = 
REMARK  5 active torsions:
REMARK  status: ('A' for Active; 'I' for Inactive)
REMARK    1  A    between atoms: C_1  and  O_2
REMARK    2  A    between atoms: O_2  and  C_3
REMARK    3  A    between atoms: C_4  and  C_5
REMARK    4  A    between atoms: C_15  and  O_16
REMARK    5  A    between atoms: C_18  and  O_19
REMARK                            x       y       z     vdW  Elec       q    Type
REMARK                         _______ _______ _______ _____ _____    ______ ____
ROOT
ATOM      1  C   UNL     1       4.199   4.324  17.063  0.00  0.00    +0.000 A 
ATOM      2  C   UNL     1       4.813   4.789  18.169  0.00  0.00    +0.000 A 
ATOM      3  O   UNL     1       4.463   4.467  19.466  0.00  0.00    +0.000 OA
ATOM      4  C   UNL     1       3.307   3.766  19.677  0.00  0.00    +0.000 A 
ATOM      5  C   UNL     1       2.888   3.659  21.005  0.00  0.00    +0.000 A 
ATOM      6  C   UNL     1       1.725   2.958  21.294  0.00  0.00    +0.000 A 
ATOM      7  C   UNL     1       0.982   2.363  20.281  0.00  0.00    +0.000 A 
ATOM      8  C   UNL     1       1.406   2.477  18.955  0.00  0.00    +0.000 A 
ATOM      9  C   UNL     1       2.578   3.179  18.644  0.00  0.00    +0.000 A 
ATOM     10  C   UNL     1       3.096   3.323  17.266  0.00  0.00    +0.000 A 
ATOM     11  O   UNL     1       2.666   2.641  16.340  0.00  0.00    +0.000 OA
ENDROOT
BRANCH   2  12
ATOM     12  C   UNL     1       5.960   5.711  18.138  0.00  0.00    +0.000 A 
ATOM     13  C   UNL     1       5.903   6.889  17.376  0.00  0.00    +0.000 A 
ATOM     14  C   UNL     1       6.936   7.828  17.456  0.00  0.00    +0.000 A 
ATOM     15  C   UNL     1       8.020   7.589  18.293  0.00  0.00    +0.000 A 
ATOM     16  F   UNL     1       8.991   8.507  18.393  0.00  0.00    +0.000 F 
ATOM     17  C   UNL     1       8.102   6.421  19.040  0.00  0.00    +0.000 A 
ATOM     18  C   UNL     1       7.072   5.479  18.963  0.00  0.00    +0.000 A 
ENDBRANCH   2  12
BRANCH   1  20
ATOM     19  C   UNL     1       5.670   3.952  15.226  0.00  0.00    +0.000 C 
ATOM     20  O   UNL     1       4.614   4.722  15.796  0.00  0.00    +0.000 OA
ENDBRANCH   1  20
BRANCH   6  21
ATOM     21  O   UNL     1       1.266   2.832  22.572  0.00  0.00    +0.000 OA
ATOM     22  H   UNL     1       0.294   2.861  22.567  0.00  0.00    +0.000 HD
ENDBRANCH   6  21
BRANCH   8  23
ATOM     23  O   UNL     1       0.641   1.913  17.975  0.00  0.00    +0.000 OA
ATOM     24  H   UNL     1      -0.301   2.054  18.158  0.00  0.00    +0.000 HD
ENDBRANCH   8  23
TORSDOF 4
ENDMDL
MODEL 9
REMARK VINA RESULT:      -6.7      3.067      6.314
REMARK  Name = 
REMARK  5 active torsions:
REMARK  status: ('A' for Active; 'I' for Inactive)
REMARK    1  A    between atoms: C_1  and  O_2
REMARK    2  A    between atoms: O_2  and  C_3
REMARK    3  A    between atoms: C_4  and  C_5
REMARK    4  A    between atoms: C_15  and  O_16
REMARK    5  A    between atoms: C_18  and  O_19
REMARK                            x       y       z     vdW  Elec       q    Type
REMARK                         _______ _______ _______ _____ _____    ______ ____
ROOT
ATOM      1  C   UNL     1       5.034   5.921  16.655  0.00  0.00    +0.000 A 
ATOM      2  C   UNL     1       4.879   4.828  15.882  0.00  0.00    +0.000 A 
ATOM      3  O   UNL     1       4.025   3.777  16.154  0.00  0.00    +0.000 OA
ATOM      4  C   UNL     1       3.408   3.735  17.375  0.00  0.00    +0.000 A 
ATOM      5  C   UNL     1       2.735   2.549  17.681  0.00  0.00    +0.000 A 
ATOM      6  C   UNL     1       2.083   2.436  18.902  0.00  0.00    +0.000 A 
ATOM      7  C   UNL     1       2.091   3.487  19.812  0.00  0.00    +0.000 A 
ATOM      8  C   UNL     1       2.768   4.667  19.500  0.00  0.00    +0.000 A 
ATOM      9  C   UNL     1       3.431   4.800  18.272  0.00  0.00    +0.000 A 
ATOM     10  C   UNL     1       4.152   6.027  17.868  0.00  0.00    +0.000 A 
ATOM     11  O   UNL     1       4.015   7.085  18.474  0.00  0.00    +0.000 OA
ENDROOT
BRANCH   2  12
ATOM     12  C   UNL     1       5.609   4.611  14.622  0.00  0.00    +0.000 A 
ATOM     13  C   UNL     1       6.927   5.072  14.475  0.00  0.00    +0.000 A 
ATOM     14  C   UNL     1       7.663   4.746  13.333  0.00  0.00    +0.000 A 
ATOM     15  C   UNL     1       7.084   3.964  12.340  0.00  0.00    +0.000 A 
ATOM     16  F   UNL     1       7.803   3.626  11.263  0.00  0.00    +0.000 F 
ATOM     17  C   UNL     1       5.774   3.514  12.459  0.00  0.00    +0.000 A 
ATOM     18  C   UNL     1       5.035   3.837  13.600  0.00  0.00    +0.000 A 
ENDBRANCH   2  12
BRANCH   1  20
ATOM     19  C   UNL     1       6.974   7.168  17.252  0.00  0.00    +0.000 C 
ATOM     20  O   UNL     1       5.936   6.920  16.305  0.00  0.00    +0.000 OA
ENDBRANCH   1  20
BRANCH   6  21
ATOM     21  O   UNL     1       1.421   1.299  19.254  0.00  0.00    +0.000 OA
ATOM     22  H   UNL     1       0.502   1.521  19.482  0.00  0.00    +0.000 HD
ENDBRANCH   6  21
BRANCH   8  23
ATOM     23  O   UNL     1       2.791   5.671  20.425  0.00  0.00    +0.000 OA
ATOM     24  H   UNL     1       2.345   5.391  21.239  0.00  0.00    +0.000 HD
ENDBRANCH   8  23
TORSDOF 4
ENDMDL
