MODEL 1
REMARK VINA RESULT:      -8.1      0.000      0.000
REMARK  Name = 
REMARK  7 active torsions:
REMARK  status: ('A' for Active; 'I' for Inactive)
REMARK    1  A    between atoms: P_2  and  O_3
REMARK    2  A    between atoms: P_2  and  O_4
REMARK    3  A    between atoms: P_2  and  C_5
REMARK    4  A    between atoms: C_5  and  C_8
REMARK    5  A    between atoms: C_11  and  S_12
REMARK    6  A    between atoms: S_12  and  N_15
REMARK    7  A    between atoms: N_15  and  C_16
REMARK                            x       y       z     vdW  Elec       q    Type
REMARK                         _______ _______ _______ _____ _____    ______ ____
ROOT
ATOM      1  C   UNL     1       3.737   4.325  19.483  0.00  0.00    +0.000 A 
ATOM      2  C   UNL     1       3.397   5.636  19.100  0.00  0.00    +0.000 A 
ATOM      3  C   UNL     1       4.162   6.325  18.161  0.00  0.00    +0.000 A 
ATOM      4  C   UNL     1       5.293   5.722  17.606  0.00  0.00    +0.000 A 
ATOM      5  C   UNL     1       5.655   4.423  17.981  0.00  0.00    +0.000 A 
ATOM      6  C   UNL     1       4.881   3.732  18.922  0.00  0.00    +0.000 A 
ENDROOT
BRANCH   1   7
ATOM      7  C   UNL     1       2.765   3.507  20.324  0.00  0.00    +0.000 C 
ATOM      8  F   UNL     1       2.145   4.251  21.284  0.00  0.00    +0.000 F 
ATOM      9  F   UNL     1       3.296   2.415  20.932  0.00  0.00    +0.000 F 
BRANCH   7  11
ATOM     10  O   UNL     1       0.171   2.469  18.426  0.00  0.00    +0.000 OA
ATOM     11  P   UNL     1       1.360   2.944  19.297  0.00  0.00    +0.000 P 
BRANCH  11  12
ATOM     12  O   UNL     1       0.437   2.730  20.653  0.00  0.00    +0.000 OA
ATOM     13  H   UNL     1       0.646   1.846  21.016  0.00  0.00    +0.000 HD
ENDBRANCH  11  12
BRANCH  11  14
ATOM     14  O   UNL     1       1.979   1.408  19.256  0.00  0.00    +0.000 OA
ATOM     15  H   UNL     1       2.168   1.204  18.317  0.00  0.00    +0.000 HD
ENDBRANCH  11  14
ENDBRANCH   7  11
ENDBRANCH   1   7
BRANCH   4  16
ATOM     16  S   UNL     1       6.214   6.580  16.341  0.00  0.00    +0.000 S 
ATOM     17  O   UNL     1       5.295   6.868  15.261  0.00  0.00    +0.000 OA
ATOM     18  O   UNL     1       6.966   7.636  16.984  0.00  0.00    +0.000 OA
BRANCH  16  19
ATOM     19  N   UNL     1       7.282   5.414  15.750  0.00  0.00    +0.000 N 
ATOM     20  H   UNL     1       8.248   5.596  16.010  0.00  0.00    +0.000 HD
BRANCH  19  21
ATOM     21  C   UNL     1       7.031   4.835  14.478  0.00  0.00    +0.000 A 
ATOM     22  C   UNL     1       7.760   5.264  13.369  0.00  0.00    +0.000 A 
ATOM     23  C   UNL     1       7.469   4.747  12.106  0.00  0.00    +0.000 A 
ATOM     24  C   UNL     1       6.467   3.790  11.959  0.00  0.00    +0.000 A 
ATOM     25  C   UNL     1       5.744   3.357  13.071  0.00  0.00    +0.000 A 
ATOM     26  C   UNL     1       6.015   3.892  14.332  0.00  0.00    +0.000 A 
ENDBRANCH  19  21
ENDBRANCH  16  19
ENDBRANCH   4  16
TORSDOF 7
ENDMDL
MODEL 2
REMARK VINA RESULT:      -8.1      0.384      1.078
REMARK  Name = 
REMARK  7 active torsions:
REMARK  status: ('A' for Active; 'I' for Inactive)
REMARK    1  A    between atoms: P_2  and  O_3
REMARK    2  A    between atoms: P_2  and  O_4
REMARK    3  A    between atoms: P_2  and  C_5
REMARK    4  A    between atoms: C_5  and  C_8
REMARK    5  A    between atoms: C_11  and  S_12
REMARK    6  A    between atoms: S_12  and  N_15
REMARK    7  A    between atoms: N_15  and  C_16
REMARK                            x       y       z     vdW  Elec       q    Type
REMARK                         _______ _______ _______ _____ _____    ______ ____
ROOT
ATOM      1  C   UNL     1       3.683   4.371  19.387  0.00  0.00    +0.000 A 
ATOM      2  C   UNL     1       3.079   5.170  18.398  0.00  0.00    +0.000 A 
ATOM      3  C   UNL     1       3.855   5.882  17.485  0.00  0.00    +0.000 A 
ATOM      4  C   UNL     1       5.249   5.824  17.561  0.00  0.00    +0.000 A 
ATOM      5  C   UNL     1       5.870   5.044  18.543  0.00  0.00    +0.000 A 
ATOM      6  C   UNL     1       5.086   4.326  19.456  0.00  0.00    +0.000 A 
ENDROOT
BRANCH   1   7
ATOM      7  C   UNL     1       2.829   3.422  20.218  0.00  0.00    +0.000 C 
ATOM      8  F   UNL     1       2.266   4.032  21.300  0.00  0.00    +0.000 F 
ATOM      9  F   UNL     1       3.460   2.304  20.660  0.00  0.00    +0.000 F 
BRANCH   7  11
ATOM     10  O   UNL     1       0.121   2.444  18.450  0.00  0.00    +0.000 OA
ATOM     11  P   UNL     1       1.362   2.891  19.261  0.00  0.00    +0.000 P 
BRANCH  11  12
ATOM     12  O   UNL     1       0.479   2.776  20.655  0.00  0.00    +0.000 OA
ATOM     13  H   UNL     1       0.958   3.270  21.349  0.00  0.00    +0.000 HD
ENDBRANCH  11  12
BRANCH  11  14
ATOM     14  O   UNL     1       1.904   1.326  19.260  0.00  0.00    +0.000 OA
ATOM     15  H   UNL     1       1.127   0.757  19.085  0.00  0.00    +0.000 HD
ENDBRANCH  11  14
ENDBRANCH   7  11
ENDBRANCH   1   7
BRANCH   4  16
ATOM     16  S   UNL     1       6.231   6.670  16.334  0.00  0.00    +0.000 S 
ATOM     17  O   UNL     1       5.343   7.037  15.252  0.00  0.00    +0.000 OA
ATOM     18  O   UNL     1       7.029   7.665  17.018  0.00  0.00    +0.000 OA
BRANCH  16  19
ATOM     19  N   UNL     1       7.244   5.466  15.721  0.00  0.00    +0.000 N 
ATOM     20  H   UNL     1       8.223   5.619  15.953  0.00  0.00    +0.000 HD
BRANCH  19  21
ATOM     21  C   UNL     1       6.940   4.889  14.461  0.00  0.00    +0.000 A 
ATOM     22  C   UNL     1       5.894   3.972  14.357  0.00  0.00    +0.000 A 
ATOM     23  C   UNL     1       5.636   3.349  13.135  0.00  0.00    +0.000 A 
ATOM     24  C   UNL     1       6.409   3.661  12.017  0.00  0.00    +0.000 A 
ATOM     25  C   UNL     1       7.451   4.584  12.123  0.00  0.00    +0.000 A 
ATOM     26  C   UNL     1       7.728   5.187  13.350  0.00  0.00    +0.000 A 
ENDBRANCH  19  21
ENDBRANCH  16  19
ENDBRANCH   4  16
TORSDOF 7
ENDMDL
MODEL 3
REMARK VINA RESULT:      -7.9      1.552      2.055
REMARK  Name = 
REMARK  7 active torsions:
REMARK  status: ('A' for Active; 'I' for Inactive)
REMARK    1  A    between atoms: P_2  and  O_3
REMARK    2  A    between atoms: P_2  and  O_4
REMARK    3  A    between atoms: P_2  and  C_5
REMARK    4  A    between atoms: C_5  and  C_8
REMARK    5  A    between atoms: C_11  and  S_12
REMARK    6  A    between atoms: S_12  and  N_15
REMARK    7  A    between atoms: N_15  and  C_16
REMARK                            x       y       z     vdW  Elec       q    Type
REMARK                         _______ _______ _______ _____ _____    ______ ____
ROOT
ATOM      1  C   UNL     1       3.144   5.100  19.173  0.00  0.00    +0.000 A 
ATOM      2  C   UNL     1       3.028   5.269  17.780  0.00  0.00    +0.000 A 
ATOM      3  C   UNL     1       4.161   5.436  16.985  0.00  0.00    +0.000 A 
ATOM      4  C   UNL     1       5.428   5.458  17.574  0.00  0.00    +0.000 A 
ATOM      5  C   UNL     1       5.565   5.303  18.959  0.00  0.00    +0.000 A 
ATOM      6  C   UNL     1       4.424   5.132  19.753  0.00  0.00    +0.000 A 
ENDROOT
BRANCH   1   7
ATOM      7  C   UNL     1       1.926   4.687  19.988  0.00  0.00    +0.000 C 
ATOM      8  F   UNL     1       0.955   4.108  19.227  0.00  0.00    +0.000 F 
ATOM      9  F   UNL     1       1.342   5.679  20.710  0.00  0.00    +0.000 F 
BRANCH   7  11
ATOM     10  O   UNL     1       2.745   2.205  22.129  0.00  0.00    +0.000 OA
ATOM     11  P   UNL     1       2.369   3.343  21.147  0.00  0.00    +0.000 P 
BRANCH  11  12
ATOM     12  O   UNL     1       2.739   2.351  19.875  0.00  0.00    +0.000 OA
ATOM     13  H   UNL     1       1.952   1.801  19.692  0.00  0.00    +0.000 HD
ENDBRANCH  11  12
BRANCH  11  14
ATOM     14  O   UNL     1       0.779   2.895  21.268  0.00  0.00    +0.000 OA
ATOM     15  H   UNL     1       0.244   3.689  21.059  0.00  0.00    +0.000 HD
ENDBRANCH  11  14
ENDBRANCH   7  11
ENDBRANCH   1   7
BRANCH   4  16
ATOM     16  S   UNL     1       6.875   5.583  16.538  0.00  0.00    +0.000 S 
ATOM     17  O   UNL     1       7.611   6.753  16.968  0.00  0.00    +0.000 OA
ATOM     18  O   UNL     1       7.501   4.279  16.496  0.00  0.00    +0.000 OA
BRANCH  16  19
ATOM     19  N   UNL     1       6.254   5.955  15.013  0.00  0.00    +0.000 N 
ATOM     20  H   UNL     1       5.401   6.507  15.058  0.00  0.00    +0.000 HD
BRANCH  19  21
ATOM     21  C   UNL     1       6.375   4.998  13.971  0.00  0.00    +0.000 A 
ATOM     22  C   UNL     1       7.464   5.058  13.102  0.00  0.00    +0.000 A 
ATOM     23  C   UNL     1       7.550   4.163  12.035  0.00  0.00    +0.000 A 
ATOM     24  C   UNL     1       6.560   3.198  11.853  0.00  0.00    +0.000 A 
ATOM     25  C   UNL     1       5.475   3.136  12.728  0.00  0.00    +0.000 A 
ATOM     26  C   UNL     1       5.373   4.048  13.780  0.00  0.00    +0.000 A 
ENDBRANCH  19  21
ENDBRANCH  16  19
ENDBRANCH   4  16
TORSDOF 7
ENDMDL
MODEL 4
REMARK VINA RESULT:      -7.8      1.603      2.063
REMARK  Name = 
REMARK  7 active torsions:
REMARK  status: ('A' for Active; 'I' for Inactive)
REMARK    1  A    between atoms: P_2  and  O_3
REMARK    2  A    between atoms: P_2  and  O_4
REMARK    3  A    between atoms: P_2  and  C_5
REMARK    4  A    between atoms: C_5  and  C_8
REMARK    5  A    between atoms: C_11  and  S_12
REMARK    6  A    between atoms: S_12  and  N_15
REMARK    7  A    between atoms: N_15  and  C_16
REMARK                            x       y       z     vdW  Elec       q    Type
REMARK                         _______ _______ _______ _____ _____    ______ ____
ROOT
ATOM      1  C   UNL     1       3.327   4.221  18.639  0.00  0.00    +0.000 A 
ATOM      2  C   UNL     1       3.272   5.197  17.625  0.00  0.00    +0.000 A 
ATOM      3  C   UNL     1       4.433   5.616  16.976  0.00  0.00    +0.000 A 
ATOM      4  C   UNL     1       5.669   5.081  17.346  0.00  0.00    +0.000 A 
ATOM      5  C   UNL     1       5.747   4.118  18.359  0.00  0.00    +0.000 A 
ATOM      6  C   UNL     1       4.578   3.696  19.005  0.00  0.00    +0.000 A 
ENDROOT
BRANCH   1   7
ATOM      7  C   UNL     1       2.037   3.608  19.168  0.00  0.00    +0.000 C 
ATOM      8  F   UNL     1       1.703   2.451  18.530  0.00  0.00    +0.000 F 
ATOM      9  F   UNL     1       0.949   4.421  19.138  0.00  0.00    +0.000 F 
BRANCH   7  11
ATOM     10  O   UNL     1       2.462   2.576  22.357  0.00  0.00    +0.000 OA
ATOM     11  P   UNL     1       2.266   3.050  20.896  0.00  0.00    +0.000 P 
BRANCH  11  12
ATOM     12  O   UNL     1       0.630   2.878  21.071  0.00  0.00    +0.000 OA
ATOM     13  H   UNL     1       0.477   2.226  21.784  0.00  0.00    +0.000 HD
ENDBRANCH  11  12
BRANCH  11  14
ATOM     14  O   UNL     1       2.339   4.621  21.415  0.00  0.00    +0.000 OA
ATOM     15  H   UNL     1       1.523   5.062  21.100  0.00  0.00    +0.000 HD
ENDBRANCH  11  14
ENDBRANCH   7  11
ENDBRANCH   1   7
BRANCH   4  16
ATOM     16  S   UNL     1       7.136   5.561  16.449  0.00  0.00    +0.000 S 
ATOM     17  O   UNL     1       7.627   6.781  17.050  0.00  0.00    +0.000 OA
ATOM     18  O   UNL     1       7.981   4.392  16.331  0.00  0.00    +0.000 OA
BRANCH  16  19
ATOM     19  N   UNL     1       6.559   5.989  14.922  0.00  0.00    +0.000 N 
ATOM     20  H   UNL     1       5.780   6.643  14.964  0.00  0.00    +0.000 HD
BRANCH  19  21
ATOM     21  C   UNL     1       6.556   5.014  13.890  0.00  0.00    +0.000 A 
ATOM     22  C   UNL     1       7.548   5.045  12.910  0.00  0.00    +0.000 A 
ATOM     23  C   UNL     1       7.509   4.132  11.856  0.00  0.00    +0.000 A 
ATOM     24  C   UNL     1       6.493   3.179  11.796  0.00  0.00    +0.000 A 
ATOM     25  C   UNL     1       5.506   3.146  12.782  0.00  0.00    +0.000 A 
ATOM     26  C   UNL     1       5.528   4.076  13.823  0.00  0.00    +0.000 A 
ENDBRANCH  19  21
ENDBRANCH  16  19
ENDBRANCH   4  16
TORSDOF 7
ENDMDL
MODEL 5
REMARK VINA RESULT:      -7.8      1.474      2.308
REMARK  Name = 
REMARK  7 active torsions:
REMARK  status: ('A' for Active; 'I' for Inactive)
REMARK    1  A    between atoms: P_2  and  O_3
REMARK    2  A    between atoms: P_2  and  O_4
REMARK    3  A    between atoms: P_2  and  C_5
REMARK    4  A    between atoms: C_5  and  C_8
REMARK    5  A    between atoms: C_11  and  S_12
REMARK    6  A    between atoms: S_12  and  N_15
REMARK    7  A    between atoms: N_15  and  C_16
REMARK                            x       y       z     vdW  Elec       q    Type
REMARK                         _______ _______ _______ _____ _____    ______ ____
ROOT
ATOM      1  C   UNL     1       2.200   4.595  18.754  0.00  0.00    +0.000 A 
ATOM      2  C   UNL     1       2.686   3.910  17.624  0.00  0.00    +0.000 A 
ATOM      3  C   UNL     1       3.707   4.454  16.846  0.00  0.00    +0.000 A 
ATOM      4  C   UNL     1       4.244   5.702  17.174  0.00  0.00    +0.000 A 
ATOM      5  C   UNL     1       3.767   6.404  18.288  0.00  0.00    +0.000 A 
ATOM      6  C   UNL     1       2.744   5.852  19.069  0.00  0.00    +0.000 A 
ENDROOT
BRANCH   1   7
ATOM      7  C   UNL     1       1.258   3.886  19.719  0.00  0.00    +0.000 C 
ATOM      8  F   UNL     1       0.548   2.887  19.123  0.00  0.00    +0.000 F 
ATOM      9  F   UNL     1       0.372   4.689  20.365  0.00  0.00    +0.000 F 
BRANCH   7  11
ATOM     10  O   UNL     1       3.031   2.218  22.061  0.00  0.00    +0.000 OA
ATOM     11  P   UNL     1       2.218   2.982  20.988  0.00  0.00    +0.000 P 
BRANCH  11  12
ATOM     12  O   UNL     1       2.257   1.641  20.020  0.00  0.00    +0.000 OA
ATOM     13  H   UNL     1       3.191   1.365  19.936  0.00  0.00    +0.000 HD
ENDBRANCH  11  12
BRANCH  11  14
ATOM     14  O   UNL     1       0.823   2.586  21.789  0.00  0.00    +0.000 OA
ATOM     15  H   UNL     1       0.535   3.388  22.271  0.00  0.00    +0.000 HD
ENDBRANCH  11  14
ENDBRANCH   7  11
ENDBRANCH   1   7
BRANCH   4  16
ATOM     16  S   UNL     1       5.609   6.347  16.224  0.00  0.00    +0.000 S 
ATOM     17  O   UNL     1       5.063   6.886  14.998  0.00  0.00    +0.000 OA
ATOM     18  O   UNL     1       6.413   7.165  17.108  0.00  0.00    +0.000 OA
BRANCH  16  19
ATOM     19  N   UNL     1       6.485   4.974  15.783  0.00  0.00    +0.000 N 
ATOM     20  H   UNL     1       7.298   4.817  16.375  0.00  0.00    +0.000 HD
BRANCH  19  21
ATOM     21  C   UNL     1       6.588   4.637  14.408  0.00  0.00    +0.000 A 
ATOM     22  C   UNL     1       5.759   3.649  13.876  0.00  0.00    +0.000 A 
ATOM     23  C   UNL     1       5.904   3.266  12.542  0.00  0.00    +0.000 A 
ATOM     24  C   UNL     1       6.861   3.885  11.740  0.00  0.00    +0.000 A 
ATOM     25  C   UNL     1       7.685   4.878  12.273  0.00  0.00    +0.000 A 
ATOM     26  C   UNL     1       7.559   5.243  13.614  0.00  0.00    +0.000 A 
ENDBRANCH  19  21
ENDBRANCH  16  19
ENDBRANCH   4  16
TORSDOF 7
ENDMDL
MODEL 6
REMARK VINA RESULT:      -7.8      1.469      2.316
REMARK  Name = 
REMARK  7 active torsions:
REMARK  status: ('A' for Active; 'I' for Inactive)
REMARK    1  A    between atoms: P_2  and  O_3
REMARK    2  A    between atoms: P_2  and  O_4
REMARK    3  A    between atoms: P_2  and  C_5
REMARK    4  A    between atoms: C_5  and  C_8
REMARK    5  A    between atoms: C_11  and  S_12
REMARK    6  A    between atoms: S_12  and  N_15
REMARK    7  A    between atoms: N_15  and  C_16
REMARK                            x       y       z     vdW  Elec       q    Type
REMARK                         _______ _______ _______ _____ _____    ______ ____
ROOT
ATOM      1  C   UNL     1       3.029   3.868  18.445  0.00  0.00    +0.000 A 
ATOM      2  C   UNL     1       4.311   3.360  18.728  0.00  0.00    +0.000 A 
ATOM      3  C   UNL     1       5.453   4.012  18.265  0.00  0.00    +0.000 A 
ATOM      4  C   UNL     1       5.330   5.171  17.494  0.00  0.00    +0.000 A 
ATOM      5  C   UNL     1       4.064   5.686  17.192  0.00  0.00    +0.000 A 
ATOM      6  C   UNL     1       2.919   5.030  17.662  0.00  0.00    +0.000 A 
ENDROOT
BRANCH   1   7
ATOM      7  C   UNL     1       1.812   3.282  19.149  0.00  0.00    +0.000 C 
ATOM      8  F   UNL     1       1.435   2.077  18.634  0.00  0.00    +0.000 F 
ATOM      9  F   UNL     1       0.712   4.079  19.173  0.00  0.00    +0.000 F 
BRANCH   7  11
ATOM     10  O   UNL     1       2.582   2.493  22.342  0.00  0.00    +0.000 OA
ATOM     11  P   UNL     1       2.229   2.855  20.878  0.00  0.00    +0.000 P 
BRANCH  11  12
ATOM     12  O   UNL     1       0.623   2.672  21.234  0.00  0.00    +0.000 OA
ATOM     13  H   UNL     1       0.561   2.153  22.060  0.00  0.00    +0.000 HD
ENDBRANCH  11  12
BRANCH  11  14
ATOM     14  O   UNL     1       2.319   4.461  21.274  0.00  0.00    +0.000 OA
ATOM     15  H   UNL     1       2.822   4.518  22.112  0.00  0.00    +0.000 HD
ENDBRANCH  11  14
ENDBRANCH   7  11
ENDBRANCH   1   7
BRANCH   4  16
ATOM     16  S   UNL     1       6.800   6.044  16.982  0.00  0.00    +0.000 S 
ATOM     17  O   UNL     1       6.382   7.104  16.090  0.00  0.00    +0.000 OA
ATOM     18  O   UNL     1       7.578   6.329  18.169  0.00  0.00    +0.000 OA
BRANCH  16  19
ATOM     19  N   UNL     1       7.628   4.926  16.027  0.00  0.00    +0.000 N 
ATOM     20  H   UNL     1       8.634   4.944  16.181  0.00  0.00    +0.000 HD
BRANCH  19  21
ATOM     21  C   UNL     1       7.159   4.665  14.713  0.00  0.00    +0.000 A 
ATOM     22  C   UNL     1       6.038   3.855  14.528  0.00  0.00    +0.000 A 
ATOM     23  C   UNL     1       5.615   3.540  13.236  0.00  0.00    +0.000 A 
ATOM     24  C   UNL     1       6.300   4.052  12.135  0.00  0.00    +0.000 A 
ATOM     25  C   UNL     1       7.417   4.867  12.322  0.00  0.00    +0.000 A 
ATOM     26  C   UNL     1       7.858   5.162  13.614  0.00  0.00    +0.000 A 
ENDBRANCH  19  21
ENDBRANCH  16  19
ENDBRANCH   4  16
TORSDOF 7
ENDMDL
MODEL 7
REMARK VINA RESULT:      -7.8      1.070      1.234
REMARK  Name = 
REMARK  7 active torsions:
REMARK  status: ('A' for Active; 'I' for Inactive)
REMARK    1  A    between atoms: P_2  and  O_3
REMARK    2  A    between atoms: P_2  and  O_4
REMARK    3  A    between atoms: P_2  and  C_5
REMARK    4  A    between atoms: C_5  and  C_8
REMARK    5  A    between atoms: C_11  and  S_12
REMARK    6  A    between atoms: S_12  and  N_15
REMARK    7  A    between atoms: N_15  and  C_16
REMARK                            x       y       z     vdW  Elec       q    Type
REMARK                         _______ _______ _______ _____ _____    ______ ____
ROOT
ATOM      1  C   UNL     1       3.628   4.833  19.468  0.00  0.00    +0.000 A 
ATOM      2  C   UNL     1       3.445   5.704  18.378  0.00  0.00    +0.000 A 
ATOM      3  C   UNL     1       4.487   5.964  17.490  0.00  0.00    +0.000 A 
ATOM      4  C   UNL     1       5.737   5.373  17.691  0.00  0.00    +0.000 A 
ATOM      5  C   UNL     1       5.944   4.512  18.775  0.00  0.00    +0.000 A 
ATOM      6  C   UNL     1       4.893   4.250  19.663  0.00  0.00    +0.000 A 
ENDROOT
BRANCH   1   7
ATOM      7  C   UNL     1       2.425   4.379  20.285  0.00  0.00    +0.000 C 
ATOM      8  F   UNL     1       1.604   5.412  20.629  0.00  0.00    +0.000 F 
ATOM      9  F   UNL     1       2.715   3.691  21.419  0.00  0.00    +0.000 F 
BRANCH   7  11
ATOM     10  O   UNL     1       0.399   2.444  18.396  0.00  0.00    +0.000 OA
ATOM     11  P   UNL     1       1.328   3.331  19.263  0.00  0.00    +0.000 P 
BRANCH  11  12
ATOM     12  O   UNL     1       0.358   3.046  20.573  0.00  0.00    +0.000 OA
ATOM     13  H   UNL     1      -0.312   3.759  20.603  0.00  0.00    +0.000 HD
ENDBRANCH  11  12
BRANCH  11  14
ATOM     14  O   UNL     1       2.326   2.029  19.491  0.00  0.00    +0.000 OA
ATOM     15  H   UNL     1       1.758   1.281  19.768  0.00  0.00    +0.000 HD
ENDBRANCH  11  14
ENDBRANCH   7  11
ENDBRANCH   1   7
BRANCH   4  16
ATOM     16  S   UNL     1       7.038   5.643  16.499  0.00  0.00    +0.000 S 
ATOM     17  O   UNL     1       7.687   6.889  16.847  0.00  0.00    +0.000 OA
ATOM     18  O   UNL     1       7.792   4.414  16.383  0.00  0.00    +0.000 OA
BRANCH  16  19
ATOM     19  N   UNL     1       6.214   5.932  15.054  0.00  0.00    +0.000 N 
ATOM     20  H   UNL     1       5.304   6.364  15.199  0.00  0.00    +0.000 HD
BRANCH  19  21
ATOM     21  C   UNL     1       6.349   5.002  13.990  0.00  0.00    +0.000 A 
ATOM     22  C   UNL     1       7.430   5.109  13.114  0.00  0.00    +0.000 A 
ATOM     23  C   UNL     1       7.529   4.241  12.026  0.00  0.00    +0.000 A 
ATOM     24  C   UNL     1       6.561   3.258  11.829  0.00  0.00    +0.000 A 
ATOM     25  C   UNL     1       5.484   3.149  12.710  0.00  0.00    +0.000 A 
ATOM     26  C   UNL     1       5.369   4.034  13.783  0.00  0.00    +0.000 A 
ENDBRANCH  19  21
ENDBRANCH  16  19
ENDBRANCH   4  16
TORSDOF 7
ENDMDL
MODEL 8
REMARK VINA RESULT:      -7.7      1.378      1.764
REMARK  Name = 
REMARK  7 active torsions:
REMARK  status: ('A' for Active; 'I' for Inactive)
REMARK    1  A    between atoms: P_2  and  O_3
REMARK    2  A    between atoms: P_2  and  O_4
REMARK    3  A    between atoms: P_2  and  C_5
REMARK    4  A    between atoms: C_5  and  C_8
REMARK    5  A    between atoms: C_11  and  S_12
REMARK    6  A    between atoms: S_12  and  N_15
REMARK    7  A    between atoms: N_15  and  C_16
REMARK                            x       y       z     vdW  Elec       q    Type
REMARK                         _______ _______ _______ _____ _____    ______ ____
ROOT
ATOM      1  C   UNL     1       2.812   4.616  18.872  0.00  0.00    +0.000 A 
ATOM      2  C   UNL     1       2.533   5.840  18.235  0.00  0.00    +0.000 A 
ATOM      3  C   UNL     1       3.497   6.471  17.450  0.00  0.00    +0.000 A 
ATOM      4  C   UNL     1       4.763   5.898  17.308  0.00  0.00    +0.000 A 
ATOM      5  C   UNL     1       5.065   4.687  17.941  0.00  0.00    +0.000 A 
ATOM      6  C   UNL     1       4.092   4.054  18.726  0.00  0.00    +0.000 A 
ENDROOT
BRANCH   1   7
ATOM      7  C   UNL     1       1.683   3.830  19.526  0.00  0.00    +0.000 C 
ATOM      8  F   UNL     1       1.214   2.825  18.733  0.00  0.00    +0.000 F 
ATOM      9  F   UNL     1       0.615   4.567  19.928  0.00  0.00    +0.000 F 
BRANCH   7  11
ATOM     10  O   UNL     1       2.843   2.147  22.216  0.00  0.00    +0.000 OA
ATOM     11  P   UNL     1       2.310   2.919  20.983  0.00  0.00    +0.000 P 
BRANCH  11  12
ATOM     12  O   UNL     1       0.763   2.697  21.527  0.00  0.00    +0.000 OA
ATOM     13  H   UNL     1       0.233   2.362  20.776  0.00  0.00    +0.000 HD
ENDBRANCH  11  12
BRANCH  11  14
ATOM     14  O   UNL     1       2.580   4.344  21.783  0.00  0.00    +0.000 OA
ATOM     15  H   UNL     1       3.545   4.504  21.761  0.00  0.00    +0.000 HD
ENDBRANCH  11  14
ENDBRANCH   7  11
ENDBRANCH   1   7
BRANCH   4  16
ATOM     16  S   UNL     1       5.959   6.669  16.230  0.00  0.00    +0.000 S 
ATOM     17  O   UNL     1       5.265   7.047  15.019  0.00  0.00    +0.000 OA
ATOM     18  O   UNL     1       6.688   7.646  17.010  0.00  0.00    +0.000 OA
BRANCH  16  19
ATOM     19  N   UNL     1       6.997   5.408  15.803  0.00  0.00    +0.000 N 
ATOM     20  H   UNL     1       7.931   5.517  16.192  0.00  0.00    +0.000 HD
BRANCH  19  21
ATOM     21  C   UNL     1       6.875   4.825  14.514  0.00  0.00    +0.000 A 
ATOM     22  C   UNL     1       7.717   5.245  13.485  0.00  0.00    +0.000 A 
ATOM     23  C   UNL     1       7.555   4.725  12.200  0.00  0.00    +0.000 A 
ATOM     24  C   UNL     1       6.567   3.773  11.954  0.00  0.00    +0.000 A 
ATOM     25  C   UNL     1       5.730   3.350  12.987  0.00  0.00    +0.000 A 
ATOM     26  C   UNL     1       5.873   3.889  14.267  0.00  0.00    +0.000 A 
ENDBRANCH  19  21
ENDBRANCH  16  19
ENDBRANCH   4  16
TORSDOF 7
ENDMDL
MODEL 9
REMARK VINA RESULT:      -7.7      1.369      1.993
REMARK  Name = 
REMARK  7 active torsions:
REMARK  status: ('A' for Active; 'I' for Inactive)
REMARK    1  A    between atoms: P_2  and  O_3
REMARK    2  A    between atoms: P_2  and  O_4
REMARK    3  A    between atoms: P_2  and  C_5
REMARK    4  A    between atoms: C_5  and  C_8
REMARK    5  A    between atoms: C_11  and  S_12
REMARK    6  A    between atoms: S_12  and  N_15
REMARK    7  A    between atoms: N_15  and  C_16
REMARK                            x       y       z     vdW  Elec       q    Type
REMARK                         _______ _______ _______ _____ _____    ______ ____
ROOT
ATOM      1  C   UNL     1       3.261   3.595  18.616  0.00  0.00    +0.000 A 
ATOM      2  C   UNL     1       2.813   4.672  17.827  0.00  0.00    +0.000 A 
ATOM      3  C   UNL     1       3.721   5.556  17.246  0.00  0.00    +0.000 A 
ATOM      4  C   UNL     1       5.091   5.391  17.464  0.00  0.00    +0.000 A 
ATOM      5  C   UNL     1       5.558   4.334  18.255  0.00  0.00    +0.000 A 
ATOM      6  C   UNL     1       4.642   3.445  18.833  0.00  0.00    +0.000 A 
ENDROOT
BRANCH   1   7
ATOM      7  C   UNL     1       2.280   2.512  19.044  0.00  0.00    +0.000 C 
ATOM      8  F   UNL     1       2.802   1.257  18.933  0.00  0.00    +0.000 F 
ATOM      9  F   UNL     1       1.086   2.517  18.397  0.00  0.00    +0.000 F 
BRANCH   7  11
ATOM     10  O   UNL     1       1.657   2.745  22.356  0.00  0.00    +0.000 OA
ATOM     11  P   UNL     1       1.942   2.639  20.837  0.00  0.00    +0.000 P 
BRANCH  11  12
ATOM     12  O   UNL     1       0.372   3.056  20.525  0.00  0.00    +0.000 OA
ATOM     13  H   UNL     1       0.339   4.029  20.430  0.00  0.00    +0.000 HD
ENDBRANCH  11  12
BRANCH  11  14
ATOM     14  O   UNL     1       2.539   4.183  20.861  0.00  0.00    +0.000 OA
ATOM     15  H   UNL     1       2.917   4.355  19.974  0.00  0.00    +0.000 HD
ENDBRANCH  11  14
ENDBRANCH   7  11
ENDBRANCH   1   7
BRANCH   4  16
ATOM     16  S   UNL     1       6.247   6.476  16.645  0.00  0.00    +0.000 S 
ATOM     17  O   UNL     1       5.530   7.140  15.578  0.00  0.00    +0.000 OA
ATOM     18  O   UNL     1       6.938   7.234  17.666  0.00  0.00    +0.000 OA
BRANCH  16  19
ATOM     19  N   UNL     1       7.335   5.425  15.897  0.00  0.00    +0.000 N 
ATOM     20  H   UNL     1       8.306   5.658  16.091  0.00  0.00    +0.000 HD
BRANCH  19  21
ATOM     21  C   UNL     1       7.017   4.907  14.614  0.00  0.00    +0.000 A 
ATOM     22  C   UNL     1       5.994   3.968  14.483  0.00  0.00    +0.000 A 
ATOM     23  C   UNL     1       5.725   3.405  13.234  0.00  0.00    +0.000 A 
ATOM     24  C   UNL     1       6.464   3.798  12.119  0.00  0.00    +0.000 A 
ATOM     25  C   UNL     1       7.483   4.743  12.252  0.00  0.00    +0.000 A 
ATOM     26  C   UNL     1       7.771   5.287  13.505  0.00  0.00    +0.000 A 
ENDBRANCH  19  21
ENDBRANCH  16  19
ENDBRANCH   4  16
TORSDOF 7
ENDMDL
