MODEL 1
REMARK VINA RESULT:      -6.8      0.000      0.000
REMARK  Name = 
REMARK  6 active torsions:
REMARK  status: ('A' for Active; 'I' for Inactive)
REMARK    1  A    between atoms: C_1  and  O_2
REMARK    2  A    between atoms: O_2  and  C_3
REMARK    3  A    between atoms: C_8  and  O_9
REMARK    4  A    between atoms: O_9  and  C_10
REMARK    5  A    between atoms: C_11  and  C_12
REMARK    6  A    between atoms: C_15  and  N_16
REMARK                            x       y       z     vdW  Elec       q    Type
REMARK                         _______ _______ _______ _____ _____    ______ ____
ROOT
ATOM      1  C   UNL     1       2.843   6.143  19.288  0.00  0.00    +0.000 A 
ATOM      2  C   UNL     1       3.981   5.359  19.523  0.00  0.00    +0.000 A 
ATOM      3  C   UNL     1       5.136   5.527  18.755  0.00  0.00    +0.000 A 
ATOM      4  C   UNL     1       5.138   6.434  17.685  0.00  0.00    +0.000 A 
ATOM      5  C   UNL     1       4.002   7.236  17.469  0.00  0.00    +0.000 A 
ATOM      6  C   UNL     1       2.866   7.125  18.282  0.00  0.00    +0.000 A 
ATOM      7  C   UNL     1       6.328   6.457  16.736  0.00  0.00    +0.000 C 
ATOM      8  N   UNL     1       7.622   6.374  17.441  0.00  0.00    +0.000 NA
ATOM      9  C   UNL     1       7.623   5.601  18.691  0.00  0.00    +0.000 C 
ATOM     10  C   UNL     1       6.391   4.746  19.018  0.00  0.00    +0.000 C 
ATOM     11  H   UNL     1       7.924   7.322  17.655  0.00  0.00    +0.000 HD
ENDROOT
BRANCH   7  12
ATOM     12  C   UNL     1       6.265   5.456  15.577  0.00  0.00    +0.000 A 
ATOM     13  C   UNL     1       5.189   4.570  15.388  0.00  0.00    +0.000 A 
ATOM     14  C   UNL     1       5.151   3.699  14.292  0.00  0.00    +0.000 A 
ATOM     15  C   UNL     1       6.193   3.656  13.372  0.00  0.00    +0.000 A 
ATOM     16  C   UNL     1       7.227   4.582  13.500  0.00  0.00    +0.000 A 
ATOM     17  C   UNL     1       7.274   5.457  14.597  0.00  0.00    +0.000 A 
BRANCH  15  18
ATOM     18  N   UNL     1       6.082   2.868  12.220  0.00  0.00    +0.000 N 
ATOM     19  H   UNL     1       5.132   2.804  11.866  0.00  0.00    +0.000 HD
ATOM     20  H   UNL     1       6.513   1.953  12.314  0.00  0.00    +0.000 HD
ENDBRANCH  15  18
ENDBRANCH   7  12
BRANCH   1  22
ATOM     21  C   UNL     1       1.537   4.519  20.448  0.00  0.00    +0.000 C 
ATOM     22  O   UNL     1       1.819   5.885  20.169  0.00  0.00    +0.000 OA
ENDBRANCH   1  22
BRANCH   6  23
ATOM     23  O   UNL     1       1.773   7.938  18.163  0.00  0.00    +0.000 OA
ATOM     24  C   UNL     1       1.975   9.313  17.875  0.00  0.00    +0.000 C 
ENDBRANCH   6  23
TORSDOF 4
ENDMDL
MODEL 2
REMARK VINA RESULT:      -6.8      0.194      1.063
REMARK  Name = 
REMARK  6 active torsions:
REMARK  status: ('A' for Active; 'I' for Inactive)
REMARK    1  A    between atoms: C_1  and  O_2
REMARK    2  A    between atoms: O_2  and  C_3
REMARK    3  A    between atoms: C_8  and  O_9
REMARK    4  A    between atoms: O_9  and  C_10
REMARK    5  A    between atoms: C_11  and  C_12
REMARK    6  A    between atoms: C_15  and  N_16
REMARK                            x       y       z     vdW  Elec       q    Type
REMARK                         _______ _______ _______ _____ _____    ______ ____
ROOT
ATOM      1  C   UNL     1       2.883   5.997  19.252  0.00  0.00    +0.000 A 
ATOM      2  C   UNL     1       4.033   5.219  19.447  0.00  0.00    +0.000 A 
ATOM      3  C   UNL     1       5.182   5.438  18.684  0.00  0.00    +0.000 A 
ATOM      4  C   UNL     1       5.168   6.394  17.657  0.00  0.00    +0.000 A 
ATOM      5  C   UNL     1       4.021   7.189  17.482  0.00  0.00    +0.000 A 
ATOM      6  C   UNL     1       2.889   7.025  18.293  0.00  0.00    +0.000 A 
ATOM      7  C   UNL     1       6.354   6.478  16.707  0.00  0.00    +0.000 C 
ATOM      8  N   UNL     1       7.651   6.380  17.403  0.00  0.00    +0.000 NA
ATOM      9  C   UNL     1       7.668   5.550  18.616  0.00  0.00    +0.000 C 
ATOM     10  C   UNL     1       6.449   4.664  18.907  0.00  0.00    +0.000 C 
ATOM     11  H   UNL     1       7.942   7.321  17.661  0.00  0.00    +0.000 HD
ENDROOT
BRANCH   7  12
ATOM     12  C   UNL     1       6.301   5.531  15.503  0.00  0.00    +0.000 A 
ATOM     13  C   UNL     1       7.324   5.456  14.541  0.00  0.00    +0.000 A 
ATOM     14  C   UNL     1       7.255   4.548  13.478  0.00  0.00    +0.000 A 
ATOM     15  C   UNL     1       6.155   3.712  13.318  0.00  0.00    +0.000 A 
ATOM     16  C   UNL     1       5.171   3.717  14.304  0.00  0.00    +0.000 A 
ATOM     17  C   UNL     1       5.231   4.628  15.372  0.00  0.00    +0.000 A 
BRANCH  15  18
ATOM     18  N   UNL     1       6.158   2.728  12.322  0.00  0.00    +0.000 N 
ATOM     19  H   UNL     1       6.871   2.875  11.612  0.00  0.00    +0.000 HD
ATOM     20  H   UNL     1       5.243   2.567  11.911  0.00  0.00    +0.000 HD
ENDBRANCH  15  18
ENDBRANCH   7  12
BRANCH   1  22
ATOM     21  C   UNL     1       2.055   4.544  20.953  0.00  0.00    +0.000 C 
ATOM     22  O   UNL     1       1.866   5.684  20.123  0.00  0.00    +0.000 OA
ENDBRANCH   1  22
BRANCH   6  23
ATOM     23  O   UNL     1       1.784   7.828  18.215  0.00  0.00    +0.000 OA
ATOM     24  C   UNL     1       1.957   9.191  17.861  0.00  0.00    +0.000 C 
ENDBRANCH   6  23
TORSDOF 4
ENDMDL
MODEL 3
REMARK VINA RESULT:      -6.7      1.852      2.629
REMARK  Name = 
REMARK  6 active torsions:
REMARK  status: ('A' for Active; 'I' for Inactive)
REMARK    1  A    between atoms: C_1  and  O_2
REMARK    2  A    between atoms: O_2  and  C_3
REMARK    3  A    between atoms: C_8  and  O_9
REMARK    4  A    between atoms: O_9  and  C_10
REMARK    5  A    between atoms: C_11  and  C_12
REMARK    6  A    between atoms: C_15  and  N_16
REMARK                            x       y       z     vdW  Elec       q    Type
REMARK                         _______ _______ _______ _____ _____    ______ ____
ROOT
ATOM      1  C   UNL     1       3.903   3.690  19.445  0.00  0.00    +0.000 A 
ATOM      2  C   UNL     1       5.274   3.960  19.333  0.00  0.00    +0.000 A 
ATOM      3  C   UNL     1       5.755   4.830  18.353  0.00  0.00    +0.000 A 
ATOM      4  C   UNL     1       4.869   5.386  17.416  0.00  0.00    +0.000 A 
ATOM      5  C   UNL     1       3.492   5.133  17.547  0.00  0.00    +0.000 A 
ATOM      6  C   UNL     1       2.994   4.318  18.574  0.00  0.00    +0.000 A 
ATOM      7  C   UNL     1       5.433   6.166  16.237  0.00  0.00    +0.000 C 
ATOM      8  N   UNL     1       6.528   7.076  16.624  0.00  0.00    +0.000 NA
ATOM      9  C   UNL     1       7.363   6.632  17.749  0.00  0.00    +0.000 C 
ATOM     10  C   UNL     1       7.209   5.187  18.244  0.00  0.00    +0.000 C 
ATOM     11  H   UNL     1       6.118   7.974  16.871  0.00  0.00    +0.000 HD
ENDROOT
BRANCH   7  12
ATOM     12  C   UNL     1       5.821   5.323  15.016  0.00  0.00    +0.000 A 
ATOM     13  C   UNL     1       7.107   5.346  14.448  0.00  0.00    +0.000 A 
ATOM     14  C   UNL     1       7.432   4.529  13.358  0.00  0.00    +0.000 A 
ATOM     15  C   UNL     1       6.483   3.693  12.778  0.00  0.00    +0.000 A 
ATOM     16  C   UNL     1       5.229   3.600  13.377  0.00  0.00    +0.000 A 
ATOM     17  C   UNL     1       4.894   4.418  14.469  0.00  0.00    +0.000 A 
BRANCH  15  18
ATOM     18  N   UNL     1       6.857   2.797  11.769  0.00  0.00    +0.000 N 
ATOM     19  H   UNL     1       7.775   2.991  11.378  0.00  0.00    +0.000 HD
ATOM     20  H   UNL     1       6.153   2.688  11.045  0.00  0.00    +0.000 HD
ENDBRANCH  15  18
ENDBRANCH   7  12
BRANCH   1  22
ATOM     21  C   UNL     1       4.505   1.790  20.753  0.00  0.00    +0.000 C 
ATOM     22  O   UNL     1       3.600   2.857  20.495  0.00  0.00    +0.000 OA
ENDBRANCH   1  22
BRANCH   6  23
ATOM     23  O   UNL     1       1.660   4.111  18.791  0.00  0.00    +0.000 OA
ATOM     24  C   UNL     1       1.112   2.836  18.493  0.00  0.00    +0.000 C 
ENDBRANCH   6  23
TORSDOF 4
ENDMDL
MODEL 4
REMARK VINA RESULT:      -6.4      1.870      2.420
REMARK  Name = 
REMARK  6 active torsions:
REMARK  status: ('A' for Active; 'I' for Inactive)
REMARK    1  A    between atoms: C_1  and  O_2
REMARK    2  A    between atoms: O_2  and  C_3
REMARK    3  A    between atoms: C_8  and  O_9
REMARK    4  A    between atoms: O_9  and  C_10
REMARK    5  A    between atoms: C_11  and  C_12
REMARK    6  A    between atoms: C_15  and  N_16
REMARK                            x       y       z     vdW  Elec       q    Type
REMARK                         _______ _______ _______ _____ _____    ______ ____
ROOT
ATOM      1  C   UNL     1       3.864   3.701  19.394  0.00  0.00    +0.000 A 
ATOM      2  C   UNL     1       5.240   3.959  19.309  0.00  0.00    +0.000 A 
ATOM      3  C   UNL     1       5.747   4.817  18.331  0.00  0.00    +0.000 A 
ATOM      4  C   UNL     1       4.886   5.371  17.371  0.00  0.00    +0.000 A 
ATOM      5  C   UNL     1       3.505   5.129  17.475  0.00  0.00    +0.000 A 
ATOM      6  C   UNL     1       2.979   4.328  18.498  0.00  0.00    +0.000 A 
ATOM      7  C   UNL     1       5.480   6.136  16.197  0.00  0.00    +0.000 C 
ATOM      8  N   UNL     1       6.574   7.041  16.600  0.00  0.00    +0.000 NA
ATOM      9  C   UNL     1       7.382   6.601  17.746  0.00  0.00    +0.000 C 
ATOM     10  C   UNL     1       7.207   5.162  18.250  0.00  0.00    +0.000 C 
ATOM     11  H   UNL     1       6.166   7.945  16.830  0.00  0.00    +0.000 HD
ENDROOT
BRANCH   7  12
ATOM     12  C   UNL     1       5.888   5.280  14.993  0.00  0.00    +0.000 A 
ATOM     13  C   UNL     1       5.031   4.334  14.401  0.00  0.00    +0.000 A 
ATOM     14  C   UNL     1       5.428   3.601  13.275  0.00  0.00    +0.000 A 
ATOM     15  C   UNL     1       6.696   3.759  12.726  0.00  0.00    +0.000 A 
ATOM     16  C   UNL     1       7.526   4.747  13.250  0.00  0.00    +0.000 A 
ATOM     17  C   UNL     1       7.137   5.484  14.381  0.00  0.00    +0.000 A 
BRANCH  15  18
ATOM     18  N   UNL     1       7.031   3.109  11.531  0.00  0.00    +0.000 N 
ATOM     19  H   UNL     1       7.904   3.436  11.126  0.00  0.00    +0.000 HD
ATOM     20  H   UNL     1       6.277   3.103  10.850  0.00  0.00    +0.000 HD
ENDBRANCH  15  18
ENDBRANCH   7  12
BRANCH   1  22
ATOM     21  C   UNL     1       4.446   1.835  20.760  0.00  0.00    +0.000 C 
ATOM     22  O   UNL     1       3.533   2.880  20.445  0.00  0.00    +0.000 OA
ENDBRANCH   1  22
BRANCH   6  23
ATOM     23  O   UNL     1       1.639   4.132  18.689  0.00  0.00    +0.000 OA
ATOM     24  C   UNL     1       1.102   2.838  18.468  0.00  0.00    +0.000 C 
ENDBRANCH   6  23
TORSDOF 4
ENDMDL
MODEL 5
REMARK VINA RESULT:      -6.3      3.587      6.468
REMARK  Name = 
REMARK  6 active torsions:
REMARK  status: ('A' for Active; 'I' for Inactive)
REMARK    1  A    between atoms: C_1  and  O_2
REMARK    2  A    between atoms: O_2  and  C_3
REMARK    3  A    between atoms: C_8  and  O_9
REMARK    4  A    between atoms: O_9  and  C_10
REMARK    5  A    between atoms: C_11  and  C_12
REMARK    6  A    between atoms: C_15  and  N_16
REMARK                            x       y       z     vdW  Elec       q    Type
REMARK                         _______ _______ _______ _____ _____    ______ ____
ROOT
ATOM      1  C   UNL     1       6.753   5.529  18.621  0.00  0.00    +0.000 A 
ATOM      2  C   UNL     1       5.749   4.784  19.255  0.00  0.00    +0.000 A 
ATOM      3  C   UNL     1       4.404   4.981  18.939  0.00  0.00    +0.000 A 
ATOM      4  C   UNL     1       4.039   5.988  18.031  0.00  0.00    +0.000 A 
ATOM      5  C   UNL     1       5.050   6.716  17.379  0.00  0.00    +0.000 A 
ATOM      6  C   UNL     1       6.406   6.473  17.637  0.00  0.00    +0.000 A 
ATOM      7  C   UNL     1       2.565   6.325  17.852  0.00  0.00    +0.000 C 
ATOM      8  N   UNL     1       1.710   5.125  17.776  0.00  0.00    +0.000 NA
ATOM      9  C   UNL     1       2.166   3.962  18.550  0.00  0.00    +0.000 C 
ATOM     10  C   UNL     1       3.309   4.160  19.556  0.00  0.00    +0.000 C 
ATOM     11  H   UNL     1       1.645   4.847  16.798  0.00  0.00    +0.000 HD
ENDROOT
BRANCH   7  12
ATOM     12  C   UNL     1       1.998   7.345  18.846  0.00  0.00    +0.000 A 
ATOM     13  C   UNL     1       1.842   7.073  20.217  0.00  0.00    +0.000 A 
ATOM     14  C   UNL     1       1.359   8.047  21.099  0.00  0.00    +0.000 A 
ATOM     15  C   UNL     1       0.983   9.306  20.643  0.00  0.00    +0.000 A 
ATOM     16  C   UNL     1       1.205   9.618  19.303  0.00  0.00    +0.000 A 
ATOM     17  C   UNL     1       1.687   8.646  18.411  0.00  0.00    +0.000 A 
BRANCH  15  18
ATOM     18  N   UNL     1       0.617  10.304  21.554  0.00  0.00    +0.000 N 
ATOM     19  H   UNL     1       0.534  11.225  21.131  0.00  0.00    +0.000 HD
ATOM     20  H   UNL     1       1.197  10.322  22.387  0.00  0.00    +0.000 HD
ENDBRANCH  15  18
ENDBRANCH   7  12
BRANCH   1  22
ATOM     21  C   UNL     1       8.379   5.435  20.362  0.00  0.00    +0.000 C 
ATOM     22  O   UNL     1       8.021   5.169  19.011  0.00  0.00    +0.000 OA
ENDBRANCH   1  22
BRANCH   6  23
ATOM     23  O   UNL     1       7.424   7.095  16.968  0.00  0.00    +0.000 OA
ATOM     24  C   UNL     1       7.940   8.309  17.490  0.00  0.00    +0.000 C 
ENDBRANCH   6  23
TORSDOF 4
ENDMDL
MODEL 6
REMARK VINA RESULT:      -6.2      2.545      4.605
REMARK  Name = 
REMARK  6 active torsions:
REMARK  status: ('A' for Active; 'I' for Inactive)
REMARK    1  A    between atoms: C_1  and  O_2
REMARK    2  A    between atoms: O_2  and  C_3
REMARK    3  A    between atoms: C_8  and  O_9
REMARK    4  A    between atoms: O_9  and  C_10
REMARK    5  A    between atoms: C_11  and  C_12
REMARK    6  A    between atoms: C_15  and  N_16
REMARK                            x       y       z     vdW  Elec       q    Type
REMARK                         _______ _______ _______ _____ _____    ______ ____
ROOT
ATOM      1  C   UNL     1       2.723   3.912  18.429  0.00  0.00    +0.000 A 
ATOM      2  C   UNL     1       3.203   4.258  17.158  0.00  0.00    +0.000 A 
ATOM      3  C   UNL     1       4.575   4.355  16.913  0.00  0.00    +0.000 A 
ATOM      4  C   UNL     1       5.487   4.178  17.965  0.00  0.00    +0.000 A 
ATOM      5  C   UNL     1       5.003   3.806  19.232  0.00  0.00    +0.000 A 
ATOM      6  C   UNL     1       3.631   3.636  19.468  0.00  0.00    +0.000 A 
ATOM      7  C   UNL     1       6.959   4.485  17.728  0.00  0.00    +0.000 C 
ATOM      8  N   UNL     1       7.447   3.975  16.432  0.00  0.00    +0.000 NA
ATOM      9  C   UNL     1       6.461   3.942  15.342  0.00  0.00    +0.000 C 
ATOM     10  C   UNL     1       5.123   4.665  15.550  0.00  0.00    +0.000 C 
ATOM     11  H   UNL     1       7.789   3.027  16.576  0.00  0.00    +0.000 HD
ENDROOT
BRANCH   7  12
ATOM     12  C   UNL     1       7.367   5.948  17.934  0.00  0.00    +0.000 A 
ATOM     13  C   UNL     1       8.193   6.371  18.991  0.00  0.00    +0.000 A 
ATOM     14  C   UNL     1       8.576   7.711  19.120  0.00  0.00    +0.000 A 
ATOM     15  C   UNL     1       8.124   8.676  18.226  0.00  0.00    +0.000 A 
ATOM     16  C   UNL     1       7.372   8.263  17.129  0.00  0.00    +0.000 A 
ATOM     17  C   UNL     1       6.981   6.920  16.994  0.00  0.00    +0.000 A 
BRANCH  15  18
ATOM     18  N   UNL     1       8.614   9.987  18.299  0.00  0.00    +0.000 N 
ATOM     19  H   UNL     1       8.391  10.452  19.174  0.00  0.00    +0.000 HD
ATOM     20  H   UNL     1       8.365  10.555  17.495  0.00  0.00    +0.000 HD
ENDBRANCH  15  18
ENDBRANCH   7  12
BRANCH   1  22
ATOM     21  C   UNL     1       0.809   2.504  18.629  0.00  0.00    +0.000 C 
ATOM     22  O   UNL     1       1.353   3.810  18.480  0.00  0.00    +0.000 OA
ENDBRANCH   1  22
BRANCH   6  23
ATOM     23  O   UNL     1       3.120   3.195  20.657  0.00  0.00    +0.000 OA
ATOM     24  C   UNL     1       2.467   4.127  21.504  0.00  0.00    +0.000 C 
ENDBRANCH   6  23
TORSDOF 4
ENDMDL
MODEL 7
REMARK VINA RESULT:      -6.2      2.505      4.641
REMARK  Name = 
REMARK  6 active torsions:
REMARK  status: ('A' for Active; 'I' for Inactive)
REMARK    1  A    between atoms: C_1  and  O_2
REMARK    2  A    between atoms: O_2  and  C_3
REMARK    3  A    between atoms: C_8  and  O_9
REMARK    4  A    between atoms: O_9  and  C_10
REMARK    5  A    between atoms: C_11  and  C_12
REMARK    6  A    between atoms: C_15  and  N_16
REMARK                            x       y       z     vdW  Elec       q    Type
REMARK                         _______ _______ _______ _____ _____    ______ ____
ROOT
ATOM      1  C   UNL     1       2.726   4.236  18.519  0.00  0.00    +0.000 A 
ATOM      2  C   UNL     1       3.254   4.420  17.233  0.00  0.00    +0.000 A 
ATOM      3  C   UNL     1       4.634   4.484  17.028  0.00  0.00    +0.000 A 
ATOM      4  C   UNL     1       5.506   4.441  18.126  0.00  0.00    +0.000 A 
ATOM      5  C   UNL     1       4.975   4.232  19.411  0.00  0.00    +0.000 A 
ATOM      6  C   UNL     1       3.595   4.093  19.617  0.00  0.00    +0.000 A 
ATOM      7  C   UNL     1       6.987   4.716  17.906  0.00  0.00    +0.000 C 
ATOM      8  N   UNL     1       7.520   4.046  16.704  0.00  0.00    +0.000 NA
ATOM      9  C   UNL     1       6.574   3.877  15.592  0.00  0.00    +0.000 C 
ATOM     10  C   UNL     1       5.233   4.620  15.658  0.00  0.00    +0.000 C 
ATOM     11  H   UNL     1       7.852   3.124  16.979  0.00  0.00    +0.000 HD
ENDROOT
BRANCH   7  12
ATOM     12  C   UNL     1       7.395   6.193  17.942  0.00  0.00    +0.000 A 
ATOM     13  C   UNL     1       6.839   7.162  17.087  0.00  0.00    +0.000 A 
ATOM     14  C   UNL     1       7.209   8.509  17.180  0.00  0.00    +0.000 A 
ATOM     15  C   UNL     1       8.165   8.929  18.098  0.00  0.00    +0.000 A 
ATOM     16  C   UNL     1       8.667   7.998  19.005  0.00  0.00    +0.000 A 
ATOM     17  C   UNL     1       8.303   6.644  18.917  0.00  0.00    +0.000 A 
BRANCH  15  18
ATOM     18  N   UNL     1       8.434  10.294  18.260  0.00  0.00    +0.000 N 
ATOM     19  H   UNL     1       7.603  10.847  18.454  0.00  0.00    +0.000 HD
ATOM     20  H   UNL     1       8.983  10.689  17.503  0.00  0.00    +0.000 HD
ENDBRANCH  15  18
ENDBRANCH   7  12
BRANCH   1  22
ATOM     21  C   UNL     1       0.798   2.832  18.518  0.00  0.00    +0.000 C 
ATOM     22  O   UNL     1       1.355   4.142  18.532  0.00  0.00    +0.000 OA
ENDBRANCH   1  22
BRANCH   6  23
ATOM     23  O   UNL     1       3.039   3.806  20.833  0.00  0.00    +0.000 OA
ATOM     24  C   UNL     1       3.033   2.458  21.277  0.00  0.00    +0.000 C 
ENDBRANCH   6  23
TORSDOF 4
ENDMDL
MODEL 8
REMARK VINA RESULT:      -6.1      3.256      6.384
REMARK  Name = 
REMARK  6 active torsions:
REMARK  status: ('A' for Active; 'I' for Inactive)
REMARK    1  A    between atoms: C_1  and  O_2
REMARK    2  A    between atoms: O_2  and  C_3
REMARK    3  A    between atoms: C_8  and  O_9
REMARK    4  A    between atoms: O_9  and  C_10
REMARK    5  A    between atoms: C_11  and  C_12
REMARK    6  A    between atoms: C_15  and  N_16
REMARK                            x       y       z     vdW  Elec       q    Type
REMARK                         _______ _______ _______ _____ _____    ______ ____
ROOT
ATOM      1  C   UNL     1       6.516   4.969  18.119  0.00  0.00    +0.000 A 
ATOM      2  C   UNL     1       5.642   4.540  19.128  0.00  0.00    +0.000 A 
ATOM      3  C   UNL     1       4.262   4.716  19.001  0.00  0.00    +0.000 A 
ATOM      4  C   UNL     1       3.743   5.397  17.890  0.00  0.00    +0.000 A 
ATOM      5  C   UNL     1       4.621   5.803  16.869  0.00  0.00    +0.000 A 
ATOM      6  C   UNL     1       5.999   5.565  16.954  0.00  0.00    +0.000 A 
ATOM      7  C   UNL     1       2.264   5.757  17.866  0.00  0.00    +0.000 C 
ATOM      8  N   UNL     1       1.401   4.658  18.340  0.00  0.00    +0.000 NA
ATOM      9  C   UNL     1       1.984   3.780  19.365  0.00  0.00    +0.000 C 
ATOM     10  C   UNL     1       3.295   4.215  20.035  0.00  0.00    +0.000 C 
ATOM     11  H   UNL     1       1.153   4.085  17.537  0.00  0.00    +0.000 HD
ENDROOT
BRANCH   7  12
ATOM     12  C   UNL     1       1.899   7.080  18.549  0.00  0.00    +0.000 A 
ATOM     13  C   UNL     1       1.730   7.203  19.940  0.00  0.00    +0.000 A 
ATOM     14  C   UNL     1       1.437   8.439  20.529  0.00  0.00    +0.000 A 
ATOM     15  C   UNL     1       1.268   9.582  19.753  0.00  0.00    +0.000 A 
ATOM     16  C   UNL     1       1.510   9.494  18.384  0.00  0.00    +0.000 A 
ATOM     17  C   UNL     1       1.802   8.257  17.786  0.00  0.00    +0.000 A 
BRANCH  15  18
ATOM     18  N   UNL     1       1.096  10.829  20.367  0.00  0.00    +0.000 N 
ATOM     19  H   UNL     1       0.245  11.305  20.079  0.00  0.00    +0.000 HD
ATOM     20  H   UNL     1       1.910  11.432  20.290  0.00  0.00    +0.000 HD
ENDBRANCH  15  18
ENDBRANCH   7  12
BRANCH   1  22
ATOM     21  C   UNL     1       8.433   5.324  19.492  0.00  0.00    +0.000 C 
ATOM     22  O   UNL     1       7.832   4.670  18.381  0.00  0.00    +0.000 OA
ENDBRANCH   1  22
BRANCH   6  23
ATOM     23  O   UNL     1       6.880   5.867  15.951  0.00  0.00    +0.000 OA
ATOM     24  C   UNL     1       7.028   4.951  14.878  0.00  0.00    +0.000 C 
ENDBRANCH   6  23
TORSDOF 4
ENDMDL
MODEL 9
REMARK VINA RESULT:      -6.1      3.597      6.571
REMARK  Name = 
REMARK  6 active torsions:
REMARK  status: ('A' for Active; 'I' for Inactive)
REMARK    1  A    between atoms: C_1  and  O_2
REMARK    2  A    between atoms: O_2  and  C_3
REMARK    3  A    between atoms: C_8  and  O_9
REMARK    4  A    between atoms: O_9  and  C_10
REMARK    5  A    between atoms: C_11  and  C_12
REMARK    6  A    between atoms: C_15  and  N_16
REMARK                            x       y       z     vdW  Elec       q    Type
REMARK                         _______ _______ _______ _____ _____    ______ ____
ROOT
ATOM      1  C   UNL     1       6.653   5.468  18.600  0.00  0.00    +0.000 A 
ATOM      2  C   UNL     1       5.613   4.764  19.222  0.00  0.00    +0.000 A 
ATOM      3  C   UNL     1       4.279   5.039  18.914  0.00  0.00    +0.000 A 
ATOM      4  C   UNL     1       3.966   6.081  18.028  0.00  0.00    +0.000 A 
ATOM      5  C   UNL     1       5.013   6.767  17.387  0.00  0.00    +0.000 A 
ATOM      6  C   UNL     1       6.355   6.449  17.636  0.00  0.00    +0.000 A 
ATOM      7  C   UNL     1       2.512   6.499  17.859  0.00  0.00    +0.000 C 
ATOM      8  N   UNL     1       1.595   5.347  17.761  0.00  0.00    +0.000 NA
ATOM      9  C   UNL     1       1.990   4.146  18.511  0.00  0.00    +0.000 C 
ATOM     10  C   UNL     1       3.143   4.264  19.517  0.00  0.00    +0.000 C 
ATOM     11  H   UNL     1       1.513   5.093  16.779  0.00  0.00    +0.000 HD
ENDROOT
BRANCH   7  12
ATOM     12  C   UNL     1       2.001   7.527  18.875  0.00  0.00    +0.000 A 
ATOM     13  C   UNL     1       1.595   8.824  18.514  0.00  0.00    +0.000 A 
ATOM     14  C   UNL     1       1.096   9.719  19.467  0.00  0.00    +0.000 A 
ATOM     15  C   UNL     1       1.017   9.367  20.810  0.00  0.00    +0.000 A 
ATOM     16  C   UNL     1       1.339   8.061  21.173  0.00  0.00    +0.000 A 
ATOM     17  C   UNL     1       1.844   7.158  20.223  0.00  0.00    +0.000 A 
BRANCH  15  18
ATOM     18  N   UNL     1       0.403  10.229  21.729  0.00  0.00    +0.000 N 
ATOM     19  H   UNL     1       0.406   9.871  22.680  0.00  0.00    +0.000 HD
ATOM     20  H   UNL     1      -0.523  10.531  21.441  0.00  0.00    +0.000 HD
ENDBRANCH  15  18
ENDBRANCH   7  12
BRANCH   1  22
ATOM     21  C   UNL     1       8.393   5.499  20.231  0.00  0.00    +0.000 C 
ATOM     22  O   UNL     1       7.901   5.034  18.980  0.00  0.00    +0.000 OA
ENDBRANCH   1  22
BRANCH   6  23
ATOM     23  O   UNL     1       7.403   7.030  16.976  0.00  0.00    +0.000 OA
ATOM     24  C   UNL     1       7.956   8.227  17.499  0.00  0.00    +0.000 C 
ENDBRANCH   6  23
TORSDOF 4
ENDMDL
