MODEL 1
REMARK VINA RESULT:      -8.0      0.000      0.000
REMARK  Name = 
REMARK  6 active torsions:
REMARK  status: ('A' for Active; 'I' for Inactive)
REMARK    1  A    between atoms: C_2  and  C_3
REMARK    2  A    between atoms: C_10  and  N_11
REMARK    3  A    between atoms: N_11  and  C_12
REMARK    4  A    between atoms: C_14  and  N_15
REMARK    5  A    between atoms: N_15  and  C_16
REMARK    6  A    between atoms: C_24  and  C_25
REMARK                            x       y       z     vdW  Elec       q    Type
REMARK                         _______ _______ _______ _____ _____    ______ ____
ROOT
ATOM      1  C   UNL     1       5.279   4.502  17.210  0.00  0.00    +0.000 A 
ATOM      2  C   UNL     1       5.168   4.395  15.821  0.00  0.00    +0.000 A 
ATOM      3  C   UNL     1       6.222   4.718  14.974  0.00  0.00    +0.000 A 
ATOM      4  N   UNL     1       7.399   5.139  15.467  0.00  0.00    +0.000 NA
ATOM      5  C   UNL     1       7.512   5.272  16.810  0.00  0.00    +0.000 A 
ATOM      6  C   UNL     1       6.491   5.013  17.713  0.00  0.00    +0.000 A 
ENDROOT
BRANCH   6   7
ATOM      7  C   UNL     1       6.727   5.211  19.165  0.00  0.00    +0.000 C 
ATOM      8  N   UNL     1       7.930   5.737  19.562  0.00  0.00    +0.000 N 
ATOM      9  O   UNL     1       5.868   4.927  19.996  0.00  0.00    +0.000 OA
ATOM     10  H   UNL     1       8.583   6.187  18.933  0.00  0.00    +0.000 HD
ATOM     11  H   UNL     1       8.033   5.936  20.548  0.00  0.00    +0.000 HD
ENDBRANCH   6   7
BRANCH   1  12
ATOM     12  N   UNL     1       4.167   4.254  18.042  0.00  0.00    +0.000 N 
ATOM     13  H   UNL     1       4.110   3.238  18.214  0.00  0.00    +0.000 HD
BRANCH  12  21
ATOM     14  C   UNL     1       0.205  10.053  21.192  0.00  0.00    +0.000 A 
ATOM     15  C   UNL     1       0.592   9.028  22.041  0.00  0.00    +0.000 A 
ATOM     16  C   UNL     1       1.350   7.974  21.532  0.00  0.00    +0.000 A 
ATOM     17  C   UNL     1       1.718   7.956  20.185  0.00  0.00    +0.000 A 
ATOM     18  N   UNL     1       2.472   6.927  19.677  0.00  0.00    +0.000 N 
ATOM     19  C   UNL     1       3.371   7.181  18.560  0.00  0.00    +0.000 C 
ATOM     20  C   UNL     1       2.959   6.347  17.360  0.00  0.00    +0.000 C 
ATOM     21  C   UNL     1       2.858   4.853  17.708  0.00  0.00    +0.000 C 
ATOM     22  C   UNL     1       1.892   4.681  18.886  0.00  0.00    +0.000 C 
ATOM     23  C   UNL     1       2.286   5.540  20.087  0.00  0.00    +0.000 C 
ATOM     24  N   UNL     1       1.356   8.968  19.366  0.00  0.00    +0.000 NA
ATOM     25  C   UNL     1       0.611   9.981  19.874  0.00  0.00    +0.000 A 
BRANCH  14  27
ATOM     26  N   UNL     1      -1.225  12.038  22.034  0.00  0.00    +0.000 NA
ATOM     27  C   UNL     1      -0.578  11.148  21.657  0.00  0.00    +0.000 C 
ENDBRANCH  14  27
ENDBRANCH  12  21
ENDBRANCH   1  12
BRANCH   3  28
ATOM     28  N   UNL     1       5.957   4.660  13.590  0.00  0.00    +0.000 N 
ATOM     29  H   UNL     1       5.185   5.261  13.332  0.00  0.00    +0.000 HD
BRANCH  28  30
ATOM     30  C   UNL     1       6.167   3.603  12.689  0.00  0.00    +0.000 A 
ATOM     31  C   UNL     1       7.422   3.329  12.135  0.00  0.00    +0.000 A 
ATOM     32  C   UNL     1       7.593   2.304  11.206  0.00  0.00    +0.000 A 
ATOM     33  C   UNL     1       6.497   1.554  10.792  0.00  0.00    +0.000 A 
ATOM     34  C   UNL     1       5.232   1.838  11.299  0.00  0.00    +0.000 A 
ATOM     35  C   UNL     1       5.067   2.863  12.234  0.00  0.00    +0.000 A 
ENDBRANCH  28  30
ENDBRANCH   3  28
TORSDOF 6
ENDMDL
MODEL 2
REMARK VINA RESULT:      -7.7      5.034      8.341
REMARK  Name = 
REMARK  6 active torsions:
REMARK  status: ('A' for Active; 'I' for Inactive)
REMARK    1  A    between atoms: C_2  and  C_3
REMARK    2  A    between atoms: C_10  and  N_11
REMARK    3  A    between atoms: N_11  and  C_12
REMARK    4  A    between atoms: C_14  and  N_15
REMARK    5  A    between atoms: N_15  and  C_16
REMARK    6  A    between atoms: C_24  and  C_25
REMARK                            x       y       z     vdW  Elec       q    Type
REMARK                         _______ _______ _______ _____ _____    ______ ____
ROOT
ATOM      1  C   UNL     1       0.560   9.562  20.059  0.00  0.00    +0.000 A 
ATOM      2  C   UNL     1       1.202   8.368  20.399  0.00  0.00    +0.000 A 
ATOM      3  C   UNL     1       2.095   7.746  19.534  0.00  0.00    +0.000 A 
ATOM      4  N   UNL     1       2.383   8.282  18.336  0.00  0.00    +0.000 NA
ATOM      5  C   UNL     1       1.748   9.424  17.985  0.00  0.00    +0.000 A 
ATOM      6  C   UNL     1       0.812  10.076  18.773  0.00  0.00    +0.000 A 
ENDROOT
BRANCH   6   7
ATOM      7  C   UNL     1       0.168  11.317  18.274  0.00  0.00    +0.000 C 
ATOM      8  N   UNL     1       0.962  12.407  18.025  0.00  0.00    +0.000 N 
ATOM      9  O   UNL     1      -1.044  11.371  18.073  0.00  0.00    +0.000 OA
ATOM     10  H   UNL     1       1.971  12.366  17.961  0.00  0.00    +0.000 HD
ATOM     11  H   UNL     1       0.510  13.211  17.610  0.00  0.00    +0.000 HD
ENDBRANCH   6   7
BRANCH   1  12
ATOM     12  N   UNL     1      -0.409  10.126  20.916  0.00  0.00    +0.000 N 
ATOM     13  H   UNL     1      -1.150  10.548  20.336  0.00  0.00    +0.000 HD
BRANCH  12  21
ATOM     14  C   UNL     1      -3.748  16.194  24.275  0.00  0.00    +0.000 A 
ATOM     15  C   UNL     1      -3.584  16.253  22.899  0.00  0.00    +0.000 A 
ATOM     16  C   UNL     1      -3.025  15.163  22.234  0.00  0.00    +0.000 A 
ATOM     17  C   UNL     1      -2.641  14.024  22.945  0.00  0.00    +0.000 A 
ATOM     18  N   UNL     1      -2.098  12.942  22.297  0.00  0.00    +0.000 N 
ATOM     19  C   UNL     1      -2.298  11.607  22.842  0.00  0.00    +0.000 C 
ATOM     20  C   UNL     1      -0.961  10.988  23.209  0.00  0.00    +0.000 C 
ATOM     21  C   UNL     1       0.020  11.002  22.027  0.00  0.00    +0.000 C 
ATOM     22  C   UNL     1       0.173  12.442  21.523  0.00  0.00    +0.000 C 
ATOM     23  C   UNL     1      -1.173  13.079  21.179  0.00  0.00    +0.000 C 
ATOM     24  N   UNL     1      -2.822  13.962  24.283  0.00  0.00    +0.000 NA
ATOM     25  C   UNL     1      -3.357  15.035  24.917  0.00  0.00    +0.000 A 
BRANCH  14  27
ATOM     26  N   UNL     1      -4.751  18.171  25.609  0.00  0.00    +0.000 NA
ATOM     27  C   UNL     1      -4.304  17.283  25.006  0.00  0.00    +0.000 C 
ENDBRANCH  14  27
ENDBRANCH  12  21
ENDBRANCH   1  12
BRANCH   3  28
ATOM     28  N   UNL     1       2.606   6.498  19.949  0.00  0.00    +0.000 N 
ATOM     29  H   UNL     1       3.611   6.527  20.067  0.00  0.00    +0.000 HD
BRANCH  28  30
ATOM     30  C   UNL     1       2.109   5.208  19.703  0.00  0.00    +0.000 A 
ATOM     31  C   UNL     1       2.019   4.673  18.414  0.00  0.00    +0.000 A 
ATOM     32  C   UNL     1       1.477   3.408  18.193  0.00  0.00    +0.000 A 
ATOM     33  C   UNL     1       0.985   2.669  19.263  0.00  0.00    +0.000 A 
ATOM     34  C   UNL     1       1.026   3.200  20.550  0.00  0.00    +0.000 A 
ATOM     35  C   UNL     1       1.576   4.466  20.766  0.00  0.00    +0.000 A 
ENDBRANCH  28  30
ENDBRANCH   3  28
TORSDOF 6
ENDMDL
MODEL 3
REMARK VINA RESULT:      -7.5      2.125      3.982
REMARK  Name = 
REMARK  6 active torsions:
REMARK  status: ('A' for Active; 'I' for Inactive)
REMARK    1  A    between atoms: C_2  and  C_3
REMARK    2  A    between atoms: C_10  and  N_11
REMARK    3  A    between atoms: N_11  and  C_12
REMARK    4  A    between atoms: C_14  and  N_15
REMARK    5  A    between atoms: N_15  and  C_16
REMARK    6  A    between atoms: C_24  and  C_25
REMARK                            x       y       z     vdW  Elec       q    Type
REMARK                         _______ _______ _______ _____ _____    ______ ____
ROOT
ATOM      1  C   UNL     1       2.749   5.069  18.101  0.00  0.00    +0.000 A 
ATOM      2  C   UNL     1       3.947   5.030  17.380  0.00  0.00    +0.000 A 
ATOM      3  C   UNL     1       4.704   3.869  17.282  0.00  0.00    +0.000 A 
ATOM      4  N   UNL     1       4.303   2.731  17.872  0.00  0.00    +0.000 NA
ATOM      5  C   UNL     1       3.158   2.762  18.594  0.00  0.00    +0.000 A 
ATOM      6  C   UNL     1       2.375   3.892  18.776  0.00  0.00    +0.000 A 
ENDROOT
BRANCH   6   7
ATOM      7  C   UNL     1       1.146   3.808  19.604  0.00  0.00    +0.000 C 
ATOM      8  N   UNL     1       0.302   2.746  19.409  0.00  0.00    +0.000 N 
ATOM      9  O   UNL     1       0.891   4.658  20.455  0.00  0.00    +0.000 OA
ATOM     10  H   UNL     1       0.554   1.913  18.891  0.00  0.00    +0.000 HD
ATOM     11  H   UNL     1      -0.484   2.670  20.042  0.00  0.00    +0.000 HD
ENDBRANCH   6   7
BRANCH   1  12
ATOM     12  N   UNL     1       2.046   6.282  18.260  0.00  0.00    +0.000 N 
ATOM     13  H   UNL     1       1.539   6.481  17.384  0.00  0.00    +0.000 HD
BRANCH  12  21
ATOM     14  C   UNL     1      -0.480  13.244  20.359  0.00  0.00    +0.000 A 
ATOM     15  C   UNL     1      -0.791  12.828  19.073  0.00  0.00    +0.000 A 
ATOM     16  C   UNL     1      -0.397  11.557  18.656  0.00  0.00    +0.000 A 
ATOM     17  C   UNL     1       0.298  10.714  19.525  0.00  0.00    +0.000 A 
ATOM     18  N   UNL     1       0.683   9.457  19.125  0.00  0.00    +0.000 N 
ATOM     19  C   UNL     1       0.790   8.394  20.114  0.00  0.00    +0.000 C 
ATOM     20  C   UNL     1       2.220   7.888  20.182  0.00  0.00    +0.000 C 
ATOM     21  C   UNL     1       2.745   7.466  18.801  0.00  0.00    +0.000 C 
ATOM     22  C   UNL     1       2.599   8.644  17.830  0.00  0.00    +0.000 C 
ATOM     23  C   UNL     1       1.166   9.175  17.779  0.00  0.00    +0.000 C 
ATOM     24  N   UNL     1       0.581  11.115  20.784  0.00  0.00    +0.000 NA
ATOM     25  C   UNL     1       0.200  12.358  21.171  0.00  0.00    +0.000 A 
BRANCH  14  27
ATOM     26  N   UNL     1      -1.147  15.593  21.214  0.00  0.00    +0.000 NA
ATOM     27  C   UNL     1      -0.850  14.535  20.833  0.00  0.00    +0.000 C 
ENDBRANCH  14  27
ENDBRANCH  12  21
ENDBRANCH   1  12
BRANCH   3  28
ATOM     28  N   UNL     1       5.939   3.980  16.609  0.00  0.00    +0.000 N 
ATOM     29  H   UNL     1       6.653   4.382  17.202  0.00  0.00    +0.000 HD
BRANCH  28  30
ATOM     30  C   UNL     1       6.191   4.149  15.238  0.00  0.00    +0.000 A 
ATOM     31  C   UNL     1       5.468   3.469  14.252  0.00  0.00    +0.000 A 
ATOM     32  C   UNL     1       5.771   3.619  12.901  0.00  0.00    +0.000 A 
ATOM     33  C   UNL     1       6.830   4.433  12.514  0.00  0.00    +0.000 A 
ATOM     34  C   UNL     1       7.590   5.087  13.481  0.00  0.00    +0.000 A 
ATOM     35  C   UNL     1       7.278   4.937  14.834  0.00  0.00    +0.000 A 
ENDBRANCH  28  30
ENDBRANCH   3  28
TORSDOF 6
ENDMDL
MODEL 4
REMARK VINA RESULT:      -7.3      4.314     11.501
REMARK  Name = 
REMARK  6 active torsions:
REMARK  status: ('A' for Active; 'I' for Inactive)
REMARK    1  A    between atoms: C_2  and  C_3
REMARK    2  A    between atoms: C_10  and  N_11
REMARK    3  A    between atoms: N_11  and  C_12
REMARK    4  A    between atoms: C_14  and  N_15
REMARK    5  A    between atoms: N_15  and  C_16
REMARK    6  A    between atoms: C_24  and  C_25
REMARK                            x       y       z     vdW  Elec       q    Type
REMARK                         _______ _______ _______ _____ _____    ______ ____
ROOT
ATOM      1  C   UNL     1       0.562  12.163  20.681  0.00  0.00    +0.000 A 
ATOM      2  C   UNL     1      -0.512  11.845  21.518  0.00  0.00    +0.000 A 
ATOM      3  C   UNL     1      -0.983  12.737  22.475  0.00  0.00    +0.000 A 
ATOM      4  N   UNL     1      -0.425  13.950  22.622  0.00  0.00    +0.000 NA
ATOM      5  C   UNL     1       0.633  14.260  21.836  0.00  0.00    +0.000 A 
ATOM      6  C   UNL     1       1.187  13.407  20.894  0.00  0.00    +0.000 A 
ENDROOT
BRANCH   6   7
ATOM      7  C   UNL     1       2.359  13.852  20.099  0.00  0.00    +0.000 C 
ATOM      8  N   UNL     1       3.463  14.312  20.770  0.00  0.00    +0.000 N 
ATOM      9  O   UNL     1       2.355  13.800  18.871  0.00  0.00    +0.000 OA
ATOM     10  H   UNL     1       3.614  14.180  21.762  0.00  0.00    +0.000 HD
ATOM     11  H   UNL     1       4.275  14.532  20.208  0.00  0.00    +0.000 HD
ENDBRANCH   6   7
BRANCH   1  12
ATOM     12  N   UNL     1       1.079  11.208  19.781  0.00  0.00    +0.000 N 
ATOM     13  H   UNL     1       1.414  11.702  18.940  0.00  0.00    +0.000 HD
BRANCH  12  21
ATOM     14  C   UNL     1       3.110   3.907  18.431  0.00  0.00    +0.000 A 
ATOM     15  C   UNL     1       3.720   4.878  17.653  0.00  0.00    +0.000 A 
ATOM     16  C   UNL     1       3.422   6.221  17.885  0.00  0.00    +0.000 A 
ATOM     17  C   UNL     1       2.525   6.579  18.893  0.00  0.00    +0.000 A 
ATOM     18  N   UNL     1       2.232   7.900  19.135  0.00  0.00    +0.000 N 
ATOM     19  C   UNL     1       1.872   8.318  20.482  0.00  0.00    +0.000 C 
ATOM     20  C   UNL     1       0.462   8.880  20.494  0.00  0.00    +0.000 C 
ATOM     21  C   UNL     1       0.284  10.003  19.460  0.00  0.00    +0.000 C 
ATOM     22  C   UNL     1       0.679   9.473  18.076  0.00  0.00    +0.000 C 
ATOM     23  C   UNL     1       2.088   8.880  18.066  0.00  0.00    +0.000 C 
ATOM     24  N   UNL     1       1.949   5.630  19.663  0.00  0.00    +0.000 NA
ATOM     25  C   UNL     1       2.241   4.329  19.418  0.00  0.00    +0.000 A 
BRANCH  14  27
ATOM     26  N   UNL     1       3.587   1.391  18.059  0.00  0.00    +0.000 NA
ATOM     27  C   UNL     1       3.370   2.520  18.230  0.00  0.00    +0.000 C 
ENDBRANCH  14  27
ENDBRANCH  12  21
ENDBRANCH   1  12
BRANCH   3  28
ATOM     28  N   UNL     1      -2.009  12.266  23.321  0.00  0.00    +0.000 N 
ATOM     29  H   UNL     1      -1.753  11.395  23.769  0.00  0.00    +0.000 HD
BRANCH  28  30
ATOM     30  C   UNL     1      -3.396  12.460  23.228  0.00  0.00    +0.000 A 
ATOM     31  C   UNL     1      -4.033  12.755  22.018  0.00  0.00    +0.000 A 
ATOM     32  C   UNL     1      -5.405  12.990  21.962  0.00  0.00    +0.000 A 
ATOM     33  C   UNL     1      -6.161  12.965  23.129  0.00  0.00    +0.000 A 
ATOM     34  C   UNL     1      -5.540  12.715  24.351  0.00  0.00    +0.000 A 
ATOM     35  C   UNL     1      -4.165  12.474  24.400  0.00  0.00    +0.000 A 
ENDBRANCH  28  30
ENDBRANCH   3  28
TORSDOF 6
ENDMDL
MODEL 5
REMARK VINA RESULT:      -7.2      3.387      5.107
REMARK  Name = 
REMARK  6 active torsions:
REMARK  status: ('A' for Active; 'I' for Inactive)
REMARK    1  A    between atoms: C_2  and  C_3
REMARK    2  A    between atoms: C_10  and  N_11
REMARK    3  A    between atoms: N_11  and  C_12
REMARK    4  A    between atoms: C_14  and  N_15
REMARK    5  A    between atoms: N_15  and  C_16
REMARK    6  A    between atoms: C_24  and  C_25
REMARK                            x       y       z     vdW  Elec       q    Type
REMARK                         _______ _______ _______ _____ _____    ______ ____
ROOT
ATOM      1  C   UNL     1       2.597   4.726  18.676  0.00  0.00    +0.000 A 
ATOM      2  C   UNL     1       3.861   4.948  18.122  0.00  0.00    +0.000 A 
ATOM      3  C   UNL     1       4.660   3.901  17.678  0.00  0.00    +0.000 A 
ATOM      4  N   UNL     1       4.237   2.629  17.756  0.00  0.00    +0.000 NA
ATOM      5  C   UNL     1       3.025   2.398  18.314  0.00  0.00    +0.000 A 
ATOM      6  C   UNL     1       2.193   3.385  18.821  0.00  0.00    +0.000 A 
ENDROOT
BRANCH   6   7
ATOM      7  C   UNL     1       0.890   3.009  19.425  0.00  0.00    +0.000 C 
ATOM      8  N   UNL     1       0.720   3.198  20.772  0.00  0.00    +0.000 N 
ATOM      9  O   UNL     1      -0.023   2.552  18.740  0.00  0.00    +0.000 OA
ATOM     10  H   UNL     1       1.337   3.761  21.344  0.00  0.00    +0.000 HD
ATOM     11  H   UNL     1      -0.203   3.010  21.142  0.00  0.00    +0.000 HD
ENDBRANCH   6   7
BRANCH   1  12
ATOM     12  N   UNL     1       1.843   5.797  19.200  0.00  0.00    +0.000 N 
ATOM     13  H   UNL     1       1.056   5.985  18.561  0.00  0.00    +0.000 HD
BRANCH  12  21
ATOM     14  C   UNL     1      -0.578  13.064  19.963  0.00  0.00    +0.000 A 
ATOM     15  C   UNL     1      -0.767  12.470  18.724  0.00  0.00    +0.000 A 
ATOM     16  C   UNL     1      -0.388  11.140  18.544  0.00  0.00    +0.000 A 
ATOM     17  C   UNL     1       0.171  10.417  19.600  0.00  0.00    +0.000 A 
ATOM     18  N   UNL     1       0.540   9.104  19.434  0.00  0.00    +0.000 N 
ATOM     19  C   UNL     1       0.491   8.198  20.572  0.00  0.00    +0.000 C 
ATOM     20  C   UNL     1       1.882   7.668  20.875  0.00  0.00    +0.000 C 
ATOM     21  C   UNL     1       2.533   7.029  19.639  0.00  0.00    +0.000 C 
ATOM     22  C   UNL     1       2.545   8.052  18.497  0.00  0.00    +0.000 C 
ATOM     23  C   UNL     1       1.152   8.610  18.207  0.00  0.00    +0.000 C 
ATOM     24  N   UNL     1       0.334  10.994  20.811  0.00  0.00    +0.000 NA
ATOM     25  C   UNL     1      -0.031  12.291  20.968  0.00  0.00    +0.000 A 
BRANCH  14  27
ATOM     26  N   UNL     1      -1.224  15.532  20.393  0.00  0.00    +0.000 NA
ATOM     27  C   UNL     1      -0.939  14.422  20.200  0.00  0.00    +0.000 C 
ENDBRANCH  14  27
ENDBRANCH  12  21
ENDBRANCH   1  12
BRANCH   3  28
ATOM     28  N   UNL     1       5.952   4.245  17.228  0.00  0.00    +0.000 N 
ATOM     29  H   UNL     1       6.478   3.428  16.944  0.00  0.00    +0.000 HD
BRANCH  28  30
ATOM     30  C   UNL     1       6.763   5.330  17.597  0.00  0.00    +0.000 A 
ATOM     31  C   UNL     1       7.504   5.343  18.783  0.00  0.00    +0.000 A 
ATOM     32  C   UNL     1       8.263   6.453  19.149  0.00  0.00    +0.000 A 
ATOM     33  C   UNL     1       8.266   7.586  18.344  0.00  0.00    +0.000 A 
ATOM     34  C   UNL     1       7.501   7.611  17.180  0.00  0.00    +0.000 A 
ATOM     35  C   UNL     1       6.747   6.493  16.815  0.00  0.00    +0.000 A 
ENDBRANCH  28  30
ENDBRANCH   3  28
TORSDOF 6
ENDMDL
MODEL 6
REMARK VINA RESULT:      -7.2      4.270      8.209
REMARK  Name = 
REMARK  6 active torsions:
REMARK  status: ('A' for Active; 'I' for Inactive)
REMARK    1  A    between atoms: C_2  and  C_3
REMARK    2  A    between atoms: C_10  and  N_11
REMARK    3  A    between atoms: N_11  and  C_12
REMARK    4  A    between atoms: C_14  and  N_15
REMARK    5  A    between atoms: N_15  and  C_16
REMARK    6  A    between atoms: C_24  and  C_25
REMARK                            x       y       z     vdW  Elec       q    Type
REMARK                         _______ _______ _______ _____ _____    ______ ____
ROOT
ATOM      1  C   UNL     1       0.364   9.765  20.095  0.00  0.00    +0.000 A 
ATOM      2  C   UNL     1       1.034   8.595  20.464  0.00  0.00    +0.000 A 
ATOM      3  C   UNL     1       1.936   7.968  19.613  0.00  0.00    +0.000 A 
ATOM      4  N   UNL     1       2.206   8.475  18.398  0.00  0.00    +0.000 NA
ATOM      5  C   UNL     1       1.545   9.594  18.018  0.00  0.00    +0.000 A 
ATOM      6  C   UNL     1       0.599  10.248  18.793  0.00  0.00    +0.000 A 
ENDROOT
BRANCH   6   7
ATOM      7  C   UNL     1      -0.074  11.460  18.263  0.00  0.00    +0.000 C 
ATOM      8  N   UNL     1       0.691  12.570  18.009  0.00  0.00    +0.000 N 
ATOM      9  O   UNL     1      -1.283  11.474  18.040  0.00  0.00    +0.000 OA
ATOM     10  H   UNL     1       1.702  12.558  17.963  0.00  0.00    +0.000 HD
ATOM     11  H   UNL     1       0.221  13.352  17.572  0.00  0.00    +0.000 HD
ENDBRANCH   6   7
BRANCH   1  12
ATOM     12  N   UNL     1      -0.612  10.332  20.941  0.00  0.00    +0.000 N 
ATOM     13  H   UNL     1      -1.322  10.795  20.353  0.00  0.00    +0.000 HD
BRANCH  12  21
ATOM     14  C   UNL     1      -3.869  16.391  24.396  0.00  0.00    +0.000 A 
ATOM     15  C   UNL     1      -3.665  16.487  23.028  0.00  0.00    +0.000 A 
ATOM     16  C   UNL     1      -3.119  15.402  22.344  0.00  0.00    +0.000 A 
ATOM     17  C   UNL     1      -2.788  14.231  23.030  0.00  0.00    +0.000 A 
ATOM     18  N   UNL     1      -2.258  13.153  22.363  0.00  0.00    +0.000 N 
ATOM     19  C   UNL     1      -2.512  11.809  22.860  0.00  0.00    +0.000 C 
ATOM     20  C   UNL     1      -1.204  11.140  23.243  0.00  0.00    +0.000 C 
ATOM     21  C   UNL     1      -0.189  11.161  22.090  0.00  0.00    +0.000 C 
ATOM     22  C   UNL     1       0.019  12.611  21.636  0.00  0.00    +0.000 C 
ATOM     23  C   UNL     1      -1.298  13.298  21.276  0.00  0.00    +0.000 C 
ATOM     24  N   UNL     1      -3.008  14.134  24.360  0.00  0.00    +0.000 NA
ATOM     25  C   UNL     1      -3.530  15.202  25.012  0.00  0.00    +0.000 A 
BRANCH  14  27
ATOM     26  N   UNL     1      -4.867  18.355  25.753  0.00  0.00    +0.000 NA
ATOM     27  C   UNL     1      -4.414  17.473  25.146  0.00  0.00    +0.000 C 
ENDBRANCH  14  27
ENDBRANCH  12  21
ENDBRANCH   1  12
BRANCH   3  28
ATOM     28  N   UNL     1       2.475   6.744  20.060  0.00  0.00    +0.000 N 
ATOM     29  H   UNL     1       2.893   6.833  20.978  0.00  0.00    +0.000 HD
BRANCH  28  30
ATOM     30  C   UNL     1       2.995   5.676  19.312  0.00  0.00    +0.000 A 
ATOM     31  C   UNL     1       4.367   5.413  19.232  0.00  0.00    +0.000 A 
ATOM     32  C   UNL     1       4.859   4.375  18.443  0.00  0.00    +0.000 A 
ATOM     33  C   UNL     1       3.983   3.600  17.692  0.00  0.00    +0.000 A 
ATOM     34  C   UNL     1       2.617   3.871  17.723  0.00  0.00    +0.000 A 
ATOM     35  C   UNL     1       2.128   4.909  18.520  0.00  0.00    +0.000 A 
ENDBRANCH  28  30
ENDBRANCH   3  28
TORSDOF 6
ENDMDL
MODEL 7
REMARK VINA RESULT:      -7.2      3.530      5.217
REMARK  Name = 
REMARK  6 active torsions:
REMARK  status: ('A' for Active; 'I' for Inactive)
REMARK    1  A    between atoms: C_2  and  C_3
REMARK    2  A    between atoms: C_10  and  N_11
REMARK    3  A    between atoms: N_11  and  C_12
REMARK    4  A    between atoms: C_14  and  N_15
REMARK    5  A    between atoms: N_15  and  C_16
REMARK    6  A    between atoms: C_24  and  C_25
REMARK                            x       y       z     vdW  Elec       q    Type
REMARK                         _______ _______ _______ _____ _____    ______ ____
ROOT
ATOM      1  C   UNL     1       2.924   4.912  19.466  0.00  0.00    +0.000 A 
ATOM      2  C   UNL     1       4.185   5.041  18.877  0.00  0.00    +0.000 A 
ATOM      3  C   UNL     1       5.115   4.008  18.904  0.00  0.00    +0.000 A 
ATOM      4  N   UNL     1       4.827   2.836  19.493  0.00  0.00    +0.000 NA
ATOM      5  C   UNL     1       3.619   2.707  20.090  0.00  0.00    +0.000 A 
ATOM      6  C   UNL     1       2.659   3.707  20.144  0.00  0.00    +0.000 A 
ENDROOT
BRANCH   6   7
ATOM      7  C   UNL     1       1.374   3.454  20.842  0.00  0.00    +0.000 C 
ATOM      8  N   UNL     1       1.386   2.660  21.960  0.00  0.00    +0.000 N 
ATOM      9  O   UNL     1       0.323   3.952  20.444  0.00  0.00    +0.000 OA
ATOM     10  H   UNL     1       2.228   2.403  22.459  0.00  0.00    +0.000 HD
ATOM     11  H   UNL     1       0.512   2.572  22.461  0.00  0.00    +0.000 HD
ENDBRANCH   6   7
BRANCH   1  12
ATOM     12  N   UNL     1       2.033   6.005  19.503  0.00  0.00    +0.000 N 
ATOM     13  H   UNL     1       1.497   6.017  18.622  0.00  0.00    +0.000 HD
BRANCH  12  21
ATOM     14  C   UNL     1      -1.516  12.782  20.361  0.00  0.00    +0.000 A 
ATOM     15  C   UNL     1      -1.677  12.143  19.141  0.00  0.00    +0.000 A 
ATOM     16  C   UNL     1      -1.092  10.892  18.947  0.00  0.00    +0.000 A 
ATOM     17  C   UNL     1      -0.360  10.289  19.972  0.00  0.00    +0.000 A 
ATOM     18  N   UNL     1       0.213   9.053  19.793  0.00  0.00    +0.000 N 
ATOM     19  C   UNL     1       0.384   8.171  20.938  0.00  0.00    +0.000 C 
ATOM     20  C   UNL     1       1.858   7.885  21.159  0.00  0.00    +0.000 C 
ATOM     21  C   UNL     1       2.533   7.341  19.889  0.00  0.00    +0.000 C 
ATOM     22  C   UNL     1       2.306   8.333  18.742  0.00  0.00    +0.000 C 
ATOM     23  C   UNL     1       0.825   8.647  18.534  0.00  0.00    +0.000 C 
ATOM     24  N   UNL     1      -0.223  10.906  21.167  0.00  0.00    +0.000 NA
ATOM     25  C   UNL     1      -0.789  12.127  21.336  0.00  0.00    +0.000 A 
BRANCH  14  27
ATOM     26  N   UNL     1      -2.540  15.113  20.819  0.00  0.00    +0.000 NA
ATOM     27  C   UNL     1      -2.083  14.065  20.610  0.00  0.00    +0.000 C 
ENDBRANCH  14  27
ENDBRANCH  12  21
ENDBRANCH   1  12
BRANCH   3  28
ATOM     28  N   UNL     1       6.385   4.292  18.359  0.00  0.00    +0.000 N 
ATOM     29  H   UNL     1       7.037   3.534  18.518  0.00  0.00    +0.000 HD
BRANCH  28  30
ATOM     30  C   UNL     1       7.009   5.533  18.161  0.00  0.00    +0.000 A 
ATOM     31  C   UNL     1       7.855   6.109  19.115  0.00  0.00    +0.000 A 
ATOM     32  C   UNL     1       8.424   7.365  18.912  0.00  0.00    +0.000 A 
ATOM     33  C   UNL     1       8.127   8.083  17.759  0.00  0.00    +0.000 A 
ATOM     34  C   UNL     1       7.254   7.547  16.816  0.00  0.00    +0.000 A 
ATOM     35  C   UNL     1       6.691   6.285  17.021  0.00  0.00    +0.000 A 
ENDBRANCH  28  30
ENDBRANCH   3  28
TORSDOF 6
ENDMDL
MODEL 8
REMARK VINA RESULT:      -7.2      4.318     11.388
REMARK  Name = 
REMARK  6 active torsions:
REMARK  status: ('A' for Active; 'I' for Inactive)
REMARK    1  A    between atoms: C_2  and  C_3
REMARK    2  A    between atoms: C_10  and  N_11
REMARK    3  A    between atoms: N_11  and  C_12
REMARK    4  A    between atoms: C_14  and  N_15
REMARK    5  A    between atoms: N_15  and  C_16
REMARK    6  A    between atoms: C_24  and  C_25
REMARK                            x       y       z     vdW  Elec       q    Type
REMARK                         _______ _______ _______ _____ _____    ______ ____
ROOT
ATOM      1  C   UNL     1       0.474  12.515  19.613  0.00  0.00    +0.000 A 
ATOM      2  C   UNL     1      -0.777  12.864  20.132  0.00  0.00    +0.000 A 
ATOM      3  C   UNL     1      -1.296  14.145  19.991  0.00  0.00    +0.000 A 
ATOM      4  N   UNL     1      -0.614  15.099  19.336  0.00  0.00    +0.000 NA
ATOM      5  C   UNL     1       0.609  14.782  18.851  0.00  0.00    +0.000 A 
ATOM      6  C   UNL     1       1.213  13.541  18.992  0.00  0.00    +0.000 A 
ENDROOT
BRANCH   6   7
ATOM      7  C   UNL     1       2.568  13.314  18.431  0.00  0.00    +0.000 C 
ATOM      8  N   UNL     1       3.525  14.274  18.635  0.00  0.00    +0.000 N 
ATOM      9  O   UNL     1       2.838  12.289  17.808  0.00  0.00    +0.000 OA
ATOM     10  H   UNL     1       3.436  15.024  19.310  0.00  0.00    +0.000 HD
ATOM     11  H   UNL     1       4.459  14.057  18.313  0.00  0.00    +0.000 HD
ENDBRANCH   6   7
BRANCH   1  12
ATOM     12  N   UNL     1       1.017  11.235  19.847  0.00  0.00    +0.000 N 
ATOM     13  H   UNL     1       1.974  11.213  19.463  0.00  0.00    +0.000 HD
BRANCH  12  21
ATOM     14  C   UNL     1       3.076   3.935  18.535  0.00  0.00    +0.000 A 
ATOM     15  C   UNL     1       3.713   4.908  17.780  0.00  0.00    +0.000 A 
ATOM     16  C   UNL     1       3.410   6.250  18.008  0.00  0.00    +0.000 A 
ATOM     17  C   UNL     1       2.482   6.607  18.988  0.00  0.00    +0.000 A 
ATOM     18  N   UNL     1       2.184   7.927  19.225  0.00  0.00    +0.000 N 
ATOM     19  C   UNL     1       1.782   8.341  20.562  0.00  0.00    +0.000 C 
ATOM     20  C   UNL     1       0.373   8.906  20.530  0.00  0.00    +0.000 C 
ATOM     21  C   UNL     1       0.231  10.033  19.496  0.00  0.00    +0.000 C 
ATOM     22  C   UNL     1       0.669   9.508  18.123  0.00  0.00    +0.000 C 
ATOM     23  C   UNL     1       2.077   8.912  18.156  0.00  0.00    +0.000 C 
ATOM     24  N   UNL     1       1.879   5.656  19.736  0.00  0.00    +0.000 NA
ATOM     25  C   UNL     1       2.176   4.355  19.495  0.00  0.00    +0.000 A 
BRANCH  14  27
ATOM     26  N   UNL     1       3.547   1.416  18.179  0.00  0.00    +0.000 NA
ATOM     27  C   UNL     1       3.340   2.549  18.337  0.00  0.00    +0.000 C 
ENDBRANCH  14  27
ENDBRANCH  12  21
ENDBRANCH   1  12
BRANCH   3  28
ATOM     28  N   UNL     1      -2.523  14.401  20.639  0.00  0.00    +0.000 N 
ATOM     29  H   UNL     1      -2.974  15.229  20.272  0.00  0.00    +0.000 HD
BRANCH  28  30
ATOM     30  C   UNL     1      -2.920  14.082  21.948  0.00  0.00    +0.000 A 
ATOM     31  C   UNL     1      -3.601  12.901  22.259  0.00  0.00    +0.000 A 
ATOM     32  C   UNL     1      -4.026  12.632  23.559  0.00  0.00    +0.000 A 
ATOM     33  C   UNL     1      -3.801  13.563  24.568  0.00  0.00    +0.000 A 
ATOM     34  C   UNL     1      -3.162  14.764  24.272  0.00  0.00    +0.000 A 
ATOM     35  C   UNL     1      -2.733  15.026  22.968  0.00  0.00    +0.000 A 
ENDBRANCH  28  30
ENDBRANCH   3  28
TORSDOF 6
ENDMDL
MODEL 9
REMARK VINA RESULT:      -7.2      4.445     11.905
REMARK  Name = 
REMARK  6 active torsions:
REMARK  status: ('A' for Active; 'I' for Inactive)
REMARK    1  A    between atoms: C_2  and  C_3
REMARK    2  A    between atoms: C_10  and  N_11
REMARK    3  A    between atoms: N_11  and  C_12
REMARK    4  A    between atoms: C_14  and  N_15
REMARK    5  A    between atoms: N_15  and  C_16
REMARK    6  A    between atoms: C_24  and  C_25
REMARK                            x       y       z     vdW  Elec       q    Type
REMARK                         _______ _______ _______ _____ _____    ______ ____
ROOT
ATOM      1  C   UNL     1      -0.112  12.481  21.154  0.00  0.00    +0.000 A 
ATOM      2  C   UNL     1      -1.118  12.879  22.040  0.00  0.00    +0.000 A 
ATOM      3  C   UNL     1      -1.667  14.155  21.999  0.00  0.00    +0.000 A 
ATOM      4  N   UNL     1      -1.254  15.055  21.090  0.00  0.00    +0.000 NA
ATOM      5  C   UNL     1      -0.263  14.691  20.244  0.00  0.00    +0.000 A 
ATOM      6  C   UNL     1       0.364  13.454  20.255  0.00  0.00    +0.000 A 
ENDROOT
BRANCH   6   7
ATOM      7  C   UNL     1       1.453  13.174  19.286  0.00  0.00    +0.000 C 
ATOM      8  N   UNL     1       1.113  12.915  17.983  0.00  0.00    +0.000 N 
ATOM      9  O   UNL     1       2.633  13.185  19.630  0.00  0.00    +0.000 OA
ATOM     10  H   UNL     1       0.198  13.101  17.592  0.00  0.00    +0.000 HD
ATOM     11  H   UNL     1       1.877  12.808  17.328  0.00  0.00    +0.000 HD
ENDBRANCH   6   7
BRANCH   1  12
ATOM     12  N   UNL     1       0.490  11.211  21.275  0.00  0.00    +0.000 N 
ATOM     13  H   UNL     1       1.435  11.260  20.864  0.00  0.00    +0.000 HD
BRANCH  12  21
ATOM     14  C   UNL     1       2.823   4.338  18.711  0.00  0.00    +0.000 A 
ATOM     15  C   UNL     1       3.292   5.451  18.029  0.00  0.00    +0.000 A 
ATOM     16  C   UNL     1       2.936   6.722  18.478  0.00  0.00    +0.000 A 
ATOM     17  C   UNL     1       2.123   6.871  19.603  0.00  0.00    +0.000 A 
ATOM     18  N   UNL     1       1.775   8.119  20.058  0.00  0.00    +0.000 N 
ATOM     19  C   UNL     1       1.526   8.320  21.478  0.00  0.00    +0.000 C 
ATOM     20  C   UNL     1       0.092   8.768  21.697  0.00  0.00    +0.000 C 
ATOM     21  C   UNL     1      -0.256  10.006  20.856  0.00  0.00    +0.000 C 
ATOM     22  C   UNL     1       0.031   9.703  19.381  0.00  0.00    +0.000 C 
ATOM     23  C   UNL     1       1.466   9.224  19.159  0.00  0.00    +0.000 C 
ATOM     24  N   UNL     1       1.686   5.784  20.277  0.00  0.00    +0.000 NA
ATOM     25  C   UNL     1       2.032   4.554  19.822  0.00  0.00    +0.000 A 
BRANCH  14  27
ATOM     26  N   UNL     1       3.416   1.940  17.940  0.00  0.00    +0.000 NA
ATOM     27  C   UNL     1       3.147   3.016  18.290  0.00  0.00    +0.000 C 
ENDBRANCH  14  27
ENDBRANCH  12  21
ENDBRANCH   1  12
BRANCH   3  28
ATOM     28  N   UNL     1      -2.606  14.468  23.004  0.00  0.00    +0.000 N 
ATOM     29  H   UNL     1      -2.168  14.916  23.798  0.00  0.00    +0.000 HD
BRANCH  28  30
ATOM     30  C   UNL     1      -3.814  13.826  23.322  0.00  0.00    +0.000 A 
ATOM     31  C   UNL     1      -5.009  14.103  22.650  0.00  0.00    +0.000 A 
ATOM     32  C   UNL     1      -6.204  13.487  23.018  0.00  0.00    +0.000 A 
ATOM     33  C   UNL     1      -6.226  12.603  24.092  0.00  0.00    +0.000 A 
ATOM     34  C   UNL     1      -5.056  12.346  24.802  0.00  0.00    +0.000 A 
ATOM     35  C   UNL     1      -3.860  12.962  24.425  0.00  0.00    +0.000 A 
ENDBRANCH  28  30
ENDBRANCH   3  28
TORSDOF 6
ENDMDL
