MODEL 1
REMARK VINA RESULT:      -6.6      0.000      0.000
REMARK  Name = 
REMARK  9 active torsions:
REMARK  status: ('A' for Active; 'I' for Inactive)
REMARK    1  A    between atoms: C_1  and  C_2
REMARK    2  A    between atoms: C_2  and  C_3
REMARK    3  A    between atoms: C_2  and  O_4
REMARK    4  A    between atoms: O_4  and  C_5
REMARK    5  A    between atoms: C_5  and  C_6
REMARK    6  A    between atoms: C_9  and  C_11
REMARK    7  A    between atoms: C_11  and  C_12
REMARK    8  A    between atoms: C_12  and  N_13
REMARK    9  A    between atoms: N_16  and  C_17
REMARK                            x       y       z     vdW  Elec       q    Type
REMARK                         _______ _______ _______ _____ _____    ______ ____
ROOT
ATOM      1  C   UNL     1       6.899   5.096  15.464  0.00  0.00    +0.000 C 
ATOM      2  C   UNL     1       6.286   6.378  16.059  0.00  0.00    +0.000 C 
ATOM      3  N   UNL     1       5.813   6.143  17.425  0.00  0.00    +0.000 N 
ATOM      4  C   UNL     1       4.492   6.383  17.790  0.00  0.00    +0.000 C 
ATOM      5  O   UNL     1       3.644   6.770  16.995  0.00  0.00    +0.000 OA
ATOM      6  C   UNL     1       6.846   5.570  18.300  0.00  0.00    +0.000 C 
ATOM      7  C   UNL     1       7.457   4.316  17.666  0.00  0.00    +0.000 C 
ATOM      8  O   UNL     1       7.920   4.555  16.331  0.00  0.00    +0.000 OA
ENDROOT
BRANCH   1   9
ATOM      9  C   UNL     1       5.827   4.058  15.103  0.00  0.00    +0.000 C 
BRANCH   9  10
ATOM     10  O   UNL     1       5.358   4.322  13.783  0.00  0.00    +0.000 OA
BRANCH  10  12
ATOM     11  C   UNL     1       4.695   3.210  11.804  0.00  0.00    +0.000 C 
ATOM     12  C   UNL     1       5.846   3.428  12.782  0.00  0.00    +0.000 C 
ATOM     13  C   UNL     1       7.043   4.025  12.049  0.00  0.00    +0.000 C 
ENDBRANCH  10  12
ENDBRANCH   9  10
ENDBRANCH   1   9
BRANCH   4  14
ATOM     14  C   UNL     1       4.170   6.149  19.253  0.00  0.00    +0.000 C 
BRANCH  14  15
ATOM     15  C   UNL     1       2.709   6.350  19.610  0.00  0.00    +0.000 C 
BRANCH  15  16
ATOM     16  N   UNL     1       2.048   5.075  19.816  0.00  0.00    +0.000 N 
ATOM     17  N   UNL     1       1.937   4.479  21.055  0.00  0.00    +0.000 NA
ATOM     18  C   UNL     1       1.374   3.340  20.800  0.00  0.00    +0.000 A 
ATOM     19  N   UNL     1       1.119   3.107  19.498  0.00  0.00    +0.000 N 
ATOM     20  C   UNL     1       0.526   1.947  18.892  0.00  0.00    +0.000 C 
ATOM     21  C   UNL     1       1.581   4.208  18.822  0.00  0.00    +0.000 A 
ATOM     22  O   UNL     1       1.609   4.372  17.613  0.00  0.00    +0.000 OA
ENDBRANCH  15  16
ENDBRANCH  14  15
ENDBRANCH   4  14
TORSDOF 6
ENDMDL
MODEL 2
REMARK VINA RESULT:      -6.5      2.600      6.645
REMARK  Name = 
REMARK  9 active torsions:
REMARK  status: ('A' for Active; 'I' for Inactive)
REMARK    1  A    between atoms: C_1  and  C_2
REMARK    2  A    between atoms: C_2  and  C_3
REMARK    3  A    between atoms: C_2  and  O_4
REMARK    4  A    between atoms: O_4  and  C_5
REMARK    5  A    between atoms: C_5  and  C_6
REMARK    6  A    between atoms: C_9  and  C_11
REMARK    7  A    between atoms: C_11  and  C_12
REMARK    8  A    between atoms: C_12  and  N_13
REMARK    9  A    between atoms: N_16  and  C_17
REMARK                            x       y       z     vdW  Elec       q    Type
REMARK                         _______ _______ _______ _____ _____    ______ ____
ROOT
ATOM      1  C   UNL     1       2.246   6.007  20.052  0.00  0.00    +0.000 C 
ATOM      2  C   UNL     1       3.688   5.484  19.914  0.00  0.00    +0.000 C 
ATOM      3  N   UNL     1       4.071   5.380  18.504  0.00  0.00    +0.000 N 
ATOM      4  C   UNL     1       4.508   4.179  17.955  0.00  0.00    +0.000 C 
ATOM      5  O   UNL     1       4.569   3.138  18.597  0.00  0.00    +0.000 OA
ATOM      6  C   UNL     1       3.868   6.631  17.759  0.00  0.00    +0.000 C 
ATOM      7  C   UNL     1       2.434   7.142  17.943  0.00  0.00    +0.000 C 
ATOM      8  O   UNL     1       2.068   7.243  19.324  0.00  0.00    +0.000 OA
ENDROOT
BRANCH   1   9
ATOM      9  C   UNL     1       1.207   4.946  19.664  0.00  0.00    +0.000 C 
BRANCH   9  10
ATOM     10  O   UNL     1       0.852   4.204  20.829  0.00  0.00    +0.000 OA
BRANCH  10  12
ATOM     11  C   UNL     1       1.300   2.457  19.300  0.00  0.00    +0.000 C 
ATOM     12  C   UNL     1       1.178   2.814  20.778  0.00  0.00    +0.000 C 
ATOM     13  C   UNL     1       2.498   2.534  21.489  0.00  0.00    +0.000 C 
ENDBRANCH  10  12
ENDBRANCH   9  10
ENDBRANCH   1   9
BRANCH   4  14
ATOM     14  C   UNL     1       4.926   4.245  16.498  0.00  0.00    +0.000 C 
BRANCH  14  15
ATOM     15  C   UNL     1       6.423   4.159  16.274  0.00  0.00    +0.000 C 
BRANCH  15  16
ATOM     16  N   UNL     1       7.134   5.025  17.196  0.00  0.00    +0.000 N 
ATOM     17  N   UNL     1       7.650   4.581  18.396  0.00  0.00    +0.000 NA
ATOM     18  C   UNL     1       8.116   5.657  18.948  0.00  0.00    +0.000 A 
ATOM     19  N   UNL     1       7.937   6.787  18.238  0.00  0.00    +0.000 N 
ATOM     20  C   UNL     1       8.317   8.131  18.576  0.00  0.00    +0.000 C 
ATOM     21  C   UNL     1       7.265   6.415  17.101  0.00  0.00    +0.000 A 
ATOM     22  O   UNL     1       6.843   7.147  16.221  0.00  0.00    +0.000 OA
ENDBRANCH  15  16
ENDBRANCH  14  15
ENDBRANCH   4  14
TORSDOF 6
ENDMDL
MODEL 3
REMARK VINA RESULT:      -6.3      3.231      5.704
REMARK  Name = 
REMARK  9 active torsions:
REMARK  status: ('A' for Active; 'I' for Inactive)
REMARK    1  A    between atoms: C_1  and  C_2
REMARK    2  A    between atoms: C_2  and  C_3
REMARK    3  A    between atoms: C_2  and  O_4
REMARK    4  A    between atoms: O_4  and  C_5
REMARK    5  A    between atoms: C_5  and  C_6
REMARK    6  A    between atoms: C_9  and  C_11
REMARK    7  A    between atoms: C_11  and  C_12
REMARK    8  A    between atoms: C_12  and  N_13
REMARK    9  A    between atoms: N_16  and  C_17
REMARK                            x       y       z     vdW  Elec       q    Type
REMARK                         _______ _______ _______ _____ _____    ______ ____
ROOT
ATOM      1  C   UNL     1       4.679   3.480  18.540  0.00  0.00    +0.000 C 
ATOM      2  C   UNL     1       3.911   4.239  17.441  0.00  0.00    +0.000 C 
ATOM      3  N   UNL     1       3.967   5.684  17.672  0.00  0.00    +0.000 N 
ATOM      4  C   UNL     1       2.810   6.447  17.794  0.00  0.00    +0.000 C 
ATOM      5  O   UNL     1       1.686   5.962  17.748  0.00  0.00    +0.000 OA
ATOM      6  C   UNL     1       5.338   6.189  17.832  0.00  0.00    +0.000 C 
ATOM      7  C   UNL     1       6.085   5.393  18.908  0.00  0.00    +0.000 C 
ATOM      8  O   UNL     1       6.028   3.980  18.674  0.00  0.00    +0.000 OA
ENDROOT
BRANCH   1   9
ATOM      9  C   UNL     1       3.922   3.474  19.875  0.00  0.00    +0.000 C 
BRANCH   9  10
ATOM     10  O   UNL     1       3.190   2.255  19.982  0.00  0.00    +0.000 OA
BRANCH  10  12
ATOM     11  C   UNL     1       2.017   3.301  21.749  0.00  0.00    +0.000 C 
ATOM     12  C   UNL     1       1.879   2.389  20.534  0.00  0.00    +0.000 C 
ATOM     13  C   UNL     1       0.920   3.010  19.525  0.00  0.00    +0.000 C 
ENDBRANCH  10  12
ENDBRANCH   9  10
ENDBRANCH   1   9
BRANCH   4  14
ATOM     14  C   UNL     1       3.030   7.937  17.970  0.00  0.00    +0.000 C 
BRANCH  14  15
ATOM     15  C   UNL     1       1.756   8.760  17.972  0.00  0.00    +0.000 C 
BRANCH  15  16
ATOM     16  N   UNL     1       1.358   9.093  19.328  0.00  0.00    +0.000 N 
ATOM     17  N   UNL     1       1.570   8.251  20.400  0.00  0.00    +0.000 NA
ATOM     18  C   UNL     1       1.002   8.865  21.390  0.00  0.00    +0.000 A 
ATOM     19  N   UNL     1       0.407  10.031  21.075  0.00  0.00    +0.000 N 
ATOM     20  C   UNL     1      -0.315  10.932  21.930  0.00  0.00    +0.000 C 
ATOM     21  C   UNL     1       0.590  10.194  19.725  0.00  0.00    +0.000 A 
ATOM     22  O   UNL     1       0.145  11.087  19.023  0.00  0.00    +0.000 OA
ENDBRANCH  15  16
ENDBRANCH  14  15
ENDBRANCH   4  14
TORSDOF 6
ENDMDL
MODEL 4
REMARK VINA RESULT:      -6.2      2.488      6.873
REMARK  Name = 
REMARK  9 active torsions:
REMARK  status: ('A' for Active; 'I' for Inactive)
REMARK    1  A    between atoms: C_1  and  C_2
REMARK    2  A    between atoms: C_2  and  C_3
REMARK    3  A    between atoms: C_2  and  O_4
REMARK    4  A    between atoms: O_4  and  C_5
REMARK    5  A    between atoms: C_5  and  C_6
REMARK    6  A    between atoms: C_9  and  C_11
REMARK    7  A    between atoms: C_11  and  C_12
REMARK    8  A    between atoms: C_12  and  N_13
REMARK    9  A    between atoms: N_16  and  C_17
REMARK                            x       y       z     vdW  Elec       q    Type
REMARK                         _______ _______ _______ _____ _____    ______ ____
ROOT
ATOM      1  C   UNL     1       1.180   4.432  20.635  0.00  0.00    +0.000 C 
ATOM      2  C   UNL     1       1.286   4.055  19.145  0.00  0.00    +0.000 C 
ATOM      3  N   UNL     1       2.597   3.476  18.847  0.00  0.00    +0.000 N 
ATOM      4  C   UNL     1       3.429   4.019  17.873  0.00  0.00    +0.000 C 
ATOM      5  O   UNL     1       3.136   5.021  17.233  0.00  0.00    +0.000 OA
ATOM      6  C   UNL     1       2.940   2.347  19.725  0.00  0.00    +0.000 C 
ATOM      7  C   UNL     1       2.794   2.745  21.198  0.00  0.00    +0.000 C 
ATOM      8  O   UNL     1       1.508   3.308  21.482  0.00  0.00    +0.000 OA
ENDROOT
BRANCH   1   9
ATOM      9  C   UNL     1       2.005   5.681  20.974  0.00  0.00    +0.000 C 
BRANCH   9  10
ATOM     10  O   UNL     1       2.077   6.512  19.818  0.00  0.00    +0.000 OA
BRANCH  10  12
ATOM     11  C   UNL     1       1.497   8.244  21.319  0.00  0.00    +0.000 C 
ATOM     12  C   UNL     1       1.318   7.719  19.898  0.00  0.00    +0.000 C 
ATOM     13  C   UNL     1       1.822   8.752  18.896  0.00  0.00    +0.000 C 
ENDBRANCH  10  12
ENDBRANCH   9  10
ENDBRANCH   1   9
BRANCH   4  14
ATOM     14  C   UNL     1       4.728   3.272  17.639  0.00  0.00    +0.000 C 
BRANCH  14  15
ATOM     15  C   UNL     1       5.642   3.917  16.614  0.00  0.00    +0.000 C 
BRANCH  15  16
ATOM     16  N   UNL     1       6.496   4.911  17.238  0.00  0.00    +0.000 N 
ATOM     17  N   UNL     1       7.190   4.677  18.407  0.00  0.00    +0.000 NA
ATOM     18  C   UNL     1       7.745   5.818  18.668  0.00  0.00    +0.000 A 
ATOM     19  N   UNL     1       7.468   6.804  17.794  0.00  0.00    +0.000 N 
ATOM     20  C   UNL     1       7.908   8.172  17.812  0.00  0.00    +0.000 C 
ATOM     21  C   UNL     1       6.622   6.254  16.864  0.00  0.00    +0.000 A 
ATOM     22  O   UNL     1       6.074   6.826  15.936  0.00  0.00    +0.000 OA
ENDBRANCH  15  16
ENDBRANCH  14  15
ENDBRANCH   4  14
TORSDOF 6
ENDMDL
MODEL 5
REMARK VINA RESULT:      -6.2      3.367      5.816
REMARK  Name = 
REMARK  9 active torsions:
REMARK  status: ('A' for Active; 'I' for Inactive)
REMARK    1  A    between atoms: C_1  and  C_2
REMARK    2  A    between atoms: C_2  and  C_3
REMARK    3  A    between atoms: C_2  and  O_4
REMARK    4  A    between atoms: O_4  and  C_5
REMARK    5  A    between atoms: C_5  and  C_6
REMARK    6  A    between atoms: C_9  and  C_11
REMARK    7  A    between atoms: C_11  and  C_12
REMARK    8  A    between atoms: C_12  and  N_13
REMARK    9  A    between atoms: N_16  and  C_17
REMARK                            x       y       z     vdW  Elec       q    Type
REMARK                         _______ _______ _______ _____ _____    ______ ____
ROOT
ATOM      1  C   UNL     1       5.019   3.250  18.609  0.00  0.00    +0.000 C 
ATOM      2  C   UNL     1       4.167   3.872  17.486  0.00  0.00    +0.000 C 
ATOM      3  N   UNL     1       3.901   5.286  17.757  0.00  0.00    +0.000 N 
ATOM      4  C   UNL     1       2.604   5.783  17.828  0.00  0.00    +0.000 C 
ATOM      5  O   UNL     1       1.613   5.073  17.702  0.00  0.00    +0.000 OA
ATOM      6  C   UNL     1       5.123   6.062  18.012  0.00  0.00    +0.000 C 
ATOM      7  C   UNL     1       5.963   5.401  19.111  0.00  0.00    +0.000 C 
ATOM      8  O   UNL     1       6.221   4.018  18.837  0.00  0.00    +0.000 OA
ENDROOT
BRANCH   1   9
ATOM      9  C   UNL     1       4.209   3.034  19.895  0.00  0.00    +0.000 C 
BRANCH   9  10
ATOM     10  O   UNL     1       2.935   2.495  19.551  0.00  0.00    +0.000 OA
BRANCH  10  12
ATOM     11  C   UNL     1       2.244   4.114  21.129  0.00  0.00    +0.000 C 
ATOM     12  C   UNL     1       1.891   2.778  20.483  0.00  0.00    +0.000 C 
ATOM     13  C   UNL     1       0.541   2.882  19.781  0.00  0.00    +0.000 C 
ENDBRANCH  10  12
ENDBRANCH   9  10
ENDBRANCH   1   9
BRANCH   4  14
ATOM     14  C   UNL     1       2.492   7.278  18.055  0.00  0.00    +0.000 C 
BRANCH  14  15
ATOM     15  C   UNL     1       2.186   7.670  19.488  0.00  0.00    +0.000 C 
BRANCH  15  16
ATOM     16  N   UNL     1       1.398   8.887  19.533  0.00  0.00    +0.000 N 
ATOM     17  N   UNL     1       1.416   9.831  18.527  0.00  0.00    +0.000 NA
ATOM     18  C   UNL     1       0.664  10.782  18.984  0.00  0.00    +0.000 A 
ATOM     19  N   UNL     1       0.163  10.574  20.216  0.00  0.00    +0.000 N 
ATOM     20  C   UNL     1      -0.680  11.434  21.000  0.00  0.00    +0.000 C 
ATOM     21  C   UNL     1       0.653   9.358  20.621  0.00  0.00    +0.000 A 
ATOM     22  O   UNL     1       0.499   8.826  21.708  0.00  0.00    +0.000 OA
ENDBRANCH  15  16
ENDBRANCH  14  15
ENDBRANCH   4  14
TORSDOF 6
ENDMDL
MODEL 6
REMARK VINA RESULT:      -6.1      1.587      1.995
REMARK  Name = 
REMARK  9 active torsions:
REMARK  status: ('A' for Active; 'I' for Inactive)
REMARK    1  A    between atoms: C_1  and  C_2
REMARK    2  A    between atoms: C_2  and  C_3
REMARK    3  A    between atoms: C_2  and  O_4
REMARK    4  A    between atoms: O_4  and  C_5
REMARK    5  A    between atoms: C_5  and  C_6
REMARK    6  A    between atoms: C_9  and  C_11
REMARK    7  A    between atoms: C_11  and  C_12
REMARK    8  A    between atoms: C_12  and  N_13
REMARK    9  A    between atoms: N_16  and  C_17
REMARK                            x       y       z     vdW  Elec       q    Type
REMARK                         _______ _______ _______ _____ _____    ______ ____
ROOT
ATOM      1  C   UNL     1       7.500   5.232  17.413  0.00  0.00    +0.000 C 
ATOM      2  C   UNL     1       6.743   6.563  17.582  0.00  0.00    +0.000 C 
ATOM      3  N   UNL     1       5.398   6.332  18.114  0.00  0.00    +0.000 N 
ATOM      4  C   UNL     1       4.263   6.774  17.442  0.00  0.00    +0.000 C 
ATOM      5  O   UNL     1       4.313   7.348  16.361  0.00  0.00    +0.000 OA
ATOM      6  C   UNL     1       5.398   5.539  19.352  0.00  0.00    +0.000 C 
ATOM      7  C   UNL     1       6.185   4.239  19.161  0.00  0.00    +0.000 C 
ATOM      8  O   UNL     1       7.500   4.473  18.642  0.00  0.00    +0.000 OA
ENDROOT
BRANCH   1   9
ATOM      9  C   UNL     1       6.977   4.417  16.222  0.00  0.00    +0.000 C 
BRANCH   9  10
ATOM     10  O   UNL     1       7.289   5.113  15.017  0.00  0.00    +0.000 OA
BRANCH  10  12
ATOM     11  C   UNL     1       5.547   4.195  13.707  0.00  0.00    +0.000 C 
ATOM     12  C   UNL     1       7.058   4.371  13.819  0.00  0.00    +0.000 C 
ATOM     13  C   UNL     1       7.585   5.121  12.600  0.00  0.00    +0.000 C 
ENDBRANCH  10  12
ENDBRANCH   9  10
ENDBRANCH   1   9
BRANCH   4  14
ATOM     14  C   UNL     1       2.947   6.513  18.148  0.00  0.00    +0.000 C 
BRANCH  14  15
ATOM     15  C   UNL     1       2.225   5.263  17.681  0.00  0.00    +0.000 C 
BRANCH  15  16
ATOM     16  N   UNL     1       2.347   4.200  18.661  0.00  0.00    +0.000 N 
ATOM     17  N   UNL     1       2.960   2.995  18.389  0.00  0.00    +0.000 NA
ATOM     18  C   UNL     1       2.782   2.307  19.472  0.00  0.00    +0.000 A 
ATOM     19  N   UNL     1       2.083   2.932  20.439  0.00  0.00    +0.000 N 
ATOM     20  C   UNL     1       1.704   2.441  21.735  0.00  0.00    +0.000 C 
ATOM     21  C   UNL     1       1.751   4.161  19.927  0.00  0.00    +0.000 A 
ATOM     22  O   UNL     1       1.056   5.015  20.453  0.00  0.00    +0.000 OA
ENDBRANCH  15  16
ENDBRANCH  14  15
ENDBRANCH   4  14
TORSDOF 6
ENDMDL
MODEL 7
REMARK VINA RESULT:      -6.1      1.542      1.941
REMARK  Name = 
REMARK  9 active torsions:
REMARK  status: ('A' for Active; 'I' for Inactive)
REMARK    1  A    between atoms: C_1  and  C_2
REMARK    2  A    between atoms: C_2  and  C_3
REMARK    3  A    between atoms: C_2  and  O_4
REMARK    4  A    between atoms: O_4  and  C_5
REMARK    5  A    between atoms: C_5  and  C_6
REMARK    6  A    between atoms: C_9  and  C_11
REMARK    7  A    between atoms: C_11  and  C_12
REMARK    8  A    between atoms: C_12  and  N_13
REMARK    9  A    between atoms: N_16  and  C_17
REMARK                            x       y       z     vdW  Elec       q    Type
REMARK                         _______ _______ _______ _____ _____    ______ ____
ROOT
ATOM      1  C   UNL     1       6.213   5.582  14.960  0.00  0.00    +0.000 C 
ATOM      2  C   UNL     1       5.526   6.564  15.929  0.00  0.00    +0.000 C 
ATOM      3  N   UNL     1       5.596   6.070  17.306  0.00  0.00    +0.000 N 
ATOM      4  C   UNL     1       4.449   5.874  18.068  0.00  0.00    +0.000 C 
ATOM      5  O   UNL     1       3.321   6.069  17.633  0.00  0.00    +0.000 OA
ATOM      6  C   UNL     1       6.965   5.745  17.731  0.00  0.00    +0.000 C 
ATOM      7  C   UNL     1       7.631   4.794  16.731  0.00  0.00    +0.000 C 
ATOM      8  O   UNL     1       7.560   5.286  15.387  0.00  0.00    +0.000 OA
ENDROOT
BRANCH   1   9
ATOM      9  C   UNL     1       5.377   4.315  14.735  0.00  0.00    +0.000 C 
BRANCH   9  10
ATOM     10  O   UNL     1       6.086   3.448  13.851  0.00  0.00    +0.000 OA
BRANCH  10  12
ATOM     11  C   UNL     1       7.214   4.119  11.884  0.00  0.00    +0.000 C 
ATOM     12  C   UNL     1       5.867   3.698  12.462  0.00  0.00    +0.000 C 
ATOM     13  C   UNL     1       5.366   2.445  11.751  0.00  0.00    +0.000 C 
ENDBRANCH  10  12
ENDBRANCH   9  10
ENDBRANCH   1   9
BRANCH   4  14
ATOM     14  C   UNL     1       4.687   5.416  19.494  0.00  0.00    +0.000 C 
BRANCH  14  15
ATOM     15  C   UNL     1       4.904   3.922  19.642  0.00  0.00    +0.000 C 
BRANCH  15  16
ATOM     16  N   UNL     1       3.780   3.182  19.099  0.00  0.00    +0.000 N 
ATOM     17  N   UNL     1       3.835   2.512  17.894  0.00  0.00    +0.000 NA
ATOM     18  C   UNL     1       2.628   2.069  17.734  0.00  0.00    +0.000 A 
ATOM     19  N   UNL     1       1.762   2.400  18.710  0.00  0.00    +0.000 N 
ATOM     20  C   UNL     1       0.364   2.082  18.818  0.00  0.00    +0.000 C 
ATOM     21  C   UNL     1       2.474   3.160  19.603  0.00  0.00    +0.000 A 
ATOM     22  O   UNL     1       2.048   3.722  20.598  0.00  0.00    +0.000 OA
ENDBRANCH  15  16
ENDBRANCH  14  15
ENDBRANCH   4  14
TORSDOF 6
ENDMDL
MODEL 8
REMARK VINA RESULT:      -6.1      3.828      5.355
REMARK  Name = 
REMARK  9 active torsions:
REMARK  status: ('A' for Active; 'I' for Inactive)
REMARK    1  A    between atoms: C_1  and  C_2
REMARK    2  A    between atoms: C_2  and  C_3
REMARK    3  A    between atoms: C_2  and  O_4
REMARK    4  A    between atoms: O_4  and  C_5
REMARK    5  A    between atoms: C_5  and  C_6
REMARK    6  A    between atoms: C_9  and  C_11
REMARK    7  A    between atoms: C_11  and  C_12
REMARK    8  A    between atoms: C_12  and  N_13
REMARK    9  A    between atoms: N_16  and  C_17
REMARK                            x       y       z     vdW  Elec       q    Type
REMARK                         _______ _______ _______ _____ _____    ______ ____
ROOT
ATOM      1  C   UNL     1       4.326   3.841  18.606  0.00  0.00    +0.000 C 
ATOM      2  C   UNL     1       4.601   5.311  18.976  0.00  0.00    +0.000 C 
ATOM      3  N   UNL     1       3.349   6.063  19.083  0.00  0.00    +0.000 N 
ATOM      4  C   UNL     1       3.117   7.205  18.322  0.00  0.00    +0.000 C 
ATOM      5  O   UNL     1       3.922   7.631  17.502  0.00  0.00    +0.000 OA
ATOM      6  C   UNL     1       2.379   5.440  19.995  0.00  0.00    +0.000 C 
ATOM      7  C   UNL     1       2.153   3.971  19.621  0.00  0.00    +0.000 C 
ATOM      8  O   UNL     1       3.382   3.242  19.521  0.00  0.00    +0.000 OA
ENDROOT
BRANCH   1   9
ATOM      9  C   UNL     1       3.900   3.684  17.140  0.00  0.00    +0.000 C 
BRANCH   9  10
ATOM     10  O   UNL     1       4.731   4.512  16.329  0.00  0.00    +0.000 OA
BRANCH  10  12
ATOM     11  C   UNL     1       5.949   4.067  14.352  0.00  0.00    +0.000 C 
ATOM     12  C   UNL     1       5.931   3.889  15.867  0.00  0.00    +0.000 C 
ATOM     13  C   UNL     1       7.162   4.547  16.481  0.00  0.00    +0.000 C 
ENDBRANCH  10  12
ENDBRANCH   9  10
ENDBRANCH   1   9
BRANCH   4  14
ATOM     14  C   UNL     1       1.800   7.907  18.588  0.00  0.00    +0.000 C 
BRANCH  14  15
ATOM     15  C   UNL     1       1.668   9.262  17.919  0.00  0.00    +0.000 C 
BRANCH  15  16
ATOM     16  N   UNL     1       0.443   9.923  18.328  0.00  0.00    +0.000 N 
ATOM     17  N   UNL     1      -0.727   9.852  17.600  0.00  0.00    +0.000 NA
ATOM     18  C   UNL     1      -1.537  10.633  18.242  0.00  0.00    +0.000 A 
ATOM     19  N   UNL     1      -1.010  11.241  19.322  0.00  0.00    +0.000 N 
ATOM     20  C   UNL     1      -1.633  12.169  20.225  0.00  0.00    +0.000 C 
ATOM     21  C   UNL     1       0.297  10.827  19.386  0.00  0.00    +0.000 A 
ATOM     22  O   UNL     1       1.150  11.197  20.176  0.00  0.00    +0.000 OA
ENDBRANCH  15  16
ENDBRANCH  14  15
ENDBRANCH   4  14
TORSDOF 6
ENDMDL
MODEL 9
REMARK VINA RESULT:      -6.0      3.350      5.856
REMARK  Name = 
REMARK  9 active torsions:
REMARK  status: ('A' for Active; 'I' for Inactive)
REMARK    1  A    between atoms: C_1  and  C_2
REMARK    2  A    between atoms: C_2  and  C_3
REMARK    3  A    between atoms: C_2  and  O_4
REMARK    4  A    between atoms: O_4  and  C_5
REMARK    5  A    between atoms: C_5  and  C_6
REMARK    6  A    between atoms: C_9  and  C_11
REMARK    7  A    between atoms: C_11  and  C_12
REMARK    8  A    between atoms: C_12  and  N_13
REMARK    9  A    between atoms: N_16  and  C_17
REMARK                            x       y       z     vdW  Elec       q    Type
REMARK                         _______ _______ _______ _____ _____    ______ ____
ROOT
ATOM      1  C   UNL     1       4.780   3.492  18.529  0.00  0.00    +0.000 C 
ATOM      2  C   UNL     1       3.978   4.267  17.466  0.00  0.00    +0.000 C 
ATOM      3  N   UNL     1       3.986   5.703  17.752  0.00  0.00    +0.000 N 
ATOM      4  C   UNL     1       2.805   6.421  17.911  0.00  0.00    +0.000 C 
ATOM      5  O   UNL     1       1.698   5.899  17.854  0.00  0.00    +0.000 OA
ATOM      6  C   UNL     1       5.341   6.248  17.923  0.00  0.00    +0.000 C 
ATOM      7  C   UNL     1       6.122   5.436  18.963  0.00  0.00    +0.000 C 
ATOM      8  O   UNL     1       6.111   4.033  18.674  0.00  0.00    +0.000 OA
ENDROOT
BRANCH   1   9
ATOM      9  C   UNL     1       4.033   3.409  19.868  0.00  0.00    +0.000 C 
BRANCH   9  10
ATOM     10  O   UNL     1       2.700   2.964  19.624  0.00  0.00    +0.000 OA
BRANCH  10  12
ATOM     11  C   UNL     1       1.457   2.504  21.581  0.00  0.00    +0.000 C 
ATOM     12  C   UNL     1       1.711   3.531  20.483  0.00  0.00    +0.000 C 
ATOM     13  C   UNL     1       2.203   4.837  21.098  0.00  0.00    +0.000 C 
ENDBRANCH  10  12
ENDBRANCH   9  10
ENDBRANCH   1   9
BRANCH   4  14
ATOM     14  C   UNL     1       2.976   7.910  18.144  0.00  0.00    +0.000 C 
BRANCH  14  15
ATOM     15  C   UNL     1       1.798   8.751  17.692  0.00  0.00    +0.000 C 
BRANCH  15  16
ATOM     16  N   UNL     1       1.337   9.613  18.764  0.00  0.00    +0.000 N 
ATOM     17  N   UNL     1       1.336  10.989  18.674  0.00  0.00    +0.000 NA
ATOM     18  C   UNL     1       0.945  11.375  19.847  0.00  0.00    +0.000 A 
ATOM     19  N   UNL     1       0.705  10.383  20.725  0.00  0.00    +0.000 N 
ATOM     20  C   UNL     1       0.281  10.477  22.095  0.00  0.00    +0.000 C 
ATOM     21  C   UNL     1       0.987   9.216  20.060  0.00  0.00    +0.000 A 
ATOM     22  O   UNL     1       0.970   8.085  20.517  0.00  0.00    +0.000 OA
ENDBRANCH  15  16
ENDBRANCH  14  15
ENDBRANCH   4  14
TORSDOF 6
ENDMDL
