MODEL 1
REMARK VINA RESULT:      -7.6      0.000      0.000
REMARK  Name = 
REMARK  4 active torsions:
REMARK  status: ('A' for Active; 'I' for Inactive)
REMARK    1  A    between atoms: N_2  and  C_4
REMARK    2  A    between atoms: C_7  and  S_8
REMARK    3  A    between atoms: S_8  and  O_11
REMARK    4  A    between atoms: O_11  and  C_12
REMARK                            x       y       z     vdW  Elec       q    Type
REMARK                         _______ _______ _______ _____ _____    ______ ____
ROOT
ATOM      1  S   UNL     1       5.413   5.982  17.611  0.00  0.00    +0.000 S 
ATOM      2  O   UNL     1       5.694   5.011  18.652  0.00  0.00    +0.000 OA
ATOM      3  O   UNL     1       6.120   7.247  17.496  0.00  0.00    +0.000 OA
ENDROOT
BRANCH   1   7
ATOM      4  C   UNL     1       6.349   4.089  13.563  0.00  0.00    +0.000 A 
ATOM      5  C   UNL     1       7.339   4.832  14.226  0.00  0.00    +0.000 A 
ATOM      6  C   UNL     1       7.077   5.356  15.495  0.00  0.00    +0.000 A 
ATOM      7  C   UNL     1       5.831   5.124  16.090  0.00  0.00    +0.000 A 
ATOM      8  C   UNL     1       4.845   4.376  15.429  0.00  0.00    +0.000 A 
ATOM      9  C   UNL     1       5.104   3.856  14.161  0.00  0.00    +0.000 A 
BRANCH   4  11
ATOM     10  O   UNL     1       5.992   2.554  11.854  0.00  0.00    +0.000 OA
ATOM     11  N   UNL     1       6.612   3.569  12.214  0.00  0.00    +0.000 N 
ATOM     12  O   UNL     1       7.433   4.175  11.512  0.00  0.00    +0.000 OA
ENDBRANCH   4  11
ENDBRANCH   1   7
BRANCH   1  13
ATOM     13  O   UNL     1       3.796   6.215  17.493  0.00  0.00    +0.000 OA
BRANCH  13  14
ATOM     14  C   UNL     1       2.909   5.864  18.500  0.00  0.00    +0.000 A 
ATOM     15  C   UNL     1       2.657   6.895  19.422  0.00  0.00    +0.000 A 
ATOM     16  C   UNL     1       1.839   6.669  20.526  0.00  0.00    +0.000 A 
ATOM     17  C   UNL     1       1.324   5.397  20.749  0.00  0.00    +0.000 A 
ATOM     18  C   UNL     1       1.590   4.356  19.846  0.00  0.00    +0.000 A 
ATOM     19  C   UNL     1       1.170   3.043  20.110  0.00  0.00    +0.000 A 
ATOM     20  C   UNL     1       1.436   2.026  19.199  0.00  0.00    +0.000 A 
ATOM     21  C   UNL     1       2.046   2.376  18.018  0.00  0.00    +0.000 A 
ATOM     22  N   UNL     1       2.463   3.627  17.748  0.00  0.00    +0.000 NA
ATOM     23  C   UNL     1       2.320   4.600  18.664  0.00  0.00    +0.000 A 
ENDBRANCH  13  14
ENDBRANCH   1  13
TORSDOF 4
ENDMDL
MODEL 2
REMARK VINA RESULT:      -7.6      3.275      6.956
REMARK  Name = 
REMARK  4 active torsions:
REMARK  status: ('A' for Active; 'I' for Inactive)
REMARK    1  A    between atoms: N_2  and  C_4
REMARK    2  A    between atoms: C_7  and  S_8
REMARK    3  A    between atoms: S_8  and  O_11
REMARK    4  A    between atoms: O_11  and  C_12
REMARK                            x       y       z     vdW  Elec       q    Type
REMARK                         _______ _______ _______ _____ _____    ______ ____
ROOT
ATOM      1  S   UNL     1       2.718   2.988  18.219  0.00  0.00    +0.000 S 
ATOM      2  O   UNL     1       2.378   2.092  19.309  0.00  0.00    +0.000 OA
ATOM      3  O   UNL     1       1.959   3.052  16.981  0.00  0.00    +0.000 OA
ENDROOT
BRANCH   1   7
ATOM      4  C   UNL     1       1.856   7.134  19.924  0.00  0.00    +0.000 A 
ATOM      5  C   UNL     1       1.810   6.014  20.770  0.00  0.00    +0.000 A 
ATOM      6  C   UNL     1       2.139   4.752  20.265  0.00  0.00    +0.000 A 
ATOM      7  C   UNL     1       2.518   4.627  18.923  0.00  0.00    +0.000 A 
ATOM      8  C   UNL     1       2.570   5.748  18.082  0.00  0.00    +0.000 A 
ATOM      9  C   UNL     1       2.238   7.007  18.583  0.00  0.00    +0.000 A 
BRANCH   4  11
ATOM     10  O   UNL     1       1.447   8.604  21.679  0.00  0.00    +0.000 OA
ATOM     11  N   UNL     1       1.476   8.454  20.445  0.00  0.00    +0.000 N 
ATOM     12  O   UNL     1       1.209   9.343  19.625  0.00  0.00    +0.000 OA
ENDBRANCH   4  11
ENDBRANCH   1   7
BRANCH   1  13
ATOM     13  O   UNL     1       4.323   2.893  17.906  0.00  0.00    +0.000 OA
BRANCH  13  14
ATOM     14  C   UNL     1       5.017   3.882  17.224  0.00  0.00    +0.000 A 
ATOM     15  C   UNL     1       4.783   3.892  15.838  0.00  0.00    +0.000 A 
ATOM     16  C   UNL     1       5.461   4.785  15.014  0.00  0.00    +0.000 A 
ATOM     17  C   UNL     1       6.424   5.628  15.561  0.00  0.00    +0.000 A 
ATOM     18  C   UNL     1       6.681   5.609  16.941  0.00  0.00    +0.000 A 
ATOM     19  C   UNL     1       7.721   6.371  17.495  0.00  0.00    +0.000 A 
ATOM     20  C   UNL     1       7.954   6.345  18.866  0.00  0.00    +0.000 A 
ATOM     21  C   UNL     1       7.088   5.615  19.643  0.00  0.00    +0.000 A 
ATOM     22  N   UNL     1       6.089   4.872  19.132  0.00  0.00    +0.000 NA
ATOM     23  C   UNL     1       5.918   4.790  17.802  0.00  0.00    +0.000 A 
ENDBRANCH  13  14
ENDBRANCH   1  13
TORSDOF 4
ENDMDL
MODEL 3
REMARK VINA RESULT:      -7.5      1.534      2.063
REMARK  Name = 
REMARK  4 active torsions:
REMARK  status: ('A' for Active; 'I' for Inactive)
REMARK    1  A    between atoms: N_2  and  C_4
REMARK    2  A    between atoms: C_7  and  S_8
REMARK    3  A    between atoms: S_8  and  O_11
REMARK    4  A    between atoms: O_11  and  C_12
REMARK                            x       y       z     vdW  Elec       q    Type
REMARK                         _______ _______ _______ _____ _____    ______ ____
ROOT
ATOM      1  S   UNL     1       7.377   4.986  17.774  0.00  0.00    +0.000 S 
ATOM      2  O   UNL     1       8.496   4.084  17.974  0.00  0.00    +0.000 OA
ATOM      3  O   UNL     1       7.516   6.433  17.778  0.00  0.00    +0.000 OA
ENDROOT
BRANCH   1   7
ATOM      4  C   UNL     1       6.207   3.797  13.524  0.00  0.00    +0.000 A 
ATOM      5  C   UNL     1       5.543   3.213  14.615  0.00  0.00    +0.000 A 
ATOM      6  C   UNL     1       5.852   3.625  15.914  0.00  0.00    +0.000 A 
ATOM      7  C   UNL     1       6.817   4.621  16.107  0.00  0.00    +0.000 A 
ATOM      8  C   UNL     1       7.475   5.208  15.016  0.00  0.00    +0.000 A 
ATOM      9  C   UNL     1       7.169   4.795  13.719  0.00  0.00    +0.000 A 
BRANCH   4  11
ATOM     10  O   UNL     1       4.730   3.418  11.769  0.00  0.00    +0.000 OA
ATOM     11  N   UNL     1       5.907   3.339  12.160  0.00  0.00    +0.000 N 
ATOM     12  O   UNL     1       6.845   2.904  11.478  0.00  0.00    +0.000 OA
ENDBRANCH   4  11
ENDBRANCH   1   7
BRANCH   1  13
ATOM     13  O   UNL     1       6.119   4.526  18.716  0.00  0.00    +0.000 OA
BRANCH  13  14
ATOM     14  C   UNL     1       4.804   4.863  18.433  0.00  0.00    +0.000 A 
ATOM     15  C   UNL     1       4.604   6.234  18.198  0.00  0.00    +0.000 A 
ATOM     16  C   UNL     1       3.324   6.731  17.967  0.00  0.00    +0.000 A 
ATOM     17  C   UNL     1       2.232   5.873  18.036  0.00  0.00    +0.000 A 
ATOM     18  C   UNL     1       2.420   4.506  18.294  0.00  0.00    +0.000 A 
ATOM     19  C   UNL     1       1.326   3.646  18.475  0.00  0.00    +0.000 A 
ATOM     20  C   UNL     1       1.533   2.292  18.722  0.00  0.00    +0.000 A 
ATOM     21  C   UNL     1       2.828   1.835  18.702  0.00  0.00    +0.000 A 
ATOM     22  N   UNL     1       3.892   2.643  18.538  0.00  0.00    +0.000 NA
ATOM     23  C   UNL     1       3.720   3.970  18.414  0.00  0.00    +0.000 A 
ENDBRANCH  13  14
ENDBRANCH   1  13
TORSDOF 4
ENDMDL
MODEL 4
REMARK VINA RESULT:      -7.5      3.231      4.907
REMARK  Name = 
REMARK  4 active torsions:
REMARK  status: ('A' for Active; 'I' for Inactive)
REMARK    1  A    between atoms: N_2  and  C_4
REMARK    2  A    between atoms: C_7  and  S_8
REMARK    3  A    between atoms: S_8  and  O_11
REMARK    4  A    between atoms: O_11  and  C_12
REMARK                            x       y       z     vdW  Elec       q    Type
REMARK                         _______ _______ _______ _____ _____    ______ ____
ROOT
ATOM      1  S   UNL     1       2.353   4.952  20.062  0.00  0.00    +0.000 S 
ATOM      2  O   UNL     1       1.161   4.856  19.240  0.00  0.00    +0.000 OA
ATOM      3  O   UNL     1       2.610   4.074  21.191  0.00  0.00    +0.000 OA
ENDROOT
BRANCH   1   7
ATOM      4  C   UNL     1       5.713   4.348  17.030  0.00  0.00    +0.000 A 
ATOM      5  C   UNL     1       6.011   4.863  18.302  0.00  0.00    +0.000 A 
ATOM      6  C   UNL     1       4.996   4.985  19.254  0.00  0.00    +0.000 A 
ATOM      7  C   UNL     1       3.695   4.585  18.927  0.00  0.00    +0.000 A 
ATOM      8  C   UNL     1       3.400   4.065  17.658  0.00  0.00    +0.000 A 
ATOM      9  C   UNL     1       4.411   3.945  16.705  0.00  0.00    +0.000 A 
BRANCH   4  11
ATOM     10  O   UNL     1       6.446   3.919  14.865  0.00  0.00    +0.000 OA
ATOM     11  N   UNL     1       6.773   4.252  16.017  0.00  0.00    +0.000 N 
ATOM     12  O   UNL     1       7.932   4.511  16.369  0.00  0.00    +0.000 OA
ENDBRANCH   4  11
ENDBRANCH   1   7
BRANCH   1  13
ATOM     13  O   UNL     1       2.613   6.515  20.477  0.00  0.00    +0.000 OA
BRANCH  13  14
ATOM     14  C   UNL     1       2.055   7.581  19.787  0.00  0.00    +0.000 A 
ATOM     15  C   UNL     1       2.512   7.706  18.464  0.00  0.00    +0.000 A 
ATOM     16  C   UNL     1       2.091   8.768  17.669  0.00  0.00    +0.000 A 
ATOM     17  C   UNL     1       1.265   9.746  18.213  0.00  0.00    +0.000 A 
ATOM     18  C   UNL     1       0.823   9.643  19.541  0.00  0.00    +0.000 A 
ATOM     19  C   UNL     1       0.080  10.672  20.140  0.00  0.00    +0.000 A 
ATOM     20  C   UNL     1      -0.356  10.546  21.455  0.00  0.00    +0.000 A 
ATOM     21  C   UNL     1      -0.097   9.361  22.099  0.00  0.00    +0.000 A 
ATOM     22  N   UNL     1       0.619   8.364  21.546  0.00  0.00    +0.000 NA
ATOM     23  C   UNL     1       1.149   8.511  20.320  0.00  0.00    +0.000 A 
ENDBRANCH  13  14
ENDBRANCH   1  13
TORSDOF 4
ENDMDL
MODEL 5
REMARK VINA RESULT:      -7.4      2.992      4.481
REMARK  Name = 
REMARK  4 active torsions:
REMARK  status: ('A' for Active; 'I' for Inactive)
REMARK    1  A    between atoms: N_2  and  C_4
REMARK    2  A    between atoms: C_7  and  S_8
REMARK    3  A    between atoms: S_8  and  O_11
REMARK    4  A    between atoms: O_11  and  C_12
REMARK                            x       y       z     vdW  Elec       q    Type
REMARK                         _______ _______ _______ _____ _____    ______ ____
ROOT
ATOM      1  S   UNL     1       5.812   4.574  17.582  0.00  0.00    +0.000 S 
ATOM      2  O   UNL     1       6.335   3.924  16.395  0.00  0.00    +0.000 OA
ATOM      3  O   UNL     1       5.842   3.961  18.899  0.00  0.00    +0.000 OA
ENDROOT
BRANCH   1   7
ATOM      4  C   UNL     1       8.187   8.408  18.294  0.00  0.00    +0.000 A 
ATOM      5  C   UNL     1       8.462   7.268  19.067  0.00  0.00    +0.000 A 
ATOM      6  C   UNL     1       7.784   6.074  18.806  0.00  0.00    +0.000 A 
ATOM      7  C   UNL     1       6.843   6.032  17.770  0.00  0.00    +0.000 A 
ATOM      8  C   UNL     1       6.574   7.170  16.994  0.00  0.00    +0.000 A 
ATOM      9  C   UNL     1       7.248   8.363  17.256  0.00  0.00    +0.000 A 
BRANCH   4  11
ATOM     10  O   UNL     1       9.163  10.413  17.637  0.00  0.00    +0.000 OA
ATOM     11  N   UNL     1       8.874   9.672  18.592  0.00  0.00    +0.000 N 
ATOM     12  O   UNL     1       9.123   9.927  19.778  0.00  0.00    +0.000 OA
ENDBRANCH   4  11
ENDBRANCH   1   7
BRANCH   1  13
ATOM     13  O   UNL     1       4.326   5.188  17.267  0.00  0.00    +0.000 OA
BRANCH  13  14
ATOM     14  C   UNL     1       3.365   5.376  18.250  0.00  0.00    +0.000 A 
ATOM     15  C   UNL     1       3.272   6.700  18.711  0.00  0.00    +0.000 A 
ATOM     16  C   UNL     1       2.399   7.028  19.744  0.00  0.00    +0.000 A 
ATOM     17  C   UNL     1       1.663   6.024  20.365  0.00  0.00    +0.000 A 
ATOM     18  C   UNL     1       1.767   4.694  19.926  0.00  0.00    +0.000 A 
ATOM     19  C   UNL     1       1.118   3.654  20.608  0.00  0.00    +0.000 A 
ATOM     20  C   UNL     1       1.227   2.344  20.152  0.00  0.00    +0.000 A 
ATOM     21  C   UNL     1       1.920   2.134  18.985  0.00  0.00    +0.000 A 
ATOM     22  N   UNL     1       2.556   3.116  18.319  0.00  0.00    +0.000 NA
ATOM     23  C   UNL     1       2.561   4.369  18.805  0.00  0.00    +0.000 A 
ENDBRANCH  13  14
ENDBRANCH   1  13
TORSDOF 4
ENDMDL
MODEL 6
REMARK VINA RESULT:      -7.3      2.982      4.521
REMARK  Name = 
REMARK  4 active torsions:
REMARK  status: ('A' for Active; 'I' for Inactive)
REMARK    1  A    between atoms: N_2  and  C_4
REMARK    2  A    between atoms: C_7  and  S_8
REMARK    3  A    between atoms: S_8  and  O_11
REMARK    4  A    between atoms: O_11  and  C_12
REMARK                            x       y       z     vdW  Elec       q    Type
REMARK                         _______ _______ _______ _____ _____    ______ ____
ROOT
ATOM      1  S   UNL     1       2.825   5.615  19.002  0.00  0.00    +0.000 S 
ATOM      2  O   UNL     1       1.583   5.435  18.274  0.00  0.00    +0.000 OA
ATOM      3  O   UNL     1       3.239   4.743  20.089  0.00  0.00    +0.000 OA
ENDROOT
BRANCH   1   7
ATOM      4  C   UNL     1       5.795   4.982  15.592  0.00  0.00    +0.000 A 
ATOM      5  C   UNL     1       5.452   6.288  15.980  0.00  0.00    +0.000 A 
ATOM      6  C   UNL     1       4.596   6.485  17.067  0.00  0.00    +0.000 A 
ATOM      7  C   UNL     1       4.098   5.374  17.758  0.00  0.00    +0.000 A 
ATOM      8  C   UNL     1       4.446   4.071  17.375  0.00  0.00    +0.000 A 
ATOM      9  C   UNL     1       5.298   3.873  16.288  0.00  0.00    +0.000 A 
BRANCH   4  11
ATOM     10  O   UNL     1       7.722   5.427  14.371  0.00  0.00    +0.000 OA
ATOM     11  N   UNL     1       6.666   4.774  14.428  0.00  0.00    +0.000 N 
ATOM     12  O   UNL     1       6.300   3.958  13.572  0.00  0.00    +0.000 OA
ENDBRANCH   4  11
ENDBRANCH   1   7
BRANCH   1  13
ATOM     13  O   UNL     1       2.993   7.188  19.430  0.00  0.00    +0.000 OA
BRANCH  13  14
ATOM     14  C   UNL     1       1.993   8.130  19.241  0.00  0.00    +0.000 A 
ATOM     15  C   UNL     1       1.818   8.516  17.901  0.00  0.00    +0.000 A 
ATOM     16  C   UNL     1       0.896   9.504  17.566  0.00  0.00    +0.000 A 
ATOM     17  C   UNL     1       0.194  10.157  18.574  0.00  0.00    +0.000 A 
ATOM     18  C   UNL     1       0.380   9.795  19.917  0.00  0.00    +0.000 A 
ATOM     19  C   UNL     1      -0.236  10.513  20.953  0.00  0.00    +0.000 A 
ATOM     20  C   UNL     1      -0.046  10.133  22.278  0.00  0.00    +0.000 A 
ATOM     21  C   UNL     1       0.694   9.000  22.512  0.00  0.00    +0.000 A 
ATOM     22  N   UNL     1       1.299   8.300  21.534  0.00  0.00    +0.000 NA
ATOM     23  C   UNL     1       1.224   8.717  20.259  0.00  0.00    +0.000 A 
ENDBRANCH  13  14
ENDBRANCH   1  13
TORSDOF 4
ENDMDL
MODEL 7
REMARK VINA RESULT:      -7.3      2.946      4.529
REMARK  Name = 
REMARK  4 active torsions:
REMARK  status: ('A' for Active; 'I' for Inactive)
REMARK    1  A    between atoms: N_2  and  C_4
REMARK    2  A    between atoms: C_7  and  S_8
REMARK    3  A    between atoms: S_8  and  O_11
REMARK    4  A    between atoms: O_11  and  C_12
REMARK                            x       y       z     vdW  Elec       q    Type
REMARK                         _______ _______ _______ _____ _____    ______ ____
ROOT
ATOM      1  S   UNL     1       2.859   5.408  19.128  0.00  0.00    +0.000 S 
ATOM      2  O   UNL     1       1.513   5.197  18.627  0.00  0.00    +0.000 OA
ATOM      3  O   UNL     1       3.498   4.517  20.082  0.00  0.00    +0.000 OA
ENDROOT
BRANCH   1   7
ATOM      4  C   UNL     1       5.770   5.005  15.634  0.00  0.00    +0.000 A 
ATOM      5  C   UNL     1       5.047   3.882  16.068  0.00  0.00    +0.000 A 
ATOM      6  C   UNL     1       4.106   4.017  17.092  0.00  0.00    +0.000 A 
ATOM      7  C   UNL     1       3.893   5.276  17.667  0.00  0.00    +0.000 A 
ATOM      8  C   UNL     1       4.611   6.398  17.229  0.00  0.00    +0.000 A 
ATOM      9  C   UNL     1       5.553   6.264  16.208  0.00  0.00    +0.000 A 
BRANCH   4  11
ATOM     10  O   UNL     1       6.545   4.063  13.655  0.00  0.00    +0.000 OA
ATOM     11  N   UNL     1       6.784   4.856  14.582  0.00  0.00    +0.000 N 
ATOM     12  O   UNL     1       7.819   5.531  14.677  0.00  0.00    +0.000 OA
ENDBRANCH   4  11
ENDBRANCH   1   7
BRANCH   1  13
ATOM     13  O   UNL     1       3.038   6.970  19.590  0.00  0.00    +0.000 OA
BRANCH  13  14
ATOM     14  C   UNL     1       2.087   7.946  19.332  0.00  0.00    +0.000 A 
ATOM     15  C   UNL     1       1.965   8.279  17.972  0.00  0.00    +0.000 A 
ATOM     16  C   UNL     1       1.098   9.290  17.568  0.00  0.00    +0.000 A 
ATOM     17  C   UNL     1       0.398  10.016  18.526  0.00  0.00    +0.000 A 
ATOM     18  C   UNL     1       0.531   9.706  19.889  0.00  0.00    +0.000 A 
ATOM     19  C   UNL     1      -0.080  10.496  20.875  0.00  0.00    +0.000 A 
ATOM     20  C   UNL     1       0.057  10.167  22.219  0.00  0.00    +0.000 A 
ATOM     21  C   UNL     1       0.739   9.014  22.524  0.00  0.00    +0.000 A 
ATOM     22  N   UNL     1       1.339   8.246  21.595  0.00  0.00    +0.000 NA
ATOM     23  C   UNL     1       1.317   8.609  20.301  0.00  0.00    +0.000 A 
ENDBRANCH  13  14
ENDBRANCH   1  13
TORSDOF 4
ENDMDL
MODEL 8
REMARK VINA RESULT:      -7.3      2.990      6.859
REMARK  Name = 
REMARK  4 active torsions:
REMARK  status: ('A' for Active; 'I' for Inactive)
REMARK    1  A    between atoms: N_2  and  C_4
REMARK    2  A    between atoms: C_7  and  S_8
REMARK    3  A    between atoms: S_8  and  O_11
REMARK    4  A    between atoms: O_11  and  C_12
REMARK                            x       y       z     vdW  Elec       q    Type
REMARK                         _______ _______ _______ _____ _____    ______ ____
ROOT
ATOM      1  S   UNL     1       2.573   3.319  18.137  0.00  0.00    +0.000 S 
ATOM      2  O   UNL     1       1.741   2.443  18.941  0.00  0.00    +0.000 OA
ATOM      3  O   UNL     1       2.307   3.596  16.735  0.00  0.00    +0.000 OA
ENDROOT
BRANCH   1   7
ATOM      4  C   UNL     1       1.799   7.401  20.029  0.00  0.00    +0.000 A 
ATOM      5  C   UNL     1       1.636   6.238  20.799  0.00  0.00    +0.000 A 
ATOM      6  C   UNL     1       1.937   4.992  20.242  0.00  0.00    +0.000 A 
ATOM      7  C   UNL     1       2.405   4.923  18.925  0.00  0.00    +0.000 A 
ATOM      8  C   UNL     1       2.574   6.086  18.159  0.00  0.00    +0.000 A 
ATOM      9  C   UNL     1       2.271   7.331  18.712  0.00  0.00    +0.000 A 
BRANCH   4  11
ATOM     10  O   UNL     1       1.137   9.620  19.818  0.00  0.00    +0.000 OA
ATOM     11  N   UNL     1       1.449   8.708  20.602  0.00  0.00    +0.000 N 
ATOM     12  O   UNL     1       1.482   8.824  21.835  0.00  0.00    +0.000 OA
ENDBRANCH   4  11
ENDBRANCH   1   7
BRANCH   1  13
ATOM     13  O   UNL     1       4.151   2.941  18.359  0.00  0.00    +0.000 OA
BRANCH  13  14
ATOM     14  C   UNL     1       5.178   3.853  18.166  0.00  0.00    +0.000 A 
ATOM     15  C   UNL     1       5.549   4.549  19.329  0.00  0.00    +0.000 A 
ATOM     16  C   UNL     1       6.520   5.545  19.277  0.00  0.00    +0.000 A 
ATOM     17  C   UNL     1       7.077   5.895  18.051  0.00  0.00    +0.000 A 
ATOM     18  C   UNL     1       6.695   5.221  16.880  0.00  0.00    +0.000 A 
ATOM     19  C   UNL     1       7.164   5.632  15.622  0.00  0.00    +0.000 A 
ATOM     20  C   UNL     1       6.780   4.946  14.475  0.00  0.00    +0.000 A 
ATOM     21  C   UNL     1       6.002   3.826  14.636  0.00  0.00    +0.000 A 
ATOM     22  N   UNL     1       5.536   3.418  15.831  0.00  0.00    +0.000 NA
ATOM     23  C   UNL     1       5.799   4.133  16.938  0.00  0.00    +0.000 A 
ENDBRANCH  13  14
ENDBRANCH   1  13
TORSDOF 4
ENDMDL
MODEL 9
REMARK VINA RESULT:      -7.3      3.138      6.419
REMARK  Name = 
REMARK  4 active torsions:
REMARK  status: ('A' for Active; 'I' for Inactive)
REMARK    1  A    between atoms: N_2  and  C_4
REMARK    2  A    between atoms: C_7  and  S_8
REMARK    3  A    between atoms: S_8  and  O_11
REMARK    4  A    between atoms: O_11  and  C_12
REMARK                            x       y       z     vdW  Elec       q    Type
REMARK                         _______ _______ _______ _____ _____    ______ ____
ROOT
ATOM      1  S   UNL     1       3.618   3.558  19.071  0.00  0.00    +0.000 S 
ATOM      2  O   UNL     1       3.079   3.139  20.351  0.00  0.00    +0.000 OA
ATOM      3  O   UNL     1       3.144   3.033  17.801  0.00  0.00    +0.000 OA
ENDROOT
BRANCH   1   7
ATOM      4  C   UNL     1       2.265   7.906  18.730  0.00  0.00    +0.000 A 
ATOM      5  C   UNL     1       2.144   7.236  19.959  0.00  0.00    +0.000 A 
ATOM      6  C   UNL     1       2.619   5.928  20.084  0.00  0.00    +0.000 A 
ATOM      7  C   UNL     1       3.217   5.307  18.981  0.00  0.00    +0.000 A 
ATOM      8  C   UNL     1       3.344   5.979  17.756  0.00  0.00    +0.000 A 
ATOM      9  C   UNL     1       2.867   7.284  17.629  0.00  0.00    +0.000 A 
BRANCH   4  11
ATOM     10  O   UNL     1       1.116   9.752  19.553  0.00  0.00    +0.000 OA
ATOM     11  N   UNL     1       1.734   9.268  18.589  0.00  0.00    +0.000 N 
ATOM     12  O   UNL     1       1.935   9.858  17.519  0.00  0.00    +0.000 OA
ENDBRANCH   4  11
ENDBRANCH   1   7
BRANCH   1  13
ATOM     13  O   UNL     1       5.255   3.539  19.126  0.00  0.00    +0.000 OA
BRANCH  13  14
ATOM     14  C   UNL     1       6.043   4.448  18.436  0.00  0.00    +0.000 A 
ATOM     15  C   UNL     1       6.616   5.440  19.251  0.00  0.00    +0.000 A 
ATOM     16  C   UNL     1       7.377   6.461  18.689  0.00  0.00    +0.000 A 
ATOM     17  C   UNL     1       7.515   6.533  17.307  0.00  0.00    +0.000 A 
ATOM     18  C   UNL     1       6.927   5.560  16.484  0.00  0.00    +0.000 A 
ATOM     19  C   UNL     1       6.963   5.675  15.086  0.00  0.00    +0.000 A 
ATOM     20  C   UNL     1       6.381   4.696  14.288  0.00  0.00    +0.000 A 
ATOM     21  C   UNL     1       5.851   3.596  14.918  0.00  0.00    +0.000 A 
ATOM     22  N   UNL     1       5.800   3.469  16.257  0.00  0.00    +0.000 NA
ATOM     23  C   UNL     1       6.251   4.457  17.048  0.00  0.00    +0.000 A 
ENDBRANCH  13  14
ENDBRANCH   1  13
TORSDOF 4
ENDMDL
