MODEL 1
REMARK VINA RESULT:      -7.6      0.000      0.000
REMARK  Name = 
REMARK  4 active torsions:
REMARK  status: ('A' for Active; 'I' for Inactive)
REMARK    1  A    between atoms: C_2  and  C_3
REMARK    2  A    between atoms: C_11  and  C_12
REMARK    3  A    between atoms: C_17  and  O_18
REMARK    4  A    between atoms: C_20  and  C_21
REMARK                            x       y       z     vdW  Elec       q    Type
REMARK                         _______ _______ _______ _____ _____    ______ ____
ROOT
ATOM      1  O   UNL     1       4.690   4.121  17.318  0.00  0.00    +0.000 OA
ATOM      2  C   UNL     1       4.671   5.295  17.691  0.00  0.00    +0.000 C 
ATOM      3  N   UNL     1       3.499   6.005  17.944  0.00  0.00    +0.000 N 
ATOM      4  N   UNL     1       3.486   7.319  18.321  0.00  0.00    +0.000 NA
ATOM      5  C   UNL     1       2.249   7.701  18.382  0.00  0.00    +0.000 C 
ATOM      6  C   UNL     1       1.238   6.627  18.072  0.00  0.00    +0.000 C 
ATOM      7  C   UNL     1       2.160   5.432  17.829  0.00  0.00    +0.000 C 
ENDROOT
BRANCH   2   8
ATOM      8  C   UNL     1       5.970   5.981  17.937  0.00  0.00    +0.000 A 
ATOM      9  C   UNL     1       6.384   7.076  17.169  0.00  0.00    +0.000 A 
ATOM     10  C   UNL     1       7.556   7.758  17.486  0.00  0.00    +0.000 A 
ATOM     11  C   UNL     1       8.349   7.319  18.545  0.00  0.00    +0.000 A 
ATOM     12  C   UNL     1       7.977   6.189  19.278  0.00  0.00    +0.000 A 
ATOM     13  C   UNL     1       6.788   5.520  18.976  0.00  0.00    +0.000 A 
ENDBRANCH   2   8
BRANCH   5  14
ATOM     14  C   UNL     1       1.883   9.104  18.717  0.00  0.00    +0.000 A 
ATOM     15  C   UNL     1       2.267  10.109  17.808  0.00  0.00    +0.000 A 
ATOM     16  C   UNL     1       1.984  11.452  18.064  0.00  0.00    +0.000 A 
ATOM     17  C   UNL     1       1.312  11.807  19.232  0.00  0.00    +0.000 A 
ATOM     18  C   UNL     1       0.914  10.820  20.133  0.00  0.00    +0.000 A 
ATOM     19  C   UNL     1       1.193   9.475  19.876  0.00  0.00    +0.000 A 
BRANCH  19  20
ATOM     20  O   UNL     1       0.775   8.536  20.775  0.00  0.00    +0.000 OA
ATOM     21  H   UNL     1       1.204   8.697  21.632  0.00  0.00    +0.000 HD
ENDBRANCH  19  20
ENDBRANCH   5  14
BRANCH   7  22
ATOM     22  C   UNL     1       1.920   4.312  18.827  0.00  0.00    +0.000 A 
ATOM     23  C   UNL     1       1.962   4.580  20.204  0.00  0.00    +0.000 A 
ATOM     24  C   UNL     1       1.699   3.570  21.130  0.00  0.00    +0.000 A 
ATOM     25  C   UNL     1       1.397   2.282  20.693  0.00  0.00    +0.000 A 
ATOM     26  C   UNL     1       1.363   1.998  19.329  0.00  0.00    +0.000 A 
ATOM     27  C   UNL     1       1.626   3.007  18.402  0.00  0.00    +0.000 A 
ENDBRANCH   7  22
TORSDOF 4
ENDMDL
MODEL 2
REMARK VINA RESULT:      -7.5      1.671      2.284
REMARK  Name = 
REMARK  4 active torsions:
REMARK  status: ('A' for Active; 'I' for Inactive)
REMARK    1  A    between atoms: C_2  and  C_3
REMARK    2  A    between atoms: C_11  and  C_12
REMARK    3  A    between atoms: C_17  and  O_18
REMARK    4  A    between atoms: C_20  and  C_21
REMARK                            x       y       z     vdW  Elec       q    Type
REMARK                         _______ _______ _______ _____ _____    ______ ____
ROOT
ATOM      1  O   UNL     1       6.090   4.597  16.685  0.00  0.00    +0.000 OA
ATOM      2  C   UNL     1       5.733   5.596  17.310  0.00  0.00    +0.000 C 
ATOM      3  N   UNL     1       4.423   5.812  17.734  0.00  0.00    +0.000 N 
ATOM      4  N   UNL     1       4.026   6.942  18.395  0.00  0.00    +0.000 NA
ATOM      5  C   UNL     1       2.742   6.873  18.560  0.00  0.00    +0.000 C 
ATOM      6  C   UNL     1       2.102   5.614  18.034  0.00  0.00    +0.000 C 
ATOM      7  C   UNL     1       3.330   4.866  17.516  0.00  0.00    +0.000 C 
ENDROOT
BRANCH   2   8
ATOM      8  C   UNL     1       6.762   6.605  17.683  0.00  0.00    +0.000 A 
ATOM      9  C   UNL     1       6.859   7.838  17.027  0.00  0.00    +0.000 A 
ATOM     10  C   UNL     1       7.767   8.800  17.463  0.00  0.00    +0.000 A 
ATOM     11  C   UNL     1       8.620   8.517  18.527  0.00  0.00    +0.000 A 
ATOM     12  C   UNL     1       8.574   7.266  19.148  0.00  0.00    +0.000 A 
ATOM     13  C   UNL     1       7.646   6.310  18.728  0.00  0.00    +0.000 A 
ENDBRANCH   2   8
BRANCH   5  14
ATOM     14  C   UNL     1       1.981   7.977  19.205  0.00  0.00    +0.000 A 
ATOM     15  C   UNL     1       1.611   7.811  20.552  0.00  0.00    +0.000 A 
ATOM     16  C   UNL     1       0.873   8.791  21.219  0.00  0.00    +0.000 A 
ATOM     17  C   UNL     1       0.497   9.951  20.545  0.00  0.00    +0.000 A 
ATOM     18  C   UNL     1       0.869  10.135  19.214  0.00  0.00    +0.000 A 
ATOM     19  C   UNL     1       1.611   9.155  18.547  0.00  0.00    +0.000 A 
BRANCH  19  20
ATOM     20  O   UNL     1       1.968   9.377  17.248  0.00  0.00    +0.000 OA
ATOM     21  H   UNL     1       2.446  10.221  17.184  0.00  0.00    +0.000 HD
ENDBRANCH  19  20
ENDBRANCH   5  14
BRANCH   7  22
ATOM     22  C   UNL     1       3.548   3.551  18.242  0.00  0.00    +0.000 A 
ATOM     23  C   UNL     1       3.376   2.337  17.559  0.00  0.00    +0.000 A 
ATOM     24  C   UNL     1       3.617   1.122  18.201  0.00  0.00    +0.000 A 
ATOM     25  C   UNL     1       4.026   1.104  19.533  0.00  0.00    +0.000 A 
ATOM     26  C   UNL     1       4.190   2.302  20.228  0.00  0.00    +0.000 A 
ATOM     27  C   UNL     1       3.950   3.517  19.587  0.00  0.00    +0.000 A 
ENDBRANCH   7  22
TORSDOF 4
ENDMDL
MODEL 3
REMARK VINA RESULT:      -7.4      1.416      1.830
REMARK  Name = 
REMARK  4 active torsions:
REMARK  status: ('A' for Active; 'I' for Inactive)
REMARK    1  A    between atoms: C_2  and  C_3
REMARK    2  A    between atoms: C_11  and  C_12
REMARK    3  A    between atoms: C_17  and  O_18
REMARK    4  A    between atoms: C_20  and  C_21
REMARK                            x       y       z     vdW  Elec       q    Type
REMARK                         _______ _______ _______ _____ _____    ______ ____
ROOT
ATOM      1  O   UNL     1       6.096   4.489  16.806  0.00  0.00    +0.000 OA
ATOM      2  C   UNL     1       5.730   5.530  17.353  0.00  0.00    +0.000 C 
ATOM      3  N   UNL     1       4.406   5.796  17.694  0.00  0.00    +0.000 N 
ATOM      4  N   UNL     1       4.001   6.970  18.267  0.00  0.00    +0.000 NA
ATOM      5  C   UNL     1       2.708   6.936  18.368  0.00  0.00    +0.000 C 
ATOM      6  C   UNL     1       2.068   5.661  17.884  0.00  0.00    +0.000 C 
ATOM      7  C   UNL     1       3.304   4.861  17.475  0.00  0.00    +0.000 C 
ENDROOT
BRANCH   2   8
ATOM      8  C   UNL     1       6.761   6.540  17.719  0.00  0.00    +0.000 A 
ATOM      9  C   UNL     1       6.869   7.764  17.047  0.00  0.00    +0.000 A 
ATOM     10  C   UNL     1       7.778   8.727  17.476  0.00  0.00    +0.000 A 
ATOM     11  C   UNL     1       8.622   8.455  18.551  0.00  0.00    +0.000 A 
ATOM     12  C   UNL     1       8.565   7.213  19.189  0.00  0.00    +0.000 A 
ATOM     13  C   UNL     1       7.636   6.256  18.775  0.00  0.00    +0.000 A 
ENDBRANCH   2   8
BRANCH   5  14
ATOM     14  C   UNL     1       1.940   8.091  18.907  0.00  0.00    +0.000 A 
ATOM     15  C   UNL     1       1.578   9.108  18.004  0.00  0.00    +0.000 A 
ATOM     16  C   UNL     1       0.879  10.236  18.438  0.00  0.00    +0.000 A 
ATOM     17  C   UNL     1       0.533  10.361  19.781  0.00  0.00    +0.000 A 
ATOM     18  C   UNL     1       0.873   9.353  20.684  0.00  0.00    +0.000 A 
ATOM     19  C   UNL     1       1.569   8.222  20.249  0.00  0.00    +0.000 A 
BRANCH  19  20
ATOM     20  O   UNL     1       1.873   7.251  21.160  0.00  0.00    +0.000 OA
ATOM     21  H   UNL     1       2.816   7.025  21.089  0.00  0.00    +0.000 HD
ENDBRANCH  19  20
ENDBRANCH   5  14
BRANCH   7  22
ATOM     22  C   UNL     1       3.456   3.586  18.287  0.00  0.00    +0.000 A 
ATOM     23  C   UNL     1       3.494   2.342  17.638  0.00  0.00    +0.000 A 
ATOM     24  C   UNL     1       3.678   1.167  18.368  0.00  0.00    +0.000 A 
ATOM     25  C   UNL     1       3.820   1.220  19.753  0.00  0.00    +0.000 A 
ATOM     26  C   UNL     1       3.773   2.447  20.412  0.00  0.00    +0.000 A 
ATOM     27  C   UNL     1       3.589   3.622  19.684  0.00  0.00    +0.000 A 
ENDBRANCH   7  22
TORSDOF 4
ENDMDL
MODEL 4
REMARK VINA RESULT:      -7.4      1.724      4.912
REMARK  Name = 
REMARK  4 active torsions:
REMARK  status: ('A' for Active; 'I' for Inactive)
REMARK    1  A    between atoms: C_2  and  C_3
REMARK    2  A    between atoms: C_11  and  C_12
REMARK    3  A    between atoms: C_17  and  O_18
REMARK    4  A    between atoms: C_20  and  C_21
REMARK                            x       y       z     vdW  Elec       q    Type
REMARK                         _______ _______ _______ _____ _____    ______ ____
ROOT
ATOM      1  O   UNL     1       5.450   3.307  19.063  0.00  0.00    +0.000 OA
ATOM      2  C   UNL     1       4.401   3.935  19.214  0.00  0.00    +0.000 C 
ATOM      3  N   UNL     1       4.231   5.258  18.815  0.00  0.00    +0.000 N 
ATOM      4  N   UNL     1       3.075   5.960  19.021  0.00  0.00    +0.000 NA
ATOM      5  C   UNL     1       3.275   7.178  18.622  0.00  0.00    +0.000 C 
ATOM      6  C   UNL     1       4.642   7.439  18.044  0.00  0.00    +0.000 C 
ATOM      7  C   UNL     1       5.262   6.045  18.141  0.00  0.00    +0.000 C 
ENDROOT
BRANCH   2   8
ATOM      8  C   UNL     1       3.232   3.229  19.808  0.00  0.00    +0.000 A 
ATOM      9  C   UNL     1       3.004   3.208  21.189  0.00  0.00    +0.000 A 
ATOM     10  C   UNL     1       1.850   2.624  21.705  0.00  0.00    +0.000 A 
ATOM     11  C   UNL     1       0.938   2.013  20.847  0.00  0.00    +0.000 A 
ATOM     12  C   UNL     1       1.187   1.973  19.473  0.00  0.00    +0.000 A 
ATOM     13  C   UNL     1       2.333   2.581  18.952  0.00  0.00    +0.000 A 
ENDBRANCH   2   8
BRANCH   5  14
ATOM     14  C   UNL     1       2.224   8.223  18.756  0.00  0.00    +0.000 A 
ATOM     15  C   UNL     1       1.898   8.967  17.608  0.00  0.00    +0.000 A 
ATOM     16  C   UNL     1       0.941   9.983  17.660  0.00  0.00    +0.000 A 
ATOM     17  C   UNL     1       0.297  10.265  18.863  0.00  0.00    +0.000 A 
ATOM     18  C   UNL     1       0.601   9.524  20.005  0.00  0.00    +0.000 A 
ATOM     19  C   UNL     1       1.556   8.505  19.952  0.00  0.00    +0.000 A 
BRANCH  19  20
ATOM     20  O   UNL     1       1.816   7.793  21.088  0.00  0.00    +0.000 OA
ATOM     21  H   UNL     1       1.375   8.218  21.843  0.00  0.00    +0.000 HD
ENDBRANCH  19  20
ENDBRANCH   5  14
BRANCH   7  22
ATOM     22  C   UNL     1       5.623   5.482  16.778  0.00  0.00    +0.000 A 
ATOM     23  C   UNL     1       6.951   5.533  16.328  0.00  0.00    +0.000 A 
ATOM     24  C   UNL     1       7.305   4.979  15.097  0.00  0.00    +0.000 A 
ATOM     25  C   UNL     1       6.336   4.373  14.299  0.00  0.00    +0.000 A 
ATOM     26  C   UNL     1       5.010   4.325  14.728  0.00  0.00    +0.000 A 
ATOM     27  C   UNL     1       4.656   4.878  15.958  0.00  0.00    +0.000 A 
ENDBRANCH   7  22
TORSDOF 4
ENDMDL
MODEL 5
REMARK VINA RESULT:      -7.3      0.936      1.345
REMARK  Name = 
REMARK  4 active torsions:
REMARK  status: ('A' for Active; 'I' for Inactive)
REMARK    1  A    between atoms: C_2  and  C_3
REMARK    2  A    between atoms: C_11  and  C_12
REMARK    3  A    between atoms: C_17  and  O_18
REMARK    4  A    between atoms: C_20  and  C_21
REMARK                            x       y       z     vdW  Elec       q    Type
REMARK                         _______ _______ _______ _____ _____    ______ ____
ROOT
ATOM      1  O   UNL     1       4.658   4.238  17.086  0.00  0.00    +0.000 OA
ATOM      2  C   UNL     1       4.612   5.363  17.584  0.00  0.00    +0.000 C 
ATOM      3  N   UNL     1       3.429   5.983  17.980  0.00  0.00    +0.000 N 
ATOM      4  N   UNL     1       3.383   7.249  18.497  0.00  0.00    +0.000 NA
ATOM      5  C   UNL     1       2.136   7.559  18.672  0.00  0.00    +0.000 C 
ATOM      6  C   UNL     1       1.156   6.475  18.307  0.00  0.00    +0.000 C 
ATOM      7  C   UNL     1       2.111   5.360  17.883  0.00  0.00    +0.000 C 
ENDROOT
BRANCH   2   8
ATOM      8  C   UNL     1       5.893   6.084  17.827  0.00  0.00    +0.000 A 
ATOM      9  C   UNL     1       6.241   7.234  17.108  0.00  0.00    +0.000 A 
ATOM     10  C   UNL     1       7.398   7.942  17.426  0.00  0.00    +0.000 A 
ATOM     11  C   UNL     1       8.241   7.476  18.432  0.00  0.00    +0.000 A 
ATOM     12  C   UNL     1       7.935   6.295  19.113  0.00  0.00    +0.000 A 
ATOM     13  C   UNL     1       6.761   5.598  18.811  0.00  0.00    +0.000 A 
ENDBRANCH   2   8
BRANCH   5  14
ATOM     14  C   UNL     1       1.732   8.900  19.177  0.00  0.00    +0.000 A 
ATOM     15  C   UNL     1       1.264   8.981  20.502  0.00  0.00    +0.000 A 
ATOM     16  C   UNL     1       0.842  10.199  21.039  0.00  0.00    +0.000 A 
ATOM     17  C   UNL     1       0.884  11.351  20.258  0.00  0.00    +0.000 A 
ATOM     18  C   UNL     1       1.359  11.287  18.947  0.00  0.00    +0.000 A 
ATOM     19  C   UNL     1       1.786  10.069  18.411  0.00  0.00    +0.000 A 
BRANCH  19  20
ATOM     20  O   UNL     1       2.257  10.048  17.129  0.00  0.00    +0.000 OA
ATOM     21  H   UNL     1       2.957  10.716  17.032  0.00  0.00    +0.000 HD
ENDBRANCH  19  20
ENDBRANCH   5  14
BRANCH   7  22
ATOM     22  C   UNL     1       1.984   4.130  18.765  0.00  0.00    +0.000 A 
ATOM     23  C   UNL     1       1.968   4.269  20.162  0.00  0.00    +0.000 A 
ATOM     24  C   UNL     1       1.807   3.153  20.983  0.00  0.00    +0.000 A 
ATOM     25  C   UNL     1       1.665   1.886  20.420  0.00  0.00    +0.000 A 
ATOM     26  C   UNL     1       1.689   1.731  19.036  0.00  0.00    +0.000 A 
ATOM     27  C   UNL     1       1.850   2.846  18.214  0.00  0.00    +0.000 A 
ENDBRANCH   7  22
TORSDOF 4
ENDMDL
MODEL 6
REMARK VINA RESULT:      -7.1      0.934      1.896
REMARK  Name = 
REMARK  4 active torsions:
REMARK  status: ('A' for Active; 'I' for Inactive)
REMARK    1  A    between atoms: C_2  and  C_3
REMARK    2  A    between atoms: C_11  and  C_12
REMARK    3  A    between atoms: C_17  and  O_18
REMARK    4  A    between atoms: C_20  and  C_21
REMARK                            x       y       z     vdW  Elec       q    Type
REMARK                         _______ _______ _______ _____ _____    ______ ____
ROOT
ATOM      1  O   UNL     1       4.592   4.155  17.240  0.00  0.00    +0.000 OA
ATOM      2  C   UNL     1       4.552   5.284  17.729  0.00  0.00    +0.000 C 
ATOM      3  N   UNL     1       3.367   5.932  18.072  0.00  0.00    +0.000 N 
ATOM      4  N   UNL     1       3.328   7.202  18.580  0.00  0.00    +0.000 NA
ATOM      5  C   UNL     1       2.082   7.541  18.701  0.00  0.00    +0.000 C 
ATOM      6  C   UNL     1       1.094   6.477  18.300  0.00  0.00    +0.000 C 
ATOM      7  C   UNL     1       2.040   5.338  17.922  0.00  0.00    +0.000 C 
ENDROOT
BRANCH   2   8
ATOM      8  C   UNL     1       5.837   5.977  18.022  0.00  0.00    +0.000 A 
ATOM      9  C   UNL     1       6.684   5.558  19.055  0.00  0.00    +0.000 A 
ATOM     10  C   UNL     1       7.923   6.165  19.241  0.00  0.00    +0.000 A 
ATOM     11  C   UNL     1       8.304   7.229  18.426  0.00  0.00    +0.000 A 
ATOM     12  C   UNL     1       7.439   7.695  17.433  0.00  0.00    +0.000 A 
ATOM     13  C   UNL     1       6.206   7.071  17.230  0.00  0.00    +0.000 A 
ENDBRANCH   2   8
BRANCH   5  14
ATOM     14  C   UNL     1       1.688   8.894  19.181  0.00  0.00    +0.000 A 
ATOM     15  C   UNL     1       1.175   8.995  20.487  0.00  0.00    +0.000 A 
ATOM     16  C   UNL     1       0.759  10.225  21.001  0.00  0.00    +0.000 A 
ATOM     17  C   UNL     1       0.852  11.370  20.212  0.00  0.00    +0.000 A 
ATOM     18  C   UNL     1       1.373  11.286  18.921  0.00  0.00    +0.000 A 
ATOM     19  C   UNL     1       1.793  10.055  18.408  0.00  0.00    +0.000 A 
BRANCH  19  20
ATOM     20  O   UNL     1       2.309  10.015  17.145  0.00  0.00    +0.000 OA
ATOM     21  H   UNL     1       1.608   9.771  16.517  0.00  0.00    +0.000 HD
ENDBRANCH  19  20
ENDBRANCH   5  14
BRANCH   7  22
ATOM     22  C   UNL     1       1.848   4.118  18.805  0.00  0.00    +0.000 A 
ATOM     23  C   UNL     1       1.734   2.845  18.226  0.00  0.00    +0.000 A 
ATOM     24  C   UNL     1       1.603   1.710  19.027  0.00  0.00    +0.000 A 
ATOM     25  C   UNL     1       1.579   1.834  20.416  0.00  0.00    +0.000 A 
ATOM     26  C   UNL     1       1.681   3.093  21.005  0.00  0.00    +0.000 A 
ATOM     27  C   UNL     1       1.812   4.227  20.205  0.00  0.00    +0.000 A 
ENDBRANCH   7  22
TORSDOF 4
ENDMDL
MODEL 7
REMARK VINA RESULT:      -7.1      3.681      6.776
REMARK  Name = 
REMARK  4 active torsions:
REMARK  status: ('A' for Active; 'I' for Inactive)
REMARK    1  A    between atoms: C_2  and  C_3
REMARK    2  A    between atoms: C_11  and  C_12
REMARK    3  A    between atoms: C_17  and  O_18
REMARK    4  A    between atoms: C_20  and  C_21
REMARK                            x       y       z     vdW  Elec       q    Type
REMARK                         _______ _______ _______ _____ _____    ______ ____
ROOT
ATOM      1  O   UNL     1       8.215   4.796  15.267  0.00  0.00    +0.000 OA
ATOM      2  C   UNL     1       7.046   4.412  15.305  0.00  0.00    +0.000 C 
ATOM      3  N   UNL     1       6.294   4.346  16.476  0.00  0.00    +0.000 N 
ATOM      4  N   UNL     1       5.008   3.882  16.516  0.00  0.00    +0.000 NA
ATOM      5  C   UNL     1       4.633   3.862  17.757  0.00  0.00    +0.000 C 
ATOM      6  C   UNL     1       5.659   4.365  18.738  0.00  0.00    +0.000 C 
ATOM      7  C   UNL     1       6.792   4.754  17.788  0.00  0.00    +0.000 C 
ENDROOT
BRANCH   2   8
ATOM      8  C   UNL     1       6.377   4.048  14.025  0.00  0.00    +0.000 A 
ATOM      9  C   UNL     1       7.106   3.669  12.892  0.00  0.00    +0.000 A 
ATOM     10  C   UNL     1       6.450   3.240  11.741  0.00  0.00    +0.000 A 
ATOM     11  C   UNL     1       5.057   3.233  11.698  0.00  0.00    +0.000 A 
ATOM     12  C   UNL     1       4.320   3.668  12.802  0.00  0.00    +0.000 A 
ATOM     13  C   UNL     1       4.978   4.076  13.966  0.00  0.00    +0.000 A 
ENDBRANCH   2   8
BRANCH   5  14
ATOM     14  C   UNL     1       3.291   3.355  18.155  0.00  0.00    +0.000 A 
ATOM     15  C   UNL     1       2.275   4.305  18.367  0.00  0.00    +0.000 A 
ATOM     16  C   UNL     1       0.997   3.910  18.768  0.00  0.00    +0.000 A 
ATOM     17  C   UNL     1       0.720   2.558  18.961  0.00  0.00    +0.000 A 
ATOM     18  C   UNL     1       1.714   1.605  18.740  0.00  0.00    +0.000 A 
ATOM     19  C   UNL     1       2.993   2.000  18.335  0.00  0.00    +0.000 A 
BRANCH  19  20
ATOM     20  O   UNL     1       3.936   1.038  18.116  0.00  0.00    +0.000 OA
ATOM     21  H   UNL     1       3.717   0.247  18.638  0.00  0.00    +0.000 HD
ENDBRANCH  19  20
ENDBRANCH   5  14
BRANCH   7  22
ATOM     22  C   UNL     1       7.109   6.238  17.852  0.00  0.00    +0.000 A 
ATOM     23  C   UNL     1       8.184   6.692  18.630  0.00  0.00    +0.000 A 
ATOM     24  C   UNL     1       8.514   8.048  18.662  0.00  0.00    +0.000 A 
ATOM     25  C   UNL     1       7.771   8.965  17.921  0.00  0.00    +0.000 A 
ATOM     26  C   UNL     1       6.693   8.530  17.153  0.00  0.00    +0.000 A 
ATOM     27  C   UNL     1       6.362   7.176  17.120  0.00  0.00    +0.000 A 
ENDBRANCH   7  22
TORSDOF 4
ENDMDL
MODEL 8
REMARK VINA RESULT:      -7.0      4.189      7.105
REMARK  Name = 
REMARK  4 active torsions:
REMARK  status: ('A' for Active; 'I' for Inactive)
REMARK    1  A    between atoms: C_2  and  C_3
REMARK    2  A    between atoms: C_11  and  C_12
REMARK    3  A    between atoms: C_17  and  O_18
REMARK    4  A    between atoms: C_20  and  C_21
REMARK                            x       y       z     vdW  Elec       q    Type
REMARK                         _______ _______ _______ _____ _____    ______ ____
ROOT
ATOM      1  O   UNL     1       2.595  12.166  17.948  0.00  0.00    +0.000 OA
ATOM      2  C   UNL     1       1.916  12.612  18.873  0.00  0.00    +0.000 C 
ATOM      3  N   UNL     1       0.702  12.060  19.274  0.00  0.00    +0.000 N 
ATOM      4  N   UNL     1      -0.065  12.584  20.278  0.00  0.00    +0.000 NA
ATOM      5  C   UNL     1      -1.163  11.897  20.336  0.00  0.00    +0.000 C 
ATOM      6  C   UNL     1      -1.251  10.758  19.355  0.00  0.00    +0.000 C 
ATOM      7  C   UNL     1       0.110  10.869  18.668  0.00  0.00    +0.000 C 
ENDROOT
BRANCH   2   8
ATOM      8  C   UNL     1       2.442  13.774  19.643  0.00  0.00    +0.000 A 
ATOM      9  C   UNL     1       3.028  13.620  20.905  0.00  0.00    +0.000 A 
ATOM     10  C   UNL     1       3.598  14.711  21.556  0.00  0.00    +0.000 A 
ATOM     11  C   UNL     1       3.543  15.975  20.972  0.00  0.00    +0.000 A 
ATOM     12  C   UNL     1       2.905  16.150  19.741  0.00  0.00    +0.000 A 
ATOM     13  C   UNL     1       2.354  15.051  19.076  0.00  0.00    +0.000 A 
ENDBRANCH   2   8
BRANCH   5  14
ATOM     14  C   UNL     1      -2.247  12.244  21.295  0.00  0.00    +0.000 A 
ATOM     15  C   UNL     1      -3.446  12.753  20.764  0.00  0.00    +0.000 A 
ATOM     16  C   UNL     1      -4.500  13.126  21.601  0.00  0.00    +0.000 A 
ATOM     17  C   UNL     1      -4.366  12.994  22.981  0.00  0.00    +0.000 A 
ATOM     18  C   UNL     1      -3.188  12.477  23.520  0.00  0.00    +0.000 A 
ATOM     19  C   UNL     1      -2.135  12.100  22.682  0.00  0.00    +0.000 A 
BRANCH  19  20
ATOM     20  O   UNL     1      -1.003  11.585  23.246  0.00  0.00    +0.000 OA
ATOM     21  H   UNL     1      -1.228  11.154  24.087  0.00  0.00    +0.000 HD
ENDBRANCH  19  20
ENDBRANCH   5  14
BRANCH   7  22
ATOM     22  C   UNL     1       0.959   9.628  18.877  0.00  0.00    +0.000 A 
ATOM     23  C   UNL     1       1.064   9.057  20.154  0.00  0.00    +0.000 A 
ATOM     24  C   UNL     1       1.804   7.891  20.352  0.00  0.00    +0.000 A 
ATOM     25  C   UNL     1       2.453   7.285  19.277  0.00  0.00    +0.000 A 
ATOM     26  C   UNL     1       2.368   7.847  18.005  0.00  0.00    +0.000 A 
ATOM     27  C   UNL     1       1.628   9.012  17.806  0.00  0.00    +0.000 A 
ENDBRANCH   7  22
TORSDOF 4
ENDMDL
MODEL 9
REMARK VINA RESULT:      -7.0      3.817      8.229
REMARK  Name = 
REMARK  4 active torsions:
REMARK  status: ('A' for Active; 'I' for Inactive)
REMARK    1  A    between atoms: C_2  and  C_3
REMARK    2  A    between atoms: C_11  and  C_12
REMARK    3  A    between atoms: C_17  and  O_18
REMARK    4  A    between atoms: C_20  and  C_21
REMARK                            x       y       z     vdW  Elec       q    Type
REMARK                         _______ _______ _______ _____ _____    ______ ____
ROOT
ATOM      1  O   UNL     1       0.269  14.357  22.057  0.00  0.00    +0.000 OA
ATOM      2  C   UNL     1       0.861  13.635  21.254  0.00  0.00    +0.000 C 
ATOM      3  N   UNL     1       0.595  12.277  21.097  0.00  0.00    +0.000 N 
ATOM      4  N   UNL     1       1.284  11.474  20.231  0.00  0.00    +0.000 NA
ATOM      5  C   UNL     1       0.858  10.260  20.393  0.00  0.00    +0.000 C 
ATOM      6  C   UNL     1      -0.241  10.105  21.412  0.00  0.00    +0.000 C 
ATOM      7  C   UNL     1      -0.439  11.559  21.839  0.00  0.00    +0.000 C 
ENDROOT
BRANCH   2   8
ATOM      8  C   UNL     1       1.883  14.253  20.365  0.00  0.00    +0.000 A 
ATOM      9  C   UNL     1       3.237  14.303  20.717  0.00  0.00    +0.000 A 
ATOM     10  C   UNL     1       4.182  14.799  19.822  0.00  0.00    +0.000 A 
ATOM     11  C   UNL     1       3.773  15.294  18.585  0.00  0.00    +0.000 A 
ATOM     12  C   UNL     1       2.417  15.306  18.249  0.00  0.00    +0.000 A 
ATOM     13  C   UNL     1       1.471  14.786  19.137  0.00  0.00    +0.000 A 
ENDBRANCH   2   8
BRANCH   5  14
ATOM     14  C   UNL     1       1.444   9.122  19.633  0.00  0.00    +0.000 A 
ATOM     15  C   UNL     1       1.708   7.935  20.342  0.00  0.00    +0.000 A 
ATOM     16  C   UNL     1       2.281   6.833  19.704  0.00  0.00    +0.000 A 
ATOM     17  C   UNL     1       2.597   6.904  18.349  0.00  0.00    +0.000 A 
ATOM     18  C   UNL     1       2.326   8.070  17.632  0.00  0.00    +0.000 A 
ATOM     19  C   UNL     1       1.749   9.172  18.269  0.00  0.00    +0.000 A 
BRANCH  19  20
ATOM     20  O   UNL     1       1.486  10.290  17.531  0.00  0.00    +0.000 OA
ATOM     21  H   UNL     1       2.310  10.609  17.124  0.00  0.00    +0.000 HD
ENDBRANCH  19  20
ENDBRANCH   5  14
BRANCH   7  22
ATOM     22  C   UNL     1      -1.836  12.063  21.522  0.00  0.00    +0.000 A 
ATOM     23  C   UNL     1      -2.247  12.197  20.187  0.00  0.00    +0.000 A 
ATOM     24  C   UNL     1      -3.542  12.616  19.882  0.00  0.00    +0.000 A 
ATOM     25  C   UNL     1      -4.441  12.910  20.907  0.00  0.00    +0.000 A 
ATOM     26  C   UNL     1      -4.044  12.792  22.237  0.00  0.00    +0.000 A 
ATOM     27  C   UNL     1      -2.750  12.374  22.543  0.00  0.00    +0.000 A 
ENDBRANCH   7  22
TORSDOF 4
ENDMDL
