MODEL 1
REMARK VINA RESULT:      -9.4      0.000      0.000
REMARK  Name = 
REMARK  4 active torsions:
REMARK  status: ('A' for Active; 'I' for Inactive)
REMARK    1  A    between atoms: N_4  and  C_5
REMARK    2  A    between atoms: C_5  and  C_6
REMARK    3  A    between atoms: C_12  and  S_13
REMARK    4  A    between atoms: S_13  and  C_16
REMARK                            x       y       z     vdW  Elec       q    Type
REMARK                         _______ _______ _______ _____ _____    ______ ____
ROOT
ATOM      1  C   UNL     1       1.710   4.620  18.822  0.00  0.00    +0.000 C 
ATOM      2  C   UNL     1       0.982   3.306  18.481  0.00  0.00    +0.000 C 
ATOM      3  C   UNL     1       1.901   2.093  18.583  0.00  0.00    +0.000 C 
ATOM      4  C   UNL     1       3.100   2.218  17.647  0.00  0.00    +0.000 C 
ATOM      5  C   UNL     1       3.702   3.600  17.578  0.00  0.00    +0.000 A 
ATOM      6  C   UNL     1       4.954   3.756  16.959  0.00  0.00    +0.000 A 
ATOM      7  C   UNL     1       5.517   5.027  16.812  0.00  0.00    +0.000 A 
ATOM      8  C   UNL     1       4.841   6.157  17.269  0.00  0.00    +0.000 A 
ATOM      9  C   UNL     1       3.597   6.009  17.885  0.00  0.00    +0.000 A 
ATOM     10  C   UNL     1       3.023   4.736  18.058  0.00  0.00    +0.000 A 
ENDROOT
BRANCH   7  11
ATOM     11  S   UNL     1       7.162   5.194  16.157  0.00  0.00    +0.000 S 
ATOM     12  O   UNL     1       7.515   6.601  16.232  0.00  0.00    +0.000 OA
ATOM     13  O   UNL     1       7.994   4.204  16.824  0.00  0.00    +0.000 OA
BRANCH  11  14
ATOM     14  C   UNL     1       7.104   4.752  14.436  0.00  0.00    +0.000 A 
ATOM     15  C   UNL     1       6.200   3.774  14.003  0.00  0.00    +0.000 A 
ATOM     16  C   UNL     1       6.106   3.481  12.642  0.00  0.00    +0.000 A 
ATOM     17  C   UNL     1       6.898   4.170  11.721  0.00  0.00    +0.000 A 
ATOM     18  C   UNL     1       7.788   5.154  12.156  0.00  0.00    +0.000 A 
ATOM     19  C   UNL     1       7.891   5.450  13.515  0.00  0.00    +0.000 A 
ENDBRANCH  11  14
ENDBRANCH   7  11
BRANCH   1  20
ATOM     20  C   UNL     1       1.977   4.777  20.338  0.00  0.00    +0.000 C 
BRANCH  20  24
ATOM     21  N   UNL     1       0.839   2.118  22.522  0.00  0.00    +0.000 N 
ATOM     22  C   UNL     1       1.761   2.870  21.865  0.00  0.00    +0.000 C 
ATOM     23  O   UNL     1       2.956   2.645  21.946  0.00  0.00    +0.000 OA
ATOM     24  N   UNL     1       1.180   3.877  21.149  0.00  0.00    +0.000 N 
ATOM     25  H   UNL     1       1.257   1.443  23.151  0.00  0.00    +0.000 HD
ATOM     26  H   UNL     1       0.053   2.618  22.910  0.00  0.00    +0.000 HD
ATOM     27  H   UNL     1       0.236   3.683  20.841  0.00  0.00    +0.000 HD
ENDBRANCH  20  24
ENDBRANCH   1  20
TORSDOF 4
ENDMDL
MODEL 2
REMARK VINA RESULT:      -9.0      2.265      2.888
REMARK  Name = 
REMARK  4 active torsions:
REMARK  status: ('A' for Active; 'I' for Inactive)
REMARK    1  A    between atoms: N_4  and  C_5
REMARK    2  A    between atoms: C_5  and  C_6
REMARK    3  A    between atoms: C_12  and  S_13
REMARK    4  A    between atoms: S_13  and  C_16
REMARK                            x       y       z     vdW  Elec       q    Type
REMARK                         _______ _______ _______ _____ _____    ______ ____
ROOT
ATOM      1  C   UNL     1       1.881   5.223  19.554  0.00  0.00    +0.000 C 
ATOM      2  C   UNL     1       1.493   3.838  20.108  0.00  0.00    +0.000 C 
ATOM      3  C   UNL     1       2.668   3.136  20.779  0.00  0.00    +0.000 C 
ATOM      4  C   UNL     1       3.833   2.942  19.812  0.00  0.00    +0.000 C 
ATOM      5  C   UNL     1       4.094   4.115  18.901  0.00  0.00    +0.000 A 
ATOM      6  C   UNL     1       5.293   4.141  18.168  0.00  0.00    +0.000 A 
ATOM      7  C   UNL     1       5.546   5.174  17.260  0.00  0.00    +0.000 A 
ATOM      8  C   UNL     1       4.609   6.187  17.063  0.00  0.00    +0.000 A 
ATOM      9  C   UNL     1       3.415   6.168  17.789  0.00  0.00    +0.000 A 
ATOM     10  C   UNL     1       3.152   5.146  18.719  0.00  0.00    +0.000 A 
ENDROOT
BRANCH   7  11
ATOM     11  S   UNL     1       7.125   5.269  16.448  0.00  0.00    +0.000 S 
ATOM     12  O   UNL     1       7.535   6.663  16.467  0.00  0.00    +0.000 OA
ATOM     13  O   UNL     1       7.981   4.257  17.049  0.00  0.00    +0.000 OA
BRANCH  11  14
ATOM     14  C   UNL     1       6.886   4.809  14.748  0.00  0.00    +0.000 A 
ATOM     15  C   UNL     1       7.764   5.291  13.771  0.00  0.00    +0.000 A 
ATOM     16  C   UNL     1       7.618   4.870  12.448  0.00  0.00    +0.000 A 
ATOM     17  C   UNL     1       6.612   3.964  12.110  0.00  0.00    +0.000 A 
ATOM     18  C   UNL     1       5.747   3.475  13.090  0.00  0.00    +0.000 A 
ATOM     19  C   UNL     1       5.883   3.893  14.414  0.00  0.00    +0.000 A 
ENDBRANCH  11  14
ENDBRANCH   7  11
BRANCH   1  20
ATOM     20  C   UNL     1       2.055   6.282  20.668  0.00  0.00    +0.000 C 
BRANCH  20  24
ATOM     21  N   UNL     1       1.129   9.755  20.207  0.00  0.00    +0.000 N 
ATOM     22  C   UNL     1       1.156   8.556  20.846  0.00  0.00    +0.000 C 
ATOM     23  O   UNL     1       0.561   8.368  21.894  0.00  0.00    +0.000 OA
ATOM     24  N   UNL     1       1.922   7.642  20.183  0.00  0.00    +0.000 N 
ATOM     25  H   UNL     1       0.665  10.478  20.744  0.00  0.00    +0.000 HD
ATOM     26  H   UNL     1       1.993  10.047  19.774  0.00  0.00    +0.000 HD
ATOM     27  H   UNL     1       1.980   7.788  19.184  0.00  0.00    +0.000 HD
ENDBRANCH  20  24
ENDBRANCH   1  20
TORSDOF 4
ENDMDL
MODEL 3
REMARK VINA RESULT:      -8.8      1.987      2.347
REMARK  Name = 
REMARK  4 active torsions:
REMARK  status: ('A' for Active; 'I' for Inactive)
REMARK    1  A    between atoms: N_4  and  C_5
REMARK    2  A    between atoms: C_5  and  C_6
REMARK    3  A    between atoms: C_12  and  S_13
REMARK    4  A    between atoms: S_13  and  C_16
REMARK                            x       y       z     vdW  Elec       q    Type
REMARK                         _______ _______ _______ _____ _____    ______ ____
ROOT
ATOM      1  C   UNL     1       1.900   5.162  19.403  0.00  0.00    +0.000 C 
ATOM      2  C   UNL     1       1.274   3.762  19.547  0.00  0.00    +0.000 C 
ATOM      3  C   UNL     1       2.301   2.711  19.959  0.00  0.00    +0.000 C 
ATOM      4  C   UNL     1       3.439   2.612  18.947  0.00  0.00    +0.000 C 
ATOM      5  C   UNL     1       3.913   3.937  18.403  0.00  0.00    +0.000 A 
ATOM      6  C   UNL     1       5.116   3.972  17.677  0.00  0.00    +0.000 A 
ATOM      7  C   UNL     1       5.558   5.165  17.096  0.00  0.00    +0.000 A 
ATOM      8  C   UNL     1       4.808   6.333  17.222  0.00  0.00    +0.000 A 
ATOM      9  C   UNL     1       3.611   6.305  17.942  0.00  0.00    +0.000 A 
ATOM     10  C   UNL     1       3.160   5.118  18.548  0.00  0.00    +0.000 A 
ENDROOT
BRANCH   7  11
ATOM     11  S   UNL     1       7.149   5.225  16.305  0.00  0.00    +0.000 S 
ATOM     12  O   UNL     1       7.557   6.619  16.263  0.00  0.00    +0.000 OA
ATOM     13  O   UNL     1       7.998   4.245  16.967  0.00  0.00    +0.000 OA
BRANCH  11  14
ATOM     14  C   UNL     1       6.937   4.683  14.626  0.00  0.00    +0.000 A 
ATOM     15  C   UNL     1       5.875   3.831  14.303  0.00  0.00    +0.000 A 
ATOM     16  C   UNL     1       5.667   3.465  12.973  0.00  0.00    +0.000 A 
ATOM     17  C   UNL     1       6.507   3.959  11.972  0.00  0.00    +0.000 A 
ATOM     18  C   UNL     1       7.556   4.820  12.297  0.00  0.00    +0.000 A 
ATOM     19  C   UNL     1       7.773   5.188  13.625  0.00  0.00    +0.000 A 
ENDBRANCH  11  14
ENDBRANCH   7  11
BRANCH   1  20
ATOM     20  C   UNL     1       2.223   5.814  20.769  0.00  0.00    +0.000 C 
BRANCH  20  24
ATOM     21  N   UNL     1       0.159   8.729  21.380  0.00  0.00    +0.000 N 
ATOM     22  C   UNL     1       1.181   8.033  20.817  0.00  0.00    +0.000 C 
ATOM     23  O   UNL     1       1.965   8.550  20.039  0.00  0.00    +0.000 OA
ATOM     24  N   UNL     1       1.191   6.728  21.218  0.00  0.00    +0.000 N 
ATOM     25  H   UNL     1       0.065   9.665  21.004  0.00  0.00    +0.000 HD
ATOM     26  H   UNL     1      -0.713   8.232  21.484  0.00  0.00    +0.000 HD
ATOM     27  H   UNL     1       0.790   6.566  22.132  0.00  0.00    +0.000 HD
ENDBRANCH  20  24
ENDBRANCH   1  20
TORSDOF 4
ENDMDL
MODEL 4
REMARK VINA RESULT:      -8.5      5.023      8.117
REMARK  Name = 
REMARK  4 active torsions:
REMARK  status: ('A' for Active; 'I' for Inactive)
REMARK    1  A    between atoms: N_4  and  C_5
REMARK    2  A    between atoms: C_5  and  C_6
REMARK    3  A    between atoms: C_12  and  S_13
REMARK    4  A    between atoms: S_13  and  C_16
REMARK                            x       y       z     vdW  Elec       q    Type
REMARK                         _______ _______ _______ _____ _____    ______ ____
ROOT
ATOM      1  C   UNL     1       3.792   4.806  18.512  0.00  0.00    +0.000 C 
ATOM      2  C   UNL     1       4.076   5.186  17.046  0.00  0.00    +0.000 C 
ATOM      3  C   UNL     1       4.532   6.634  16.904  0.00  0.00    +0.000 C 
ATOM      4  C   UNL     1       3.488   7.607  17.444  0.00  0.00    +0.000 C 
ATOM      5  C   UNL     1       2.818   7.164  18.721  0.00  0.00    +0.000 A 
ATOM      6  C   UNL     1       2.045   8.098  19.432  0.00  0.00    +0.000 A 
ATOM      7  C   UNL     1       1.352   7.713  20.584  0.00  0.00    +0.000 A 
ATOM      8  C   UNL     1       1.410   6.396  21.037  0.00  0.00    +0.000 A 
ATOM      9  C   UNL     1       2.176   5.463  20.335  0.00  0.00    +0.000 A 
ATOM     10  C   UNL     1       2.896   5.837  19.185  0.00  0.00    +0.000 A 
ENDROOT
BRANCH   7  11
ATOM     11  S   UNL     1       0.496   8.936  21.550  0.00  0.00    +0.000 S 
ATOM     12  O   UNL     1      -0.769   8.352  21.962  0.00  0.00    +0.000 OA
ATOM     13  O   UNL     1       1.429   9.421  22.557  0.00  0.00    +0.000 OA
BRANCH  11  14
ATOM     14  C   UNL     1       0.125  10.306  20.479  0.00  0.00    +0.000 A 
ATOM     15  C   UNL     1       0.895  11.472  20.556  0.00  0.00    +0.000 A 
ATOM     16  C   UNL     1       0.649  12.517  19.665  0.00  0.00    +0.000 A 
ATOM     17  C   UNL     1      -0.349  12.391  18.697  0.00  0.00    +0.000 A 
ATOM     18  C   UNL     1      -1.106  11.221  18.615  0.00  0.00    +0.000 A 
ATOM     19  C   UNL     1      -0.869  10.173  19.504  0.00  0.00    +0.000 A 
ENDBRANCH  11  14
ENDBRANCH   7  11
BRANCH   1  20
ATOM     20  C   UNL     1       5.086   4.624  19.341  0.00  0.00    +0.000 C 
BRANCH  20  24
ATOM     21  N   UNL     1       8.220   4.187  17.575  0.00  0.00    +0.000 N 
ATOM     22  C   UNL     1       7.327   4.835  18.367  0.00  0.00    +0.000 C 
ATOM     23  O   UNL     1       7.560   5.934  18.841  0.00  0.00    +0.000 OA
ATOM     24  N   UNL     1       6.191   4.103  18.559  0.00  0.00    +0.000 N 
ATOM     25  H   UNL     1       9.114   4.661  17.518  0.00  0.00    +0.000 HD
ATOM     26  H   UNL     1       8.285   3.188  17.703  0.00  0.00    +0.000 HD
ATOM     27  H   UNL     1       5.969   3.466  17.805  0.00  0.00    +0.000 HD
ENDBRANCH  20  24
ENDBRANCH   1  20
TORSDOF 4
ENDMDL
MODEL 5
REMARK VINA RESULT:      -8.4      1.465      2.569
REMARK  Name = 
REMARK  4 active torsions:
REMARK  status: ('A' for Active; 'I' for Inactive)
REMARK    1  A    between atoms: N_4  and  C_5
REMARK    2  A    between atoms: C_5  and  C_6
REMARK    3  A    between atoms: C_12  and  S_13
REMARK    4  A    between atoms: S_13  and  C_16
REMARK                            x       y       z     vdW  Elec       q    Type
REMARK                         _______ _______ _______ _____ _____    ______ ____
ROOT
ATOM      1  C   UNL     1       2.414   6.089  19.981  0.00  0.00    +0.000 C 
ATOM      2  C   UNL     1       1.761   7.480  19.865  0.00  0.00    +0.000 C 
ATOM      3  C   UNL     1       1.615   7.930  18.416  0.00  0.00    +0.000 C 
ATOM      4  C   UNL     1       2.965   7.988  17.707  0.00  0.00    +0.000 C 
ATOM      5  C   UNL     1       3.897   6.849  18.038  0.00  0.00    +0.000 A 
ATOM      6  C   UNL     1       5.045   6.670  17.246  0.00  0.00    +0.000 A 
ATOM      7  C   UNL     1       5.971   5.670  17.559  0.00  0.00    +0.000 A 
ATOM      8  C   UNL     1       5.774   4.843  18.663  0.00  0.00    +0.000 A 
ATOM      9  C   UNL     1       4.636   5.016  19.454  0.00  0.00    +0.000 A 
ATOM     10  C   UNL     1       3.684   6.005  19.144  0.00  0.00    +0.000 A 
ENDROOT
BRANCH   7  11
ATOM     11  S   UNL     1       7.341   5.364  16.467  0.00  0.00    +0.000 S 
ATOM     12  O   UNL     1       7.974   6.644  16.201  0.00  0.00    +0.000 OA
ATOM     13  O   UNL     1       8.121   4.280  17.046  0.00  0.00    +0.000 OA
BRANCH  11  14
ATOM     14  C   UNL     1       6.681   4.767  14.928  0.00  0.00    +0.000 A 
ATOM     15  C   UNL     1       7.449   4.866  13.762  0.00  0.00    +0.000 A 
ATOM     16  C   UNL     1       6.959   4.332  12.570  0.00  0.00    +0.000 A 
ATOM     17  C   UNL     1       5.718   3.692  12.548  0.00  0.00    +0.000 A 
ATOM     18  C   UNL     1       4.962   3.584  13.716  0.00  0.00    +0.000 A 
ATOM     19  C   UNL     1       5.443   4.118  14.911  0.00  0.00    +0.000 A 
ENDBRANCH  11  14
ENDBRANCH   7  11
BRANCH   1  20
ATOM     20  C   UNL     1       1.452   4.945  19.578  0.00  0.00    +0.000 C 
BRANCH  20  24
ATOM     21  N   UNL     1       1.043   2.421  22.147  0.00  0.00    +0.000 N 
ATOM     22  C   UNL     1       1.650   3.027  21.092  0.00  0.00    +0.000 C 
ATOM     23  O   UNL     1       2.666   2.579  20.586  0.00  0.00    +0.000 OA
ATOM     24  N   UNL     1       0.997   4.163  20.712  0.00  0.00    +0.000 N 
ATOM     25  H   UNL     1       1.577   1.645  22.517  0.00  0.00    +0.000 HD
ATOM     26  H   UNL     1       0.657   3.035  22.849  0.00  0.00    +0.000 HD
ATOM     27  H   UNL     1       0.006   4.166  20.913  0.00  0.00    +0.000 HD
ENDBRANCH  20  24
ENDBRANCH   1  20
TORSDOF 4
ENDMDL
MODEL 6
REMARK VINA RESULT:      -8.4      5.033      8.024
REMARK  Name = 
REMARK  4 active torsions:
REMARK  status: ('A' for Active; 'I' for Inactive)
REMARK    1  A    between atoms: N_4  and  C_5
REMARK    2  A    between atoms: C_5  and  C_6
REMARK    3  A    between atoms: C_12  and  S_13
REMARK    4  A    between atoms: S_13  and  C_16
REMARK                            x       y       z     vdW  Elec       q    Type
REMARK                         _______ _______ _______ _____ _____    ______ ____
ROOT
ATOM      1  C   UNL     1       3.690   4.672  18.508  0.00  0.00    +0.000 C 
ATOM      2  C   UNL     1       3.995   5.014  17.036  0.00  0.00    +0.000 C 
ATOM      3  C   UNL     1       4.524   6.435  16.872  0.00  0.00    +0.000 C 
ATOM      4  C   UNL     1       3.530   7.468  17.395  0.00  0.00    +0.000 C 
ATOM      5  C   UNL     1       2.837   7.080  18.678  0.00  0.00    +0.000 A 
ATOM      6  C   UNL     1       2.112   8.064  19.372  0.00  0.00    +0.000 A 
ATOM      7  C   UNL     1       1.398   7.732  20.528  0.00  0.00    +0.000 A 
ATOM      8  C   UNL     1       1.389   6.422  21.002  0.00  0.00    +0.000 A 
ATOM      9  C   UNL     1       2.108   5.439  20.317  0.00  0.00    +0.000 A 
ATOM     10  C   UNL     1       2.846   5.758  19.163  0.00  0.00    +0.000 A 
ENDROOT
BRANCH   7  11
ATOM     11  S   UNL     1       0.605   9.013  21.473  0.00  0.00    +0.000 S 
ATOM     12  O   UNL     1      -0.676   8.490  21.916  0.00  0.00    +0.000 OA
ATOM     13  O   UNL     1       1.570   9.486  22.455  0.00  0.00    +0.000 OA
BRANCH  11  14
ATOM     14  C   UNL     1       0.273  10.368  20.372  0.00  0.00    +0.000 A 
ATOM     15  C   UNL     1      -0.776  10.270  19.451  0.00  0.00    +0.000 A 
ATOM     16  C   UNL     1      -1.081  11.363  18.638  0.00  0.00    +0.000 A 
ATOM     17  C   UNL     1      -0.351  12.547  18.756  0.00  0.00    +0.000 A 
ATOM     18  C   UNL     1       0.686  12.645  19.685  0.00  0.00    +0.000 A 
ATOM     19  C   UNL     1       1.000  11.556  20.499  0.00  0.00    +0.000 A 
ENDBRANCH  11  14
ENDBRANCH   7  11
BRANCH   1  20
ATOM     20  C   UNL     1       4.972   4.438  19.342  0.00  0.00    +0.000 C 
BRANCH  20  24
ATOM     21  N   UNL     1       8.154   4.231  17.619  0.00  0.00    +0.000 N 
ATOM     22  C   UNL     1       7.232   4.779  18.454  0.00  0.00    +0.000 C 
ATOM     23  O   UNL     1       7.439   5.823  19.050  0.00  0.00    +0.000 OA
ATOM     24  N   UNL     1       6.103   4.018  18.537  0.00  0.00    +0.000 N 
ATOM     25  H   UNL     1       9.042   4.718  17.637  0.00  0.00    +0.000 HD
ATOM     26  H   UNL     1       8.230   3.225  17.641  0.00  0.00    +0.000 HD
ATOM     27  H   UNL     1       5.908   3.464  17.713  0.00  0.00    +0.000 HD
ENDBRANCH  20  24
ENDBRANCH   1  20
TORSDOF 4
ENDMDL
MODEL 7
REMARK VINA RESULT:      -8.4      4.804      7.731
REMARK  Name = 
REMARK  4 active torsions:
REMARK  status: ('A' for Active; 'I' for Inactive)
REMARK    1  A    between atoms: N_4  and  C_5
REMARK    2  A    between atoms: C_5  and  C_6
REMARK    3  A    between atoms: C_12  and  S_13
REMARK    4  A    between atoms: S_13  and  C_16
REMARK                            x       y       z     vdW  Elec       q    Type
REMARK                         _______ _______ _______ _____ _____    ______ ____
ROOT
ATOM      1  C   UNL     1       3.697   4.755  18.447  0.00  0.00    +0.000 C 
ATOM      2  C   UNL     1       4.036   5.169  17.002  0.00  0.00    +0.000 C 
ATOM      3  C   UNL     1       4.564   6.597  16.920  0.00  0.00    +0.000 C 
ATOM      4  C   UNL     1       3.555   7.602  17.468  0.00  0.00    +0.000 C 
ATOM      5  C   UNL     1       2.833   7.150  18.713  0.00  0.00    +0.000 A 
ATOM      6  C   UNL     1       2.087   8.097  19.436  0.00  0.00    +0.000 A 
ATOM      7  C   UNL     1       1.347   7.708  20.557  0.00  0.00    +0.000 A 
ATOM      8  C   UNL     1       1.330   6.376  20.967  0.00  0.00    +0.000 A 
ATOM      9  C   UNL     1       2.069   5.430  20.252  0.00  0.00    +0.000 A 
ATOM     10  C   UNL     1       2.834   5.806  19.133  0.00  0.00    +0.000 A 
ENDROOT
BRANCH   7  11
ATOM     11  S   UNL     1       0.527   8.940  21.544  0.00  0.00    +0.000 S 
ATOM     12  O   UNL     1      -0.742   8.374  21.971  0.00  0.00    +0.000 OA
ATOM     13  O   UNL     1       1.482   9.402  22.539  0.00  0.00    +0.000 OA
BRANCH  11  14
ATOM     14  C   UNL     1       0.163  10.322  20.487  0.00  0.00    +0.000 A 
ATOM     15  C   UNL     1       0.936  11.486  20.580  0.00  0.00    +0.000 A 
ATOM     16  C   UNL     1       0.696  12.542  19.701  0.00  0.00    +0.000 A 
ATOM     17  C   UNL     1      -0.300  12.429  18.727  0.00  0.00    +0.000 A 
ATOM     18  C   UNL     1      -1.058  11.262  18.629  0.00  0.00    +0.000 A 
ATOM     19  C   UNL     1      -0.827  10.203  19.507  0.00  0.00    +0.000 A 
ENDBRANCH  11  14
ENDBRANCH   7  11
BRANCH   1  20
ATOM     20  C   UNL     1       4.959   4.484  19.300  0.00  0.00    +0.000 C 
BRANCH  20  24
ATOM     21  N   UNL     1       5.165   0.944  20.048  0.00  0.00    +0.000 N 
ATOM     22  C   UNL     1       4.641   2.196  20.122  0.00  0.00    +0.000 C 
ATOM     23  O   UNL     1       3.665   2.449  20.808  0.00  0.00    +0.000 OA
ATOM     24  N   UNL     1       5.324   3.081  19.339  0.00  0.00    +0.000 N 
ATOM     25  H   UNL     1       4.601   0.251  20.527  0.00  0.00    +0.000 HD
ATOM     26  H   UNL     1       5.499   0.655  19.141  0.00  0.00    +0.000 HD
ATOM     27  H   UNL     1       6.298   2.848  19.193  0.00  0.00    +0.000 HD
ENDBRANCH  20  24
ENDBRANCH   1  20
TORSDOF 4
ENDMDL
MODEL 8
REMARK VINA RESULT:      -8.3      4.840      7.657
REMARK  Name = 
REMARK  4 active torsions:
REMARK  status: ('A' for Active; 'I' for Inactive)
REMARK    1  A    between atoms: N_4  and  C_5
REMARK    2  A    between atoms: C_5  and  C_6
REMARK    3  A    between atoms: C_12  and  S_13
REMARK    4  A    between atoms: S_13  and  C_16
REMARK                            x       y       z     vdW  Elec       q    Type
REMARK                         _______ _______ _______ _____ _____    ______ ____
ROOT
ATOM      1  C   UNL     1       3.710   4.725  18.418  0.00  0.00    +0.000 C 
ATOM      2  C   UNL     1       4.054   5.085  16.960  0.00  0.00    +0.000 C 
ATOM      3  C   UNL     1       4.606   6.501  16.831  0.00  0.00    +0.000 C 
ATOM      4  C   UNL     1       3.614   7.540  17.346  0.00  0.00    +0.000 C 
ATOM      5  C   UNL     1       2.886   7.141  18.606  0.00  0.00    +0.000 A 
ATOM      6  C   UNL     1       2.157   8.124  19.299  0.00  0.00    +0.000 A 
ATOM      7  C   UNL     1       1.412   7.784  20.432  0.00  0.00    +0.000 A 
ATOM      8  C   UNL     1       1.374   6.467  20.886  0.00  0.00    +0.000 A 
ATOM      9  C   UNL     1       2.096   5.486  20.202  0.00  0.00    +0.000 A 
ATOM     10  C   UNL     1       2.865   5.812  19.070  0.00  0.00    +0.000 A 
ENDROOT
BRANCH   7  11
ATOM     11  S   UNL     1       0.614   9.061  21.378  0.00  0.00    +0.000 S 
ATOM     12  O   UNL     1      -0.646   8.518  21.858  0.00  0.00    +0.000 OA
ATOM     13  O   UNL     1       1.591   9.567  22.331  0.00  0.00    +0.000 OA
BRANCH  11  14
ATOM     14  C   UNL     1       0.229  10.394  20.268  0.00  0.00    +0.000 A 
ATOM     15  C   UNL     1      -0.852  10.270  19.387  0.00  0.00    +0.000 A 
ATOM     16  C   UNL     1      -1.197  11.346  18.568  0.00  0.00    +0.000 A 
ATOM     17  C   UNL     1      -0.476  12.539  18.639  0.00  0.00    +0.000 A 
ATOM     18  C   UNL     1       0.593  12.663  19.528  0.00  0.00    +0.000 A 
ATOM     19  C   UNL     1       0.947  11.592  20.348  0.00  0.00    +0.000 A 
ENDBRANCH  11  14
ENDBRANCH   7  11
BRANCH   1  20
ATOM     20  C   UNL     1       4.968   4.460  19.279  0.00  0.00    +0.000 C 
BRANCH  20  24
ATOM     21  N   UNL     1       5.161   0.928  20.067  0.00  0.00    +0.000 N 
ATOM     22  C   UNL     1       4.639   2.182  20.123  0.00  0.00    +0.000 C 
ATOM     23  O   UNL     1       3.659   2.445  20.799  0.00  0.00    +0.000 OA
ATOM     24  N   UNL     1       5.330   3.057  19.336  0.00  0.00    +0.000 N 
ATOM     25  H   UNL     1       4.592   0.243  20.549  0.00  0.00    +0.000 HD
ATOM     26  H   UNL     1       5.500   0.629  19.165  0.00  0.00    +0.000 HD
ATOM     27  H   UNL     1       6.304   2.821  19.200  0.00  0.00    +0.000 HD
ENDBRANCH  20  24
ENDBRANCH   1  20
TORSDOF 4
ENDMDL
MODEL 9
REMARK VINA RESULT:      -8.3      1.801      2.935
REMARK  Name = 
REMARK  4 active torsions:
REMARK  status: ('A' for Active; 'I' for Inactive)
REMARK    1  A    between atoms: N_4  and  C_5
REMARK    2  A    between atoms: C_5  and  C_6
REMARK    3  A    between atoms: C_12  and  S_13
REMARK    4  A    between atoms: S_13  and  C_16
REMARK                            x       y       z     vdW  Elec       q    Type
REMARK                         _______ _______ _______ _____ _____    ______ ____
ROOT
ATOM      1  C   UNL     1       2.431   5.696  19.983  0.00  0.00    +0.000 C 
ATOM      2  C   UNL     1       1.821   7.109  20.051  0.00  0.00    +0.000 C 
ATOM      3  C   UNL     1       1.695   7.750  18.673  0.00  0.00    +0.000 C 
ATOM      4  C   UNL     1       3.050   7.860  17.979  0.00  0.00    +0.000 C 
ATOM      5  C   UNL     1       3.946   6.660  18.158  0.00  0.00    +0.000 A 
ATOM      6  C   UNL     1       5.091   6.552  17.351  0.00  0.00    +0.000 A 
ATOM      7  C   UNL     1       5.986   5.492  17.530  0.00  0.00    +0.000 A 
ATOM      8  C   UNL     1       5.759   4.534  18.516  0.00  0.00    +0.000 A 
ATOM      9  C   UNL     1       4.623   4.636  19.322  0.00  0.00    +0.000 A 
ATOM     10  C   UNL     1       3.702   5.684  19.144  0.00  0.00    +0.000 A 
ENDROOT
BRANCH   7  11
ATOM     11  S   UNL     1       7.351   5.291  16.408  0.00  0.00    +0.000 S 
ATOM     12  O   UNL     1       7.924   6.608  16.186  0.00  0.00    +0.000 OA
ATOM     13  O   UNL     1       8.187   4.221  16.932  0.00  0.00    +0.000 OA
BRANCH  11  14
ATOM     14  C   UNL     1       6.695   4.729  14.855  0.00  0.00    +0.000 A 
ATOM     15  C   UNL     1       7.483   4.812  13.701  0.00  0.00    +0.000 A 
ATOM     16  C   UNL     1       6.993   4.303  12.497  0.00  0.00    +0.000 A 
ATOM     17  C   UNL     1       5.732   3.704  12.453  0.00  0.00    +0.000 A 
ATOM     18  C   UNL     1       4.956   3.611  13.609  0.00  0.00    +0.000 A 
ATOM     19  C   UNL     1       5.436   4.121  14.815  0.00  0.00    +0.000 A 
ENDBRANCH  11  14
ENDBRANCH   7  11
BRANCH   1  20
ATOM     20  C   UNL     1       1.438   4.645  19.433  0.00  0.00    +0.000 C 
BRANCH  20  24
ATOM     21  N   UNL     1       2.661   1.355  18.528  0.00  0.00    +0.000 N 
ATOM     22  C   UNL     1       2.200   2.612  18.293  0.00  0.00    +0.000 C 
ATOM     23  O   UNL     1       2.036   3.040  17.163  0.00  0.00    +0.000 OA
ATOM     24  N   UNL     1       1.973   3.297  19.452  0.00  0.00    +0.000 N 
ATOM     25  H   UNL     1       2.947   0.875  17.684  0.00  0.00    +0.000 HD
ATOM     26  H   UNL     1       3.302   1.256  19.302  0.00  0.00    +0.000 HD
ATOM     27  H   UNL     1       1.743   2.714  20.246  0.00  0.00    +0.000 HD
ENDBRANCH  20  24
ENDBRANCH   1  20
TORSDOF 4
ENDMDL
