MODEL 1
REMARK VINA RESULT:      -8.6      0.000      0.000
REMARK  Name = 
REMARK  9 active torsions:
REMARK  status: ('A' for Active; 'I' for Inactive)
REMARK    1  A    between atoms: C_1  and  O_2
REMARK    2  A    between atoms: O_2  and  C_3
REMARK    3  A    between atoms: C_8  and  C_9
REMARK    4  A    between atoms: C_9  and  N_10
REMARK    5  A    between atoms: C_11  and  C_13
REMARK    6  A    between atoms: C_16  and  N_17
REMARK    7  A    between atoms: C_22  and  N_23
REMARK    8  A    between atoms: N_26  and  C_27
REMARK    9  A    between atoms: C_27  and  C_28
REMARK                            x       y       z     vdW  Elec       q    Type
REMARK                         _______ _______ _______ _____ _____    ______ ____
ROOT
ATOM      1  C   UNL     1       1.793   7.398  20.090  0.00  0.00    +0.000 A 
ATOM      2  C   UNL     1       1.231   6.440  20.937  0.00  0.00    +0.000 A 
ATOM      3  C   UNL     1       1.585   5.081  20.830  0.00  0.00    +0.000 A 
ATOM      4  C   UNL     1       2.486   4.607  19.864  0.00  0.00    +0.000 A 
ATOM      5  C   UNL     1       3.054   5.609  19.031  0.00  0.00    +0.000 A 
ATOM      6  C   UNL     1       2.739   6.974  19.154  0.00  0.00    +0.000 A 
ENDROOT
BRANCH   5   7
ATOM      7  N   UNL     1       3.802   5.191  17.918  0.00  0.00    +0.000 N 
ATOM      8  C   UNL     1       5.169   5.185  17.884  0.00  0.00    +0.000 C 
ATOM      9  O   UNL     1       5.913   5.684  18.721  0.00  0.00    +0.000 OA
ATOM     10  N   UNL     1       5.717   4.502  16.833  0.00  0.00    +0.000 N 
ATOM     11  H   UNL     1       3.347   4.451  17.418  0.00  0.00    +0.000 HD
ATOM     12  H   UNL     1       6.723   4.597  16.806  0.00  0.00    +0.000 HD
BRANCH  10  13
ATOM     13  C   UNL     1       5.055   3.970  15.658  0.00  0.00    +0.000 C 
BRANCH  13  14
ATOM     14  C   UNL     1       5.873   4.209  14.420  0.00  0.00    +0.000 A 
ATOM     15  C   UNL     1       5.565   3.512  13.247  0.00  0.00    +0.000 A 
ATOM     16  C   UNL     1       6.365   3.654  12.113  0.00  0.00    +0.000 A 
ATOM     17  C   UNL     1       7.474   4.495  12.143  0.00  0.00    +0.000 A 
ATOM     18  C   UNL     1       7.783   5.201  13.304  0.00  0.00    +0.000 A 
ATOM     19  C   UNL     1       6.985   5.061  14.440  0.00  0.00    +0.000 A 
ENDBRANCH  13  14
ENDBRANCH  10  13
ENDBRANCH   5   7
BRANCH   4  20
ATOM     20  N   UNL     1       2.781   3.247  19.714  0.00  0.00    +0.000 N 
ATOM     21  C   UNL     1       3.886   2.578  20.412  0.00  0.00    +0.000 C 
ATOM     22  C   UNL     1       4.606   1.785  19.327  0.00  0.00    +0.000 C 
ATOM     23  C   UNL     1       3.484   1.367  18.404  0.00  0.00    +0.000 C 
ATOM     24  C   UNL     1       2.521   2.552  18.435  0.00  0.00    +0.000 C 
ENDBRANCH   4  20
BRANCH   1  26
ATOM     25  N   UNL     1       1.114   9.409  18.834  0.00  0.00    +0.000 N 
ATOM     26  C   UNL     1       1.348   8.831  20.066  0.00  0.00    +0.000 C 
ATOM     27  O   UNL     1       1.232   9.454  21.120  0.00  0.00    +0.000 OA
ATOM     28  H   UNL     1       1.077   8.849  17.999  0.00  0.00    +0.000 HD
BRANCH  25  29
ATOM     29  C   UNL     1       0.683  10.785  18.685  0.00  0.00    +0.000 C 
BRANCH  29  35
ATOM     30  C   UNL     1      -1.623  11.791  19.172  0.00  0.00    +0.000 A 
ATOM     31  C   UNL     1      -2.995  11.847  18.892  0.00  0.00    +0.000 A 
ATOM     32  C   UNL     1      -3.566  10.991  17.950  0.00  0.00    +0.000 A 
ATOM     33  C   UNL     1      -2.767  10.087  17.261  0.00  0.00    +0.000 A 
ATOM     34  C   UNL     1      -1.397  10.045  17.507  0.00  0.00    +0.000 A 
ATOM     35  C   UNL     1      -0.806  10.890  18.466  0.00  0.00    +0.000 A 
BRANCH  30  37
ATOM     36  C   UNL     1      -0.934  13.986  19.702  0.00  0.00    +0.000 C 
ATOM     37  O   UNL     1      -1.016  12.614  20.089  0.00  0.00    +0.000 OA
ENDBRANCH  30  37
ENDBRANCH  29  35
ENDBRANCH  25  29
ENDBRANCH   1  26
TORSDOF 8
ENDMDL
MODEL 2
REMARK VINA RESULT:      -8.5      1.339      4.665
REMARK  Name = 
REMARK  9 active torsions:
REMARK  status: ('A' for Active; 'I' for Inactive)
REMARK    1  A    between atoms: C_1  and  O_2
REMARK    2  A    between atoms: O_2  and  C_3
REMARK    3  A    between atoms: C_8  and  C_9
REMARK    4  A    between atoms: C_9  and  N_10
REMARK    5  A    between atoms: C_11  and  C_13
REMARK    6  A    between atoms: C_16  and  N_17
REMARK    7  A    between atoms: C_22  and  N_23
REMARK    8  A    between atoms: N_26  and  C_27
REMARK    9  A    between atoms: C_27  and  C_28
REMARK                            x       y       z     vdW  Elec       q    Type
REMARK                         _______ _______ _______ _____ _____    ______ ____
ROOT
ATOM      1  C   UNL     1       2.739   7.569  18.252  0.00  0.00    +0.000 A 
ATOM      2  C   UNL     1       3.482   8.062  17.176  0.00  0.00    +0.000 A 
ATOM      3  C   UNL     1       4.377   7.232  16.473  0.00  0.00    +0.000 A 
ATOM      4  C   UNL     1       4.596   5.889  16.820  0.00  0.00    +0.000 A 
ATOM      5  C   UNL     1       3.811   5.414  17.905  0.00  0.00    +0.000 A 
ATOM      6  C   UNL     1       2.886   6.223  18.590  0.00  0.00    +0.000 A 
ENDROOT
BRANCH   5   7
ATOM      7  N   UNL     1       4.119   4.151  18.437  0.00  0.00    +0.000 N 
ATOM      8  C   UNL     1       5.239   3.897  19.179  0.00  0.00    +0.000 C 
ATOM      9  O   UNL     1       6.187   4.658  19.339  0.00  0.00    +0.000 OA
ATOM     10  N   UNL     1       5.238   2.694  19.831  0.00  0.00    +0.000 N 
ATOM     11  H   UNL     1       3.296   3.644  18.698  0.00  0.00    +0.000 HD
ATOM     12  H   UNL     1       6.118   2.518  20.296  0.00  0.00    +0.000 HD
BRANCH  10  13
ATOM     13  C   UNL     1       4.318   1.585  19.679  0.00  0.00    +0.000 C 
BRANCH  13  14
ATOM     14  C   UNL     1       2.892   2.042  19.819  0.00  0.00    +0.000 A 
ATOM     15  C   UNL     1       2.022   1.925  18.730  0.00  0.00    +0.000 A 
ATOM     16  C   UNL     1       0.721   2.421  18.812  0.00  0.00    +0.000 A 
ATOM     17  C   UNL     1       0.281   3.034  19.982  0.00  0.00    +0.000 A 
ATOM     18  C   UNL     1       1.137   3.147  21.076  0.00  0.00    +0.000 A 
ATOM     19  C   UNL     1       2.440   2.651  20.997  0.00  0.00    +0.000 A 
ENDBRANCH  13  14
ENDBRANCH  10  13
ENDBRANCH   5   7
BRANCH   4  20
ATOM     20  N   UNL     1       5.536   5.087  16.164  0.00  0.00    +0.000 N 
ATOM     21  C   UNL     1       6.946   5.461  16.003  0.00  0.00    +0.000 C 
ATOM     22  C   UNL     1       7.249   5.207  14.530  0.00  0.00    +0.000 C 
ATOM     23  C   UNL     1       6.394   4.002  14.206  0.00  0.00    +0.000 C 
ATOM     24  C   UNL     1       5.134   4.210  15.044  0.00  0.00    +0.000 C 
ENDBRANCH   4  20
BRANCH   1  26
ATOM     25  N   UNL     1       1.278   9.536  18.534  0.00  0.00    +0.000 N 
ATOM     26  C   UNL     1       1.882   8.442  19.122  0.00  0.00    +0.000 C 
ATOM     27  O   UNL     1       1.761   8.186  20.317  0.00  0.00    +0.000 OA
ATOM     28  H   UNL     1       1.272   9.649  17.534  0.00  0.00    +0.000 HD
BRANCH  25  29
ATOM     29  C   UNL     1       0.430  10.452  19.272  0.00  0.00    +0.000 C 
BRANCH  29  35
ATOM     30  C   UNL     1      -1.912  11.481  19.124  0.00  0.00    +0.000 A 
ATOM     31  C   UNL     1      -3.134  11.599  18.449  0.00  0.00    +0.000 A 
ATOM     32  C   UNL     1      -3.396  10.838  17.310  0.00  0.00    +0.000 A 
ATOM     33  C   UNL     1      -2.429   9.969  16.820  0.00  0.00    +0.000 A 
ATOM     34  C   UNL     1      -1.198   9.868  17.464  0.00  0.00    +0.000 A 
ATOM     35  C   UNL     1      -0.922  10.616  18.623  0.00  0.00    +0.000 A 
BRANCH  30  37
ATOM     36  C   UNL     1      -1.356  13.596  20.014  0.00  0.00    +0.000 C 
ATOM     37  O   UNL     1      -1.608  12.211  20.248  0.00  0.00    +0.000 OA
ENDBRANCH  30  37
ENDBRANCH  29  35
ENDBRANCH  25  29
ENDBRANCH   1  26
TORSDOF 8
ENDMDL
MODEL 3
REMARK VINA RESULT:      -8.5      1.623      2.188
REMARK  Name = 
REMARK  9 active torsions:
REMARK  status: ('A' for Active; 'I' for Inactive)
REMARK    1  A    between atoms: C_1  and  O_2
REMARK    2  A    between atoms: O_2  and  C_3
REMARK    3  A    between atoms: C_8  and  C_9
REMARK    4  A    between atoms: C_9  and  N_10
REMARK    5  A    between atoms: C_11  and  C_13
REMARK    6  A    between atoms: C_16  and  N_17
REMARK    7  A    between atoms: C_22  and  N_23
REMARK    8  A    between atoms: N_26  and  C_27
REMARK    9  A    between atoms: C_27  and  C_28
REMARK                            x       y       z     vdW  Elec       q    Type
REMARK                         _______ _______ _______ _____ _____    ______ ____
ROOT
ATOM      1  C   UNL     1       1.871   7.943  19.457  0.00  0.00    +0.000 A 
ATOM      2  C   UNL     1       1.246   7.128  20.405  0.00  0.00    +0.000 A 
ATOM      3  C   UNL     1       1.553   5.757  20.497  0.00  0.00    +0.000 A 
ATOM      4  C   UNL     1       2.467   5.126  19.639  0.00  0.00    +0.000 A 
ATOM      5  C   UNL     1       3.099   5.985  18.700  0.00  0.00    +0.000 A 
ATOM      6  C   UNL     1       2.831   7.363  18.624  0.00  0.00    +0.000 A 
ENDROOT
BRANCH   5   7
ATOM      7  N   UNL     1       3.867   5.395  17.682  0.00  0.00    +0.000 N 
ATOM      8  C   UNL     1       5.232   5.321  17.711  0.00  0.00    +0.000 C 
ATOM      9  O   UNL     1       5.968   5.887  18.512  0.00  0.00    +0.000 OA
ATOM     10  N   UNL     1       5.785   4.485  16.780  0.00  0.00    +0.000 N 
ATOM     11  H   UNL     1       3.395   4.619  17.260  0.00  0.00    +0.000 HD
ATOM     12  H   UNL     1       6.794   4.528  16.788  0.00  0.00    +0.000 HD
BRANCH  10  13
ATOM     13  C   UNL     1       5.142   3.839  15.653  0.00  0.00    +0.000 C 
BRANCH  13  14
ATOM     14  C   UNL     1       5.890   4.107  14.377  0.00  0.00    +0.000 A 
ATOM     15  C   UNL     1       5.508   3.447  13.203  0.00  0.00    +0.000 A 
ATOM     16  C   UNL     1       6.241   3.617  12.029  0.00  0.00    +0.000 A 
ATOM     17  C   UNL     1       7.358   4.448  12.019  0.00  0.00    +0.000 A 
ATOM     18  C   UNL     1       7.741   5.118  13.180  0.00  0.00    +0.000 A 
ATOM     19  C   UNL     1       7.009   4.950  14.357  0.00  0.00    +0.000 A 
ENDBRANCH  13  14
ENDBRANCH  10  13
ENDBRANCH   5   7
BRANCH   4  20
ATOM     20  N   UNL     1       2.717   3.750  19.687  0.00  0.00    +0.000 N 
ATOM     21  C   UNL     1       3.877   3.162  20.368  0.00  0.00    +0.000 C 
ATOM     22  C   UNL     1       4.459   2.176  19.361  0.00  0.00    +0.000 C 
ATOM     23  C   UNL     1       3.235   1.656  18.642  0.00  0.00    +0.000 C 
ATOM     24  C   UNL     1       2.305   2.866  18.575  0.00  0.00    +0.000 C 
ENDBRANCH   4  20
BRANCH   1  26
ATOM     25  N   UNL     1       1.085  10.117  20.316  0.00  0.00    +0.000 N 
ATOM     26  C   UNL     1       1.480   9.373  19.221  0.00  0.00    +0.000 C 
ATOM     27  O   UNL     1       1.494   9.832  18.082  0.00  0.00    +0.000 OA
ATOM     28  H   UNL     1       1.215   9.770  21.251  0.00  0.00    +0.000 HD
BRANCH  25  29
ATOM     29  C   UNL     1       0.683  11.506  20.212  0.00  0.00    +0.000 C 
BRANCH  29  35
ATOM     30  C   UNL     1      -0.768  11.368  22.320  0.00  0.00    +0.000 A 
ATOM     31  C   UNL     1      -1.957  11.693  22.985  0.00  0.00    +0.000 A 
ATOM     32  C   UNL     1      -2.972  12.392  22.331  0.00  0.00    +0.000 A 
ATOM     33  C   UNL     1      -2.797  12.796  21.013  0.00  0.00    +0.000 A 
ATOM     34  C   UNL     1      -1.606  12.507  20.352  0.00  0.00    +0.000 A 
ATOM     35  C   UNL     1      -0.578  11.788  20.991  0.00  0.00    +0.000 A 
BRANCH  30  37
ATOM     36  C   UNL     1      -0.110   9.427  23.490  0.00  0.00    +0.000 C 
ATOM     37  O   UNL     1       0.259  10.683  22.923  0.00  0.00    +0.000 OA
ENDBRANCH  30  37
ENDBRANCH  29  35
ENDBRANCH  25  29
ENDBRANCH   1  26
TORSDOF 8
ENDMDL
MODEL 4
REMARK VINA RESULT:      -8.2      1.155      1.500
REMARK  Name = 
REMARK  9 active torsions:
REMARK  status: ('A' for Active; 'I' for Inactive)
REMARK    1  A    between atoms: C_1  and  O_2
REMARK    2  A    between atoms: O_2  and  C_3
REMARK    3  A    between atoms: C_8  and  C_9
REMARK    4  A    between atoms: C_9  and  N_10
REMARK    5  A    between atoms: C_11  and  C_13
REMARK    6  A    between atoms: C_16  and  N_17
REMARK    7  A    between atoms: C_22  and  N_23
REMARK    8  A    between atoms: N_26  and  C_27
REMARK    9  A    between atoms: C_27  and  C_28
REMARK                            x       y       z     vdW  Elec       q    Type
REMARK                         _______ _______ _______ _____ _____    ______ ____
ROOT
ATOM      1  C   UNL     1       1.923   8.280  19.147  0.00  0.00    +0.000 A 
ATOM      2  C   UNL     1       1.440   7.499  20.200  0.00  0.00    +0.000 A 
ATOM      3  C   UNL     1       1.872   6.170  20.375  0.00  0.00    +0.000 A 
ATOM      4  C   UNL     1       2.778   5.547  19.501  0.00  0.00    +0.000 A 
ATOM      5  C   UNL     1       3.265   6.375  18.453  0.00  0.00    +0.000 A 
ATOM      6  C   UNL     1       2.871   7.715  18.292  0.00  0.00    +0.000 A 
ENDROOT
BRANCH   5   7
ATOM      7  N   UNL     1       4.011   5.768  17.429  0.00  0.00    +0.000 N 
ATOM      8  C   UNL     1       5.356   5.950  17.263  0.00  0.00    +0.000 C 
ATOM      9  O   UNL     1       6.051   6.771  17.852  0.00  0.00    +0.000 OA
ATOM     10  N   UNL     1       5.953   5.081  16.392  0.00  0.00    +0.000 N 
ATOM     11  H   UNL     1       3.661   4.857  17.201  0.00  0.00    +0.000 HD
ATOM     12  H   UNL     1       6.926   5.308  16.241  0.00  0.00    +0.000 HD
BRANCH  10  13
ATOM     13  C   UNL     1       5.327   4.142  15.482  0.00  0.00    +0.000 C 
BRANCH  13  14
ATOM     14  C   UNL     1       6.028   4.128  14.152  0.00  0.00    +0.000 A 
ATOM     15  C   UNL     1       7.133   4.962  13.948  0.00  0.00    +0.000 A 
ATOM     16  C   UNL     1       7.744   5.028  12.696  0.00  0.00    +0.000 A 
ATOM     17  C   UNL     1       7.257   4.260  11.642  0.00  0.00    +0.000 A 
ATOM     18  C   UNL     1       6.162   3.420  11.837  0.00  0.00    +0.000 A 
ATOM     19  C   UNL     1       5.549   3.352  13.089  0.00  0.00    +0.000 A 
ENDBRANCH  13  14
ENDBRANCH  10  13
ENDBRANCH   5   7
BRANCH   4  20
ATOM     20  N   UNL     1       3.152   4.206  19.636  0.00  0.00    +0.000 N 
ATOM     21  C   UNL     1       4.544   3.764  19.773  0.00  0.00    +0.000 C 
ATOM     22  C   UNL     1       4.689   2.620  18.776  0.00  0.00    +0.000 C 
ATOM     23  C   UNL     1       3.327   1.964  18.805  0.00  0.00    +0.000 C 
ATOM     24  C   UNL     1       2.360   3.131  18.999  0.00  0.00    +0.000 C 
ENDBRANCH   4  20
BRANCH   1  26
ATOM     25  N   UNL     1       0.209  10.030  19.435  0.00  0.00    +0.000 N 
ATOM     26  C   UNL     1       1.392   9.648  18.833  0.00  0.00    +0.000 C 
ATOM     27  O   UNL     1       1.993  10.372  18.042  0.00  0.00    +0.000 OA
ATOM     28  H   UNL     1      -0.190   9.486  20.181  0.00  0.00    +0.000 HD
BRANCH  25  29
ATOM     29  C   UNL     1      -0.401  11.325  19.207  0.00  0.00    +0.000 C 
BRANCH  29  35
ATOM     30  C   UNL     1      -2.868  12.017  19.191  0.00  0.00    +0.000 A 
ATOM     31  C   UNL     1      -4.160  11.858  18.672  0.00  0.00    +0.000 A 
ATOM     32  C   UNL     1      -4.430  10.870  17.724  0.00  0.00    +0.000 A 
ATOM     33  C   UNL     1      -3.407  10.048  17.268  0.00  0.00    +0.000 A 
ATOM     34  C   UNL     1      -2.113  10.219  17.754  0.00  0.00    +0.000 A 
ATOM     35  C   UNL     1      -1.825  11.200  18.722  0.00  0.00    +0.000 A 
BRANCH  30  37
ATOM     36  C   UNL     1      -3.052  12.722  21.437  0.00  0.00    +0.000 C 
ATOM     37  O   UNL     1      -2.554  12.976  20.123  0.00  0.00    +0.000 OA
ENDBRANCH  30  37
ENDBRANCH  29  35
ENDBRANCH  25  29
ENDBRANCH   1  26
TORSDOF 8
ENDMDL
MODEL 5
REMARK VINA RESULT:      -8.2      1.441      2.210
REMARK  Name = 
REMARK  9 active torsions:
REMARK  status: ('A' for Active; 'I' for Inactive)
REMARK    1  A    between atoms: C_1  and  O_2
REMARK    2  A    between atoms: O_2  and  C_3
REMARK    3  A    between atoms: C_8  and  C_9
REMARK    4  A    between atoms: C_9  and  N_10
REMARK    5  A    between atoms: C_11  and  C_13
REMARK    6  A    between atoms: C_16  and  N_17
REMARK    7  A    between atoms: C_22  and  N_23
REMARK    8  A    between atoms: N_26  and  C_27
REMARK    9  A    between atoms: C_27  and  C_28
REMARK                            x       y       z     vdW  Elec       q    Type
REMARK                         _______ _______ _______ _____ _____    ______ ____
ROOT
ATOM      1  C   UNL     1       1.913   8.721  18.800  0.00  0.00    +0.000 A 
ATOM      2  C   UNL     1       1.357   8.022  19.874  0.00  0.00    +0.000 A 
ATOM      3  C   UNL     1       1.728   6.690  20.143  0.00  0.00    +0.000 A 
ATOM      4  C   UNL     1       2.641   5.983  19.346  0.00  0.00    +0.000 A 
ATOM      5  C   UNL     1       3.204   6.728  18.273  0.00  0.00    +0.000 A 
ATOM      6  C   UNL     1       2.871   8.070  18.018  0.00  0.00    +0.000 A 
ENDROOT
BRANCH   5   7
ATOM      7  N   UNL     1       3.964   6.033  17.318  0.00  0.00    +0.000 N 
ATOM      8  C   UNL     1       5.320   6.158  17.195  0.00  0.00    +0.000 C 
ATOM      9  O   UNL     1       6.022   6.990  17.761  0.00  0.00    +0.000 OA
ATOM     10  N   UNL     1       5.917   5.217  16.402  0.00  0.00    +0.000 N 
ATOM     11  H   UNL     1       3.589   5.123  17.131  0.00  0.00    +0.000 HD
ATOM     12  H   UNL     1       6.903   5.401  16.277  0.00  0.00    +0.000 HD
BRANCH  10  13
ATOM     13  C   UNL     1       5.291   4.247  15.526  0.00  0.00    +0.000 C 
BRANCH  13  14
ATOM     14  C   UNL     1       5.999   4.179  14.201  0.00  0.00    +0.000 A 
ATOM     15  C   UNL     1       7.090   5.021  13.959  0.00  0.00    +0.000 A 
ATOM     16  C   UNL     1       7.705   5.035  12.708  0.00  0.00    +0.000 A 
ATOM     17  C   UNL     1       7.238   4.206  11.692  0.00  0.00    +0.000 A 
ATOM     18  C   UNL     1       6.157   3.356  11.926  0.00  0.00    +0.000 A 
ATOM     19  C   UNL     1       5.540   3.340  13.177  0.00  0.00    +0.000 A 
ENDBRANCH  13  14
ENDBRANCH  10  13
ENDBRANCH   5   7
BRANCH   4  20
ATOM     20  N   UNL     1       2.955   4.639  19.573  0.00  0.00    +0.000 N 
ATOM     21  C   UNL     1       4.300   4.171  19.927  0.00  0.00    +0.000 C 
ATOM     22  C   UNL     1       4.559   2.992  18.995  0.00  0.00    +0.000 C 
ATOM     23  C   UNL     1       3.190   2.368  18.842  0.00  0.00    +0.000 C 
ATOM     24  C   UNL     1       2.237   3.562  18.856  0.00  0.00    +0.000 C 
ENDBRANCH   4  20
BRANCH   1  26
ATOM     25  N   UNL     1       0.230  10.522  18.861  0.00  0.00    +0.000 N 
ATOM     26  C   UNL     1       1.451  10.087  18.385  0.00  0.00    +0.000 C 
ATOM     27  O   UNL     1       2.141  10.763  17.625  0.00  0.00    +0.000 OA
ATOM     28  H   UNL     1      -0.251  10.019  19.588  0.00  0.00    +0.000 HD
BRANCH  25  29
ATOM     29  C   UNL     1      -0.322  11.820  18.527  0.00  0.00    +0.000 C 
BRANCH  29  35
ATOM     30  C   UNL     1      -2.714  11.185  17.864  0.00  0.00    +0.000 A 
ATOM     31  C   UNL     1      -4.091  11.250  18.117  0.00  0.00    +0.000 A 
ATOM     32  C   UNL     1      -4.585  12.012  19.175  0.00  0.00    +0.000 A 
ATOM     33  C   UNL     1      -3.708  12.697  20.006  0.00  0.00    +0.000 A 
ATOM     34  C   UNL     1      -2.335  12.613  19.784  0.00  0.00    +0.000 A 
ATOM     35  C   UNL     1      -1.819  11.862  18.712  0.00  0.00    +0.000 A 
BRANCH  30  37
ATOM     36  C   UNL     1      -2.742  10.713  15.551  0.00  0.00    +0.000 C 
ATOM     37  O   UNL     1      -2.180  10.446  16.836  0.00  0.00    +0.000 OA
ENDBRANCH  30  37
ENDBRANCH  29  35
ENDBRANCH  25  29
ENDBRANCH   1  26
TORSDOF 8
ENDMDL
MODEL 6
REMARK VINA RESULT:      -8.2      1.403      2.153
REMARK  Name = 
REMARK  9 active torsions:
REMARK  status: ('A' for Active; 'I' for Inactive)
REMARK    1  A    between atoms: C_1  and  O_2
REMARK    2  A    between atoms: O_2  and  C_3
REMARK    3  A    between atoms: C_8  and  C_9
REMARK    4  A    between atoms: C_9  and  N_10
REMARK    5  A    between atoms: C_11  and  C_13
REMARK    6  A    between atoms: C_16  and  N_17
REMARK    7  A    between atoms: C_22  and  N_23
REMARK    8  A    between atoms: N_26  and  C_27
REMARK    9  A    between atoms: C_27  and  C_28
REMARK                            x       y       z     vdW  Elec       q    Type
REMARK                         _______ _______ _______ _____ _____    ______ ____
ROOT
ATOM      1  C   UNL     1       1.856   8.590  18.989  0.00  0.00    +0.000 A 
ATOM      2  C   UNL     1       1.257   7.947  20.076  0.00  0.00    +0.000 A 
ATOM      3  C   UNL     1       1.576   6.613  20.395  0.00  0.00    +0.000 A 
ATOM      4  C   UNL     1       2.477   5.848  19.638  0.00  0.00    +0.000 A 
ATOM      5  C   UNL     1       3.084   6.537  18.553  0.00  0.00    +0.000 A 
ATOM      6  C   UNL     1       2.803   7.881  18.248  0.00  0.00    +0.000 A 
ENDROOT
BRANCH   5   7
ATOM      7  N   UNL     1       3.836   5.785  17.635  0.00  0.00    +0.000 N 
ATOM      8  C   UNL     1       5.182   5.576  17.752  0.00  0.00    +0.000 C 
ATOM      9  O   UNL     1       5.933   6.134  18.546  0.00  0.00    +0.000 OA
ATOM     10  N   UNL     1       5.691   4.610  16.928  0.00  0.00    +0.000 N 
ATOM     11  H   UNL     1       3.307   5.026  17.251  0.00  0.00    +0.000 HD
ATOM     12  H   UNL     1       6.697   4.552  16.992  0.00  0.00    +0.000 HD
BRANCH  10  13
ATOM     13  C   UNL     1       5.042   3.935  15.822  0.00  0.00    +0.000 C 
BRANCH  13  14
ATOM     14  C   UNL     1       5.795   4.150  14.539  0.00  0.00    +0.000 A 
ATOM     15  C   UNL     1       5.404   3.460  13.386  0.00  0.00    +0.000 A 
ATOM     16  C   UNL     1       6.142   3.579  12.209  0.00  0.00    +0.000 A 
ATOM     17  C   UNL     1       7.272   4.390  12.175  0.00  0.00    +0.000 A 
ATOM     18  C   UNL     1       7.665   5.090  13.314  0.00  0.00    +0.000 A 
ATOM     19  C   UNL     1       6.929   4.972  14.494  0.00  0.00    +0.000 A 
ENDBRANCH  13  14
ENDBRANCH  10  13
ENDBRANCH   5   7
BRANCH   4  20
ATOM     20  N   UNL     1       2.739   4.502  19.916  0.00  0.00    +0.000 N 
ATOM     21  C   UNL     1       2.357   3.403  19.021  0.00  0.00    +0.000 C 
ATOM     22  C   UNL     1       1.686   2.380  19.929  0.00  0.00    +0.000 C 
ATOM     23  C   UNL     1       2.449   2.517  21.227  0.00  0.00    +0.000 C 
ATOM     24  C   UNL     1       2.770   4.008  21.309  0.00  0.00    +0.000 C 
ENDBRANCH   4  20
BRANCH   1  26
ATOM     25  N   UNL     1       0.494  10.628  19.259  0.00  0.00    +0.000 N 
ATOM     26  C   UNL     1       1.450   9.957  18.521  0.00  0.00    +0.000 C 
ATOM     27  O   UNL     1       1.945  10.427  17.500  0.00  0.00    +0.000 OA
ATOM     28  H   UNL     1       0.207  10.291  20.162  0.00  0.00    +0.000 HD
BRANCH  25  29
ATOM     29  C   UNL     1       0.021  11.952  18.904  0.00  0.00    +0.000 C 
BRANCH  29  35
ATOM     30  C   UNL     1      -2.427  11.687  18.193  0.00  0.00    +0.000 A 
ATOM     31  C   UNL     1      -3.789  11.833  18.489  0.00  0.00    +0.000 A 
ATOM     32  C   UNL     1      -4.199  12.422  19.685  0.00  0.00    +0.000 A 
ATOM     33  C   UNL     1      -3.252  12.847  20.609  0.00  0.00    +0.000 A 
ATOM     34  C   UNL     1      -1.896  12.676  20.340  0.00  0.00    +0.000 A 
ATOM     35  C   UNL     1      -1.464  12.100  19.131  0.00  0.00    +0.000 A 
BRANCH  30  37
ATOM     36  C   UNL     1      -2.365   9.752  16.842  0.00  0.00    +0.000 C 
ATOM     37  O   UNL     1      -1.976  11.112  17.029  0.00  0.00    +0.000 OA
ENDBRANCH  30  37
ENDBRANCH  29  35
ENDBRANCH  25  29
ENDBRANCH   1  26
TORSDOF 8
ENDMDL
MODEL 7
REMARK VINA RESULT:      -8.2      2.686     10.768
REMARK  Name = 
REMARK  9 active torsions:
REMARK  status: ('A' for Active; 'I' for Inactive)
REMARK    1  A    between atoms: C_1  and  O_2
REMARK    2  A    between atoms: O_2  and  C_3
REMARK    3  A    between atoms: C_8  and  C_9
REMARK    4  A    between atoms: C_9  and  N_10
REMARK    5  A    between atoms: C_11  and  C_13
REMARK    6  A    between atoms: C_16  and  N_17
REMARK    7  A    between atoms: C_22  and  N_23
REMARK    8  A    between atoms: N_26  and  C_27
REMARK    9  A    between atoms: C_27  and  C_28
REMARK                            x       y       z     vdW  Elec       q    Type
REMARK                         _______ _______ _______ _____ _____    ______ ____
ROOT
ATOM      1  C   UNL     1       2.146   7.701  19.061  0.00  0.00    +0.000 A 
ATOM      2  C   UNL     1       2.079   8.421  17.866  0.00  0.00    +0.000 A 
ATOM      3  C   UNL     1       1.359   9.629  17.787  0.00  0.00    +0.000 A 
ATOM      4  C   UNL     1       0.651  10.161  18.876  0.00  0.00    +0.000 A 
ATOM      5  C   UNL     1       0.756   9.415  20.082  0.00  0.00    +0.000 A 
ATOM      6  C   UNL     1       1.504   8.229  20.183  0.00  0.00    +0.000 A 
ENDROOT
BRANCH   5   7
ATOM      7  N   UNL     1      -0.083   9.772  21.150  0.00  0.00    +0.000 N 
ATOM      8  C   UNL     1       0.360   9.959  22.430  0.00  0.00    +0.000 C 
ATOM      9  O   UNL     1       1.478   9.685  22.853  0.00  0.00    +0.000 OA
ATOM     10  N   UNL     1      -0.538  10.557  23.270  0.00  0.00    +0.000 N 
ATOM     11  H   UNL     1      -0.832  10.369  20.854  0.00  0.00    +0.000 HD
ATOM     12  H   UNL     1      -0.195  10.597  24.220  0.00  0.00    +0.000 HD
BRANCH  10  13
ATOM     13  C   UNL     1      -1.944  10.828  23.045  0.00  0.00    +0.000 C 
BRANCH  13  14
ATOM     14  C   UNL     1      -2.291  12.240  23.427  0.00  0.00    +0.000 A 
ATOM     15  C   UNL     1      -1.283  13.210  23.469  0.00  0.00    +0.000 A 
ATOM     16  C   UNL     1      -1.568  14.504  23.904  0.00  0.00    +0.000 A 
ATOM     17  C   UNL     1      -2.861  14.838  24.297  0.00  0.00    +0.000 A 
ATOM     18  C   UNL     1      -3.875  13.882  24.250  0.00  0.00    +0.000 A 
ATOM     19  C   UNL     1      -3.593  12.586  23.815  0.00  0.00    +0.000 A 
ENDBRANCH  13  14
ENDBRANCH  10  13
ENDBRANCH   5   7
BRANCH   4  20
ATOM     20  N   UNL     1      -0.121  11.324  18.775  0.00  0.00    +0.000 N 
ATOM     21  C   UNL     1       0.305  12.626  19.302  0.00  0.00    +0.000 C 
ATOM     22  C   UNL     1      -0.900  13.143  20.079  0.00  0.00    +0.000 C 
ATOM     23  C   UNL     1      -2.074  12.618  19.284  0.00  0.00    +0.000 C 
ATOM     24  C   UNL     1      -1.598  11.255  18.783  0.00  0.00    +0.000 C 
ENDBRANCH   4  20
BRANCH   1  26
ATOM     25  N   UNL     1       3.142   5.716  17.989  0.00  0.00    +0.000 N 
ATOM     26  C   UNL     1       2.778   6.343  19.164  0.00  0.00    +0.000 C 
ATOM     27  O   UNL     1       2.928   5.820  20.266  0.00  0.00    +0.000 OA
ATOM     28  H   UNL     1       3.142   6.214  17.115  0.00  0.00    +0.000 HD
BRANCH  25  29
ATOM     29  C   UNL     1       3.757   4.404  17.962  0.00  0.00    +0.000 C 
BRANCH  29  35
ATOM     30  C   UNL     1       6.297   4.622  17.702  0.00  0.00    +0.000 A 
ATOM     31  C   UNL     1       7.432   4.568  16.882  0.00  0.00    +0.000 A 
ATOM     32  C   UNL     1       7.311   4.330  15.513  0.00  0.00    +0.000 A 
ATOM     33  C   UNL     1       6.057   4.119  14.954  0.00  0.00    +0.000 A 
ATOM     34  C   UNL     1       4.925   4.137  15.765  0.00  0.00    +0.000 A 
ATOM     35  C   UNL     1       5.026   4.392  17.145  0.00  0.00    +0.000 A 
BRANCH  30  37
ATOM     36  C   UNL     1       7.461   5.670  19.469  0.00  0.00    +0.000 C 
ATOM     37  O   UNL     1       6.367   4.852  19.055  0.00  0.00    +0.000 OA
ENDBRANCH  30  37
ENDBRANCH  29  35
ENDBRANCH  25  29
ENDBRANCH   1  26
TORSDOF 8
ENDMDL
MODEL 8
REMARK VINA RESULT:      -8.2      1.520      2.024
REMARK  Name = 
REMARK  9 active torsions:
REMARK  status: ('A' for Active; 'I' for Inactive)
REMARK    1  A    between atoms: C_1  and  O_2
REMARK    2  A    between atoms: O_2  and  C_3
REMARK    3  A    between atoms: C_8  and  C_9
REMARK    4  A    between atoms: C_9  and  N_10
REMARK    5  A    between atoms: C_11  and  C_13
REMARK    6  A    between atoms: C_16  and  N_17
REMARK    7  A    between atoms: C_22  and  N_23
REMARK    8  A    between atoms: N_26  and  C_27
REMARK    9  A    between atoms: C_27  and  C_28
REMARK                            x       y       z     vdW  Elec       q    Type
REMARK                         _______ _______ _______ _____ _____    ______ ____
ROOT
ATOM      1  C   UNL     1       1.928   7.960  19.509  0.00  0.00    +0.000 A 
ATOM      2  C   UNL     1       1.291   7.142  20.447  0.00  0.00    +0.000 A 
ATOM      3  C   UNL     1       1.571   5.763  20.515  0.00  0.00    +0.000 A 
ATOM      4  C   UNL     1       2.469   5.129  19.642  0.00  0.00    +0.000 A 
ATOM      5  C   UNL     1       3.114   5.992  18.714  0.00  0.00    +0.000 A 
ATOM      6  C   UNL     1       2.872   7.376  18.662  0.00  0.00    +0.000 A 
ENDROOT
BRANCH   5   7
ATOM      7  N   UNL     1       3.866   5.404  17.683  0.00  0.00    +0.000 N 
ATOM      8  C   UNL     1       5.228   5.290  17.711  0.00  0.00    +0.000 C 
ATOM      9  O   UNL     1       5.979   5.817  18.525  0.00  0.00    +0.000 OA
ATOM     10  N   UNL     1       5.758   4.461  16.761  0.00  0.00    +0.000 N 
ATOM     11  H   UNL     1       3.372   4.651  17.243  0.00  0.00    +0.000 HD
ATOM     12  H   UNL     1       6.768   4.476  16.770  0.00  0.00    +0.000 HD
BRANCH  10  13
ATOM     13  C   UNL     1       5.098   3.859  15.619  0.00  0.00    +0.000 C 
BRANCH  13  14
ATOM     14  C   UNL     1       5.872   4.108  14.354  0.00  0.00    +0.000 A 
ATOM     15  C   UNL     1       5.523   3.419  13.188  0.00  0.00    +0.000 A 
ATOM     16  C   UNL     1       6.281   3.570  12.027  0.00  0.00    +0.000 A 
ATOM     17  C   UNL     1       7.389   4.412  12.023  0.00  0.00    +0.000 A 
ATOM     18  C   UNL     1       7.740   5.111  13.177  0.00  0.00    +0.000 A 
ATOM     19  C   UNL     1       6.983   4.961  14.340  0.00  0.00    +0.000 A 
ENDBRANCH  13  14
ENDBRANCH  10  13
ENDBRANCH   5   7
BRANCH   4  20
ATOM     20  N   UNL     1       2.692   3.748  19.666  0.00  0.00    +0.000 N 
ATOM     21  C   UNL     1       3.819   3.123  20.368  0.00  0.00    +0.000 C 
ATOM     22  C   UNL     1       4.414   2.149  19.358  0.00  0.00    +0.000 C 
ATOM     23  C   UNL     1       3.204   1.669  18.589  0.00  0.00    +0.000 C 
ATOM     24  C   UNL     1       2.299   2.897  18.521  0.00  0.00    +0.000 C 
ENDBRANCH   4  20
BRANCH   1  26
ATOM     25  N   UNL     1       0.933  10.059  20.337  0.00  0.00    +0.000 N 
ATOM     26  C   UNL     1       1.564   9.401  19.300  0.00  0.00    +0.000 C 
ATOM     27  O   UNL     1       1.806   9.943  18.224  0.00  0.00    +0.000 OA
ATOM     28  H   UNL     1       0.872   9.645  21.251  0.00  0.00    +0.000 HD
BRANCH  25  29
ATOM     29  C   UNL     1       0.532  11.450  20.251  0.00  0.00    +0.000 C 
BRANCH  29  35
ATOM     30  C   UNL     1      -1.859  12.317  20.560  0.00  0.00    +0.000 A 
ATOM     31  C   UNL     1      -2.965  12.528  21.395  0.00  0.00    +0.000 A 
ATOM     32  C   UNL     1      -2.904  12.208  22.751  0.00  0.00    +0.000 A 
ATOM     33  C   UNL     1      -1.747  11.651  23.281  0.00  0.00    +0.000 A 
ATOM     34  C   UNL     1      -0.654  11.406  22.453  0.00  0.00    +0.000 A 
ATOM     35  C   UNL     1      -0.691  11.738  21.086  0.00  0.00    +0.000 A 
BRANCH  30  37
ATOM     36  C   UNL     1      -2.608  11.698  18.408  0.00  0.00    +0.000 C 
ATOM     37  O   UNL     1      -1.873  12.614  19.218  0.00  0.00    +0.000 OA
ENDBRANCH  30  37
ENDBRANCH  29  35
ENDBRANCH  25  29
ENDBRANCH   1  26
TORSDOF 8
ENDMDL
MODEL 9
REMARK VINA RESULT:      -8.1      1.771      2.126
REMARK  Name = 
REMARK  9 active torsions:
REMARK  status: ('A' for Active; 'I' for Inactive)
REMARK    1  A    between atoms: C_1  and  O_2
REMARK    2  A    between atoms: O_2  and  C_3
REMARK    3  A    between atoms: C_8  and  C_9
REMARK    4  A    between atoms: C_9  and  N_10
REMARK    5  A    between atoms: C_11  and  C_13
REMARK    6  A    between atoms: C_16  and  N_17
REMARK    7  A    between atoms: C_22  and  N_23
REMARK    8  A    between atoms: N_26  and  C_27
REMARK    9  A    between atoms: C_27  and  C_28
REMARK                            x       y       z     vdW  Elec       q    Type
REMARK                         _______ _______ _______ _____ _____    ______ ____
ROOT
ATOM      1  C   UNL     1       2.075   7.707  19.319  0.00  0.00    +0.000 A 
ATOM      2  C   UNL     1       1.387   6.911  20.239  0.00  0.00    +0.000 A 
ATOM      3  C   UNL     1       1.656   5.533  20.348  0.00  0.00    +0.000 A 
ATOM      4  C   UNL     1       2.593   4.877  19.533  0.00  0.00    +0.000 A 
ATOM      5  C   UNL     1       3.289   5.719  18.623  0.00  0.00    +0.000 A 
ATOM      6  C   UNL     1       3.058   7.103  18.532  0.00  0.00    +0.000 A 
ENDROOT
BRANCH   5   7
ATOM      7  N   UNL     1       4.089   5.108  17.643  0.00  0.00    +0.000 N 
ATOM      8  C   UNL     1       5.443   4.962  17.755  0.00  0.00    +0.000 C 
ATOM      9  O   UNL     1       6.155   5.475  18.612  0.00  0.00    +0.000 OA
ATOM     10  N   UNL     1       6.011   4.115  16.843  0.00  0.00    +0.000 N 
ATOM     11  H   UNL     1       3.605   4.365  17.176  0.00  0.00    +0.000 HD
ATOM     12  H   UNL     1       7.019   4.106  16.914  0.00  0.00    +0.000 HD
BRANCH  10  13
ATOM     13  C   UNL     1       5.408   3.523  15.665  0.00  0.00    +0.000 C 
BRANCH  13  14
ATOM     14  C   UNL     1       6.101   3.984  14.413  0.00  0.00    +0.000 A 
ATOM     15  C   UNL     1       5.786   3.382  13.190  0.00  0.00    +0.000 A 
ATOM     16  C   UNL     1       6.478   3.734  12.032  0.00  0.00    +0.000 A 
ATOM     17  C   UNL     1       7.487   4.692  12.087  0.00  0.00    +0.000 A 
ATOM     18  C   UNL     1       7.803   5.305  13.299  0.00  0.00    +0.000 A 
ATOM     19  C   UNL     1       7.112   4.954  14.459  0.00  0.00    +0.000 A 
ENDBRANCH  13  14
ENDBRANCH  10  13
ENDBRANCH   5   7
BRANCH   4  20
ATOM     20  N   UNL     1       2.808   3.496  19.595  0.00  0.00    +0.000 N 
ATOM     21  C   UNL     1       3.828   2.873  20.447  0.00  0.00    +0.000 C 
ATOM     22  C   UNL     1       4.551   1.892  19.531  0.00  0.00    +0.000 C 
ATOM     23  C   UNL     1       3.455   1.409  18.609  0.00  0.00    +0.000 C 
ATOM     24  C   UNL     1       2.570   2.639  18.413  0.00  0.00    +0.000 C 
ENDBRANCH   4  20
BRANCH   1  26
ATOM     25  N   UNL     1       1.184   9.868  20.107  0.00  0.00    +0.000 N 
ATOM     26  C   UNL     1       1.730   9.146  19.064  0.00  0.00    +0.000 C 
ATOM     27  O   UNL     1       1.912   9.630  17.949  0.00  0.00    +0.000 OA
ATOM     28  H   UNL     1       1.175   9.499  21.042  0.00  0.00    +0.000 HD
BRANCH  25  29
ATOM     29  C   UNL     1       0.809  11.263  19.979  0.00  0.00    +0.000 C 
BRANCH  29  35
ATOM     30  C   UNL     1      -0.281  13.088  21.409  0.00  0.00    +0.000 A 
ATOM     31  C   UNL     1      -1.095  13.441  22.494  0.00  0.00    +0.000 A 
ATOM     32  C   UNL     1      -1.624  12.463  23.337  0.00  0.00    +0.000 A 
ATOM     33  C   UNL     1      -1.366  11.121  23.089  0.00  0.00    +0.000 A 
ATOM     34  C   UNL     1      -0.586  10.756  21.994  0.00  0.00    +0.000 A 
ATOM     35  C   UNL     1      -0.031  11.730  21.143  0.00  0.00    +0.000 A 
BRANCH  30  37
ATOM     36  C   UNL     1      -0.692  14.748  19.782  0.00  0.00    +0.000 C 
ATOM     37  O   UNL     1       0.260  14.015  20.552  0.00  0.00    +0.000 OA
ENDBRANCH  30  37
ENDBRANCH  29  35
ENDBRANCH  25  29
ENDBRANCH   1  26
TORSDOF 8
ENDMDL
