MODEL 1
REMARK VINA RESULT:      -8.1      0.000      0.000
REMARK  Name = 
REMARK  7 active torsions:
REMARK  status: ('A' for Active; 'I' for Inactive)
REMARK    1  A    between atoms: C_1  and  C_2
REMARK    2  A    between atoms: C_2  and  C_3
REMARK    3  A    between atoms: C_3  and  N_4
REMARK    4  A    between atoms: C_7  and  C_8
REMARK    5  A    between atoms: N_10  and  N_11
REMARK    6  A    between atoms: C_12  and  C_14
REMARK    7  A    between atoms: C_20  and  O_21
REMARK                            x       y       z     vdW  Elec       q    Type
REMARK                         _______ _______ _______ _____ _____    ______ ____
ROOT
ATOM      1  N   UNL     1       5.361   4.605  16.089  0.00  0.00    +0.000 N 
ATOM      2  C   UNL     1       6.185   5.616  16.564  0.00  0.00    +0.000 A 
ATOM      3  O   UNL     1       6.638   6.498  15.828  0.00  0.00    +0.000 OA
ATOM      4  C   UNL     1       6.552   5.623  18.010  0.00  0.00    +0.000 A 
ATOM      5  C   UNL     1       5.846   4.859  18.873  0.00  0.00    +0.000 A 
ATOM      6  C   UNL     1       4.758   3.996  18.379  0.00  0.00    +0.000 A 
ATOM      7  C   UNL     1       3.896   3.345  19.279  0.00  0.00    +0.000 A 
ATOM      8  C   UNL     1       2.831   2.572  18.823  0.00  0.00    +0.000 A 
ATOM      9  C   UNL     1       2.644   2.399  17.460  0.00  0.00    +0.000 A 
ATOM     10  C   UNL     1       3.516   3.006  16.551  0.00  0.00    +0.000 A 
ATOM     11  C   UNL     1       4.559   3.840  16.994  0.00  0.00    +0.000 A 
ENDROOT
BRANCH   4  12
ATOM     12  C   UNL     1       7.666   6.489  18.532  0.00  0.00    +0.000 C 
ATOM     13  O   UNL     1       8.479   6.058  19.348  0.00  0.00    +0.000 OA
ATOM     14  N   UNL     1       7.718   7.775  18.041  0.00  0.00    +0.000 N 
ATOM     15  H   UNL     1       6.992   8.170  17.434  0.00  0.00    +0.000 HD
BRANCH  14  16
ATOM     16  N   UNL     1       8.735   8.635  18.467  0.00  0.00    +0.000 N 
ATOM     17  C   UNL     1       8.641   9.985  18.180  0.00  0.00    +0.000 C 
ATOM     18  O   UNL     1       7.701  10.490  17.572  0.00  0.00    +0.000 OA
ATOM     19  H   UNL     1       9.394   8.257  19.138  0.00  0.00    +0.000 HD
BRANCH  17  20
ATOM     20  C   UNL     1       9.751  10.826  18.705  0.00  0.00    +0.000 A 
ATOM     21  C   UNL     1      10.732  11.350  17.852  0.00  0.00    +0.000 A 
ATOM     22  C   UNL     1      11.794  12.089  18.376  0.00  0.00    +0.000 A 
ATOM     23  C   UNL     1      11.873  12.322  19.748  0.00  0.00    +0.000 A 
ATOM     24  C   UNL     1      10.877  11.840  20.599  0.00  0.00    +0.000 A 
ATOM     25  C   UNL     1       9.813  11.097  20.079  0.00  0.00    +0.000 A 
ENDBRANCH  17  20
ENDBRANCH  14  16
ENDBRANCH   4  12
BRANCH   5  26
ATOM     26  O   UNL     1       6.058   4.815  20.239  0.00  0.00    +0.000 OA
ATOM     27  H   UNL     1       6.857   5.349  20.451  0.00  0.00    +0.000 HD
ENDBRANCH   5  26
BRANCH   1  28
ATOM     28  C   UNL     1       5.157   4.523  14.636  0.00  0.00    +0.000 C 
BRANCH  28  30
ATOM     29  C   UNL     1       5.860   3.377  12.502  0.00  0.00    +0.000 C 
ATOM     30  C   UNL     1       6.283   3.789  13.903  0.00  0.00    +0.000 C 
ENDBRANCH  28  30
ENDBRANCH   1  28
TORSDOF 6
ENDMDL
MODEL 2
REMARK VINA RESULT:      -7.9      7.747      9.178
REMARK  Name = 
REMARK  7 active torsions:
REMARK  status: ('A' for Active; 'I' for Inactive)
REMARK    1  A    between atoms: C_1  and  C_2
REMARK    2  A    between atoms: C_2  and  C_3
REMARK    3  A    between atoms: C_3  and  N_4
REMARK    4  A    between atoms: C_7  and  C_8
REMARK    5  A    between atoms: N_10  and  N_11
REMARK    6  A    between atoms: C_12  and  C_14
REMARK    7  A    between atoms: C_20  and  O_21
REMARK                            x       y       z     vdW  Elec       q    Type
REMARK                         _______ _______ _______ _____ _____    ______ ____
ROOT
ATOM      1  N   UNL     1       2.234   6.276  19.928  0.00  0.00    +0.000 N 
ATOM      2  C   UNL     1       1.636   7.432  20.409  0.00  0.00    +0.000 A 
ATOM      3  O   UNL     1       1.228   7.529  21.571  0.00  0.00    +0.000 OA
ATOM      4  C   UNL     1       1.461   8.589  19.483  0.00  0.00    +0.000 A 
ATOM      5  C   UNL     1       2.151   8.613  18.320  0.00  0.00    +0.000 A 
ATOM      6  C   UNL     1       3.027   7.485  17.957  0.00  0.00    +0.000 A 
ATOM      7  C   UNL     1       3.892   7.579  16.851  0.00  0.00    +0.000 A 
ATOM      8  C   UNL     1       4.764   6.541  16.531  0.00  0.00    +0.000 A 
ATOM      9  C   UNL     1       4.748   5.376  17.283  0.00  0.00    +0.000 A 
ATOM     10  C   UNL     1       3.866   5.250  18.360  0.00  0.00    +0.000 A 
ATOM     11  C   UNL     1       3.023   6.312  18.734  0.00  0.00    +0.000 A 
ENDROOT
BRANCH   4  12
ATOM     12  C   UNL     1       0.563   9.744  19.832  0.00  0.00    +0.000 C 
ATOM     13  O   UNL     1      -0.261  10.176  19.028  0.00  0.00    +0.000 OA
ATOM     14  N   UNL     1       0.717  10.275  21.093  0.00  0.00    +0.000 N 
ATOM     15  H   UNL     1       1.463   9.983  21.734  0.00  0.00    +0.000 HD
BRANCH  14  16
ATOM     16  N   UNL     1      -0.094  11.341  21.497  0.00  0.00    +0.000 N 
ATOM     17  C   UNL     1      -0.790  11.246  22.688  0.00  0.00    +0.000 C 
ATOM     18  O   UNL     1      -0.735  10.272  23.435  0.00  0.00    +0.000 OA
ATOM     19  H   UNL     1       0.024  12.213  20.993  0.00  0.00    +0.000 HD
BRANCH  17  20
ATOM     20  C   UNL     1      -1.596  12.443  23.052  0.00  0.00    +0.000 A 
ATOM     21  C   UNL     1      -2.952  12.331  23.387  0.00  0.00    +0.000 A 
ATOM     22  C   UNL     1      -3.701  13.476  23.670  0.00  0.00    +0.000 A 
ATOM     23  C   UNL     1      -3.097  14.731  23.635  0.00  0.00    +0.000 A 
ATOM     24  C   UNL     1      -1.737  14.846  23.344  0.00  0.00    +0.000 A 
ATOM     25  C   UNL     1      -0.984  13.704  23.058  0.00  0.00    +0.000 A 
ENDBRANCH  17  20
ENDBRANCH  14  16
ENDBRANCH   4  12
BRANCH   5  26
ATOM     26  O   UNL     1       2.110   9.647  17.404  0.00  0.00    +0.000 OA
ATOM     27  H   UNL     1       3.026   9.836  17.100  0.00  0.00    +0.000 HD
ENDBRANCH   5  26
BRANCH   1  28
ATOM     28  C   UNL     1       2.237   5.098  20.807  0.00  0.00    +0.000 C 
BRANCH  28  30
ATOM     29  C   UNL     1       1.385   2.742  21.098  0.00  0.00    +0.000 C 
ATOM     30  C   UNL     1       1.100   4.116  20.513  0.00  0.00    +0.000 C 
ENDBRANCH  28  30
ENDBRANCH   1  28
TORSDOF 6
ENDMDL
MODEL 3
REMARK VINA RESULT:      -7.9      0.676      1.164
REMARK  Name = 
REMARK  7 active torsions:
REMARK  status: ('A' for Active; 'I' for Inactive)
REMARK    1  A    between atoms: C_1  and  C_2
REMARK    2  A    between atoms: C_2  and  C_3
REMARK    3  A    between atoms: C_3  and  N_4
REMARK    4  A    between atoms: C_7  and  C_8
REMARK    5  A    between atoms: N_10  and  N_11
REMARK    6  A    between atoms: C_12  and  C_14
REMARK    7  A    between atoms: C_20  and  O_21
REMARK                            x       y       z     vdW  Elec       q    Type
REMARK                         _______ _______ _______ _____ _____    ______ ____
ROOT
ATOM      1  N   UNL     1       5.824   4.058  16.245  0.00  0.00    +0.000 N 
ATOM      2  C   UNL     1       6.690   5.071  16.631  0.00  0.00    +0.000 A 
ATOM      3  O   UNL     1       7.563   5.514  15.878  0.00  0.00    +0.000 OA
ATOM      4  C   UNL     1       6.575   5.628  18.009  0.00  0.00    +0.000 A 
ATOM      5  C   UNL     1       5.460   5.374  18.732  0.00  0.00    +0.000 A 
ATOM      6  C   UNL     1       4.398   4.517  18.177  0.00  0.00    +0.000 A 
ATOM      7  C   UNL     1       3.159   4.398  18.832  0.00  0.00    +0.000 A 
ATOM      8  C   UNL     1       2.128   3.636  18.289  0.00  0.00    +0.000 A 
ATOM      9  C   UNL     1       2.339   2.941  17.106  0.00  0.00    +0.000 A 
ATOM     10  C   UNL     1       3.578   3.016  16.463  0.00  0.00    +0.000 A 
ATOM     11  C   UNL     1       4.609   3.831  16.966  0.00  0.00    +0.000 A 
ENDROOT
BRANCH   4  12
ATOM     12  C   UNL     1       7.653   6.496  18.597  0.00  0.00    +0.000 C 
ATOM     13  O   UNL     1       8.387   6.082  19.493  0.00  0.00    +0.000 OA
ATOM     14  N   UNL     1       7.768   7.764  18.072  0.00  0.00    +0.000 N 
ATOM     15  H   UNL     1       7.103   8.149  17.393  0.00  0.00    +0.000 HD
BRANCH  14  16
ATOM     16  N   UNL     1       8.759   8.624  18.557  0.00  0.00    +0.000 N 
ATOM     17  C   UNL     1       8.688   9.972  18.255  0.00  0.00    +0.000 C 
ATOM     18  O   UNL     1       7.790  10.476  17.585  0.00  0.00    +0.000 OA
ATOM     19  H   UNL     1       9.373   8.249  19.271  0.00  0.00    +0.000 HD
BRANCH  17  20
ATOM     20  C   UNL     1       9.765  10.814  18.844  0.00  0.00    +0.000 A 
ATOM     21  C   UNL     1       9.762  11.152  20.204  0.00  0.00    +0.000 A 
ATOM     22  C   UNL     1      10.753  11.988  20.721  0.00  0.00    +0.000 A 
ATOM     23  C   UNL     1      11.758  12.477  19.888  0.00  0.00    +0.000 A 
ATOM     24  C   UNL     1      11.792  12.110  18.542  0.00  0.00    +0.000 A 
ATOM     25  C   UNL     1      10.801  11.275  18.020  0.00  0.00    +0.000 A 
ENDBRANCH  17  20
ENDBRANCH  14  16
ENDBRANCH   4  12
BRANCH   5  26
ATOM     26  O   UNL     1       5.216   5.870  19.999  0.00  0.00    +0.000 OA
ATOM     27  H   UNL     1       4.384   6.395  19.978  0.00  0.00    +0.000 HD
ENDBRANCH   5  26
BRANCH   1  28
ATOM     28  C   UNL     1       6.071   3.412  14.948  0.00  0.00    +0.000 C 
BRANCH  28  30
ATOM     29  C   UNL     1       5.930   3.571  12.435  0.00  0.00    +0.000 C 
ATOM     30  C   UNL     1       5.541   4.214  13.757  0.00  0.00    +0.000 C 
ENDBRANCH  28  30
ENDBRANCH   1  28
TORSDOF 6
ENDMDL
MODEL 4
REMARK VINA RESULT:      -7.6      8.171     10.361
REMARK  Name = 
REMARK  7 active torsions:
REMARK  status: ('A' for Active; 'I' for Inactive)
REMARK    1  A    between atoms: C_1  and  C_2
REMARK    2  A    between atoms: C_2  and  C_3
REMARK    3  A    between atoms: C_3  and  N_4
REMARK    4  A    between atoms: C_7  and  C_8
REMARK    5  A    between atoms: N_10  and  N_11
REMARK    6  A    between atoms: C_12  and  C_14
REMARK    7  A    between atoms: C_20  and  O_21
REMARK                            x       y       z     vdW  Elec       q    Type
REMARK                         _______ _______ _______ _____ _____    ______ ____
ROOT
ATOM      1  N   UNL     1      -1.283  11.776  19.562  0.00  0.00    +0.000 N 
ATOM      2  C   UNL     1      -0.562  10.597  19.685  0.00  0.00    +0.000 A 
ATOM      3  O   UNL     1      -0.130   9.982  18.704  0.00  0.00    +0.000 OA
ATOM      4  C   UNL     1      -0.318  10.042  21.048  0.00  0.00    +0.000 A 
ATOM      5  C   UNL     1      -0.518  10.834  22.127  0.00  0.00    +0.000 A 
ATOM      6  C   UNL     1      -1.015  12.210  21.953  0.00  0.00    +0.000 A 
ATOM      7  C   UNL     1      -1.046  13.102  23.040  0.00  0.00    +0.000 A 
ATOM      8  C   UNL     1      -1.461  14.421  22.876  0.00  0.00    +0.000 A 
ATOM      9  C   UNL     1      -1.898  14.853  21.632  0.00  0.00    +0.000 A 
ATOM     10  C   UNL     1      -1.912  13.968  20.550  0.00  0.00    +0.000 A 
ATOM     11  C   UNL     1      -1.437  12.650  20.685  0.00  0.00    +0.000 A 
ENDROOT
BRANCH   4  12
ATOM     12  C   UNL     1       0.179   8.637  21.246  0.00  0.00    +0.000 C 
ATOM     13  O   UNL     1      -0.468   7.818  21.897  0.00  0.00    +0.000 OA
ATOM     14  N   UNL     1       1.385   8.330  20.657  0.00  0.00    +0.000 N 
ATOM     15  H   UNL     1       1.974   9.030  20.194  0.00  0.00    +0.000 HD
BRANCH  14  16
ATOM     16  N   UNL     1       1.905   7.037  20.783  0.00  0.00    +0.000 N 
ATOM     17  C   UNL     1       2.398   6.396  19.661  0.00  0.00    +0.000 C 
ATOM     18  O   UNL     1       2.420   6.900  18.541  0.00  0.00    +0.000 OA
ATOM     19  H   UNL     1       2.076   6.710  21.727  0.00  0.00    +0.000 HD
BRANCH  17  20
ATOM     20  C   UNL     1       2.964   5.040  19.899  0.00  0.00    +0.000 A 
ATOM     21  C   UNL     1       4.127   4.612  19.245  0.00  0.00    +0.000 A 
ATOM     22  C   UNL     1       4.605   3.315  19.444  0.00  0.00    +0.000 A 
ATOM     23  C   UNL     1       3.936   2.448  20.306  0.00  0.00    +0.000 A 
ATOM     24  C   UNL     1       2.802   2.882  20.994  0.00  0.00    +0.000 A 
ATOM     25  C   UNL     1       2.318   4.178  20.796  0.00  0.00    +0.000 A 
ENDBRANCH  17  20
ENDBRANCH  14  16
ENDBRANCH   4  12
BRANCH   5  26
ATOM     26  O   UNL     1      -0.283  10.452  23.435  0.00  0.00    +0.000 OA
ATOM     27  H   UNL     1      -0.341  11.247  24.011  0.00  0.00    +0.000 HD
ENDBRANCH   5  26
BRANCH   1  28
ATOM     28  C   UNL     1      -1.655  12.205  18.206  0.00  0.00    +0.000 C 
BRANCH  28  30
ATOM     29  C   UNL     1      -2.744  10.836  16.390  0.00  0.00    +0.000 C 
ATOM     30  C   UNL     1      -2.955  11.573  17.703  0.00  0.00    +0.000 C 
ENDBRANCH  28  30
ENDBRANCH   1  28
TORSDOF 6
ENDMDL
MODEL 5
REMARK VINA RESULT:      -7.4      7.065     10.406
REMARK  Name = 
REMARK  7 active torsions:
REMARK  status: ('A' for Active; 'I' for Inactive)
REMARK    1  A    between atoms: C_1  and  C_2
REMARK    2  A    between atoms: C_2  and  C_3
REMARK    3  A    between atoms: C_3  and  N_4
REMARK    4  A    between atoms: C_7  and  C_8
REMARK    5  A    between atoms: N_10  and  N_11
REMARK    6  A    between atoms: C_12  and  C_14
REMARK    7  A    between atoms: C_20  and  O_21
REMARK                            x       y       z     vdW  Elec       q    Type
REMARK                         _______ _______ _______ _____ _____    ______ ____
ROOT
ATOM      1  N   UNL     1      -0.330  11.988  20.409  0.00  0.00    +0.000 N 
ATOM      2  C   UNL     1      -0.052  10.824  19.707  0.00  0.00    +0.000 A 
ATOM      3  O   UNL     1      -0.768   9.820  19.784  0.00  0.00    +0.000 OA
ATOM      4  C   UNL     1       1.166  10.777  18.848  0.00  0.00    +0.000 A 
ATOM      5  C   UNL     1       1.788  11.933  18.522  0.00  0.00    +0.000 A 
ATOM      6  C   UNL     1       1.290  13.215  19.052  0.00  0.00    +0.000 A 
ATOM      7  C   UNL     1       1.804  14.435  18.574  0.00  0.00    +0.000 A 
ATOM      8  C   UNL     1       1.303  15.653  19.026  0.00  0.00    +0.000 A 
ATOM      9  C   UNL     1       0.314  15.668  19.999  0.00  0.00    +0.000 A 
ATOM     10  C   UNL     1      -0.180  14.466  20.514  0.00  0.00    +0.000 A 
ATOM     11  C   UNL     1       0.272  13.227  20.023  0.00  0.00    +0.000 A 
ENDROOT
BRANCH   4  12
ATOM     12  C   UNL     1       1.696   9.477  18.307  0.00  0.00    +0.000 C 
ATOM     13  O   UNL     1       2.013   9.362  17.124  0.00  0.00    +0.000 OA
ATOM     14  N   UNL     1       1.805   8.442  19.208  0.00  0.00    +0.000 N 
ATOM     15  H   UNL     1       1.456   8.501  20.171  0.00  0.00    +0.000 HD
BRANCH  14  16
ATOM     16  N   UNL     1       2.305   7.207  18.782  0.00  0.00    +0.000 N 
ATOM     17  C   UNL     1       2.190   6.110  19.616  0.00  0.00    +0.000 C 
ATOM     18  O   UNL     1       1.659   6.146  20.723  0.00  0.00    +0.000 OA
ATOM     19  H   UNL     1       2.550   7.133  17.801  0.00  0.00    +0.000 HD
BRANCH  17  20
ATOM     20  C   UNL     1       2.718   4.832  19.063  0.00  0.00    +0.000 A 
ATOM     21  C   UNL     1       2.427   4.433  17.752  0.00  0.00    +0.000 A 
ATOM     22  C   UNL     1       2.887   3.204  17.275  0.00  0.00    +0.000 A 
ATOM     23  C   UNL     1       3.652   2.378  18.098  0.00  0.00    +0.000 A 
ATOM     24  C   UNL     1       3.982   2.789  19.390  0.00  0.00    +0.000 A 
ATOM     25  C   UNL     1       3.521   4.017  19.872  0.00  0.00    +0.000 A 
ENDBRANCH  17  20
ENDBRANCH  14  16
ENDBRANCH   4  12
BRANCH   5  26
ATOM     26  O   UNL     1       2.894  12.025  17.698  0.00  0.00    +0.000 OA
ATOM     27  H   UNL     1       2.673  12.608  16.937  0.00  0.00    +0.000 HD
ENDBRANCH   5  26
BRANCH   1  28
ATOM     28  C   UNL     1      -1.436  11.948  21.378  0.00  0.00    +0.000 C 
BRANCH  28  30
ATOM     29  C   UNL     1      -0.929  10.280  23.201  0.00  0.00    +0.000 C 
ATOM     30  C   UNL     1      -0.972  11.752  22.823  0.00  0.00    +0.000 C 
ENDBRANCH  28  30
ENDBRANCH   1  28
TORSDOF 6
ENDMDL
MODEL 6
REMARK VINA RESULT:      -7.4      7.496      8.912
REMARK  Name = 
REMARK  7 active torsions:
REMARK  status: ('A' for Active; 'I' for Inactive)
REMARK    1  A    between atoms: C_1  and  C_2
REMARK    2  A    between atoms: C_2  and  C_3
REMARK    3  A    between atoms: C_3  and  N_4
REMARK    4  A    between atoms: C_7  and  C_8
REMARK    5  A    between atoms: N_10  and  N_11
REMARK    6  A    between atoms: C_12  and  C_14
REMARK    7  A    between atoms: C_20  and  O_21
REMARK                            x       y       z     vdW  Elec       q    Type
REMARK                         _______ _______ _______ _____ _____    ______ ____
ROOT
ATOM      1  N   UNL     1       2.429   5.956  19.828  0.00  0.00    +0.000 N 
ATOM      2  C   UNL     1       1.797   7.147  20.158  0.00  0.00    +0.000 A 
ATOM      3  O   UNL     1       1.286   7.336  21.267  0.00  0.00    +0.000 OA
ATOM      4  C   UNL     1       1.713   8.225  19.131  0.00  0.00    +0.000 A 
ATOM      5  C   UNL     1       2.506   8.156  18.038  0.00  0.00    +0.000 A 
ATOM      6  C   UNL     1       3.405   7.004  17.847  0.00  0.00    +0.000 A 
ATOM      7  C   UNL     1       4.366   7.009  16.820  0.00  0.00    +0.000 A 
ATOM      8  C   UNL     1       5.258   5.951  16.664  0.00  0.00    +0.000 A 
ATOM      9  C   UNL     1       5.167   4.849  17.502  0.00  0.00    +0.000 A 
ATOM     10  C   UNL     1       4.190   4.809  18.502  0.00  0.00    +0.000 A 
ATOM     11  C   UNL     1       3.323   5.898  18.712  0.00  0.00    +0.000 A 
ENDROOT
BRANCH   4  12
ATOM     12  C   UNL     1       0.795   9.404  19.304  0.00  0.00    +0.000 C 
ATOM     13  O   UNL     1       0.235   9.921  18.339  0.00  0.00    +0.000 OA
ATOM     14  N   UNL     1       0.620   9.855  20.592  0.00  0.00    +0.000 N 
ATOM     15  H   UNL     1       1.154   9.491  21.389  0.00  0.00    +0.000 HD
BRANCH  14  16
ATOM     16  N   UNL     1      -0.232  10.938  20.835  0.00  0.00    +0.000 N 
ATOM     17  C   UNL     1      -0.551  11.266  22.140  0.00  0.00    +0.000 C 
ATOM     18  O   UNL     1      -0.119  10.666  23.120  0.00  0.00    +0.000 OA
ATOM     19  H   UNL     1      -0.417  11.551  20.049  0.00  0.00    +0.000 HD
BRANCH  17  20
ATOM     20  C   UNL     1      -1.434  12.454  22.300  0.00  0.00    +0.000 A 
ATOM     21  C   UNL     1      -1.336  13.288  23.422  0.00  0.00    +0.000 A 
ATOM     22  C   UNL     1      -2.213  14.362  23.575  0.00  0.00    +0.000 A 
ATOM     23  C   UNL     1      -3.180  14.619  22.604  0.00  0.00    +0.000 A 
ATOM     24  C   UNL     1      -3.255  13.819  21.463  0.00  0.00    +0.000 A 
ATOM     25  C   UNL     1      -2.381  12.741  21.306  0.00  0.00    +0.000 A 
ENDBRANCH  17  20
ENDBRANCH  14  16
ENDBRANCH   4  12
BRANCH   5  26
ATOM     26  O   UNL     1       2.555   9.114  17.041  0.00  0.00    +0.000 OA
ATOM     27  H   UNL     1       1.705   9.098  16.546  0.00  0.00    +0.000 HD
ENDBRANCH   5  26
BRANCH   1  28
ATOM     28  C   UNL     1       2.345   4.853  20.795  0.00  0.00    +0.000 C 
BRANCH  28  30
ATOM     29  C   UNL     1       1.234   2.690  21.464  0.00  0.00    +0.000 C 
ATOM     30  C   UNL     1       1.245   3.840  20.469  0.00  0.00    +0.000 C 
ENDBRANCH  28  30
ENDBRANCH   1  28
TORSDOF 6
ENDMDL
MODEL 7
REMARK VINA RESULT:      -7.3      6.547      7.519
REMARK  Name = 
REMARK  7 active torsions:
REMARK  status: ('A' for Active; 'I' for Inactive)
REMARK    1  A    between atoms: C_1  and  C_2
REMARK    2  A    between atoms: C_2  and  C_3
REMARK    3  A    between atoms: C_3  and  N_4
REMARK    4  A    between atoms: C_7  and  C_8
REMARK    5  A    between atoms: N_10  and  N_11
REMARK    6  A    between atoms: C_12  and  C_14
REMARK    7  A    between atoms: C_20  and  O_21
REMARK                            x       y       z     vdW  Elec       q    Type
REMARK                         _______ _______ _______ _____ _____    ______ ____
ROOT
ATOM      1  N   UNL     1       3.863   6.103  17.694  0.00  0.00    +0.000 N 
ATOM      2  C   UNL     1       3.115   7.130  18.250  0.00  0.00    +0.000 A 
ATOM      3  O   UNL     1       3.128   8.278  17.792  0.00  0.00    +0.000 OA
ATOM      4  C   UNL     1       2.285   6.844  19.455  0.00  0.00    +0.000 A 
ATOM      5  C   UNL     1       2.028   5.558  19.788  0.00  0.00    +0.000 A 
ATOM      6  C   UNL     1       2.603   4.459  18.992  0.00  0.00    +0.000 A 
ATOM      7  C   UNL     1       2.195   3.130  19.208  0.00  0.00    +0.000 A 
ATOM      8  C   UNL     1       2.690   2.090  18.425  0.00  0.00    +0.000 A 
ATOM      9  C   UNL     1       3.639   2.358  17.449  0.00  0.00    +0.000 A 
ATOM     10  C   UNL     1       4.086   3.668  17.249  0.00  0.00    +0.000 A 
ATOM     11  C   UNL     1       3.549   4.738  17.989  0.00  0.00    +0.000 A 
ENDROOT
BRANCH   4  12
ATOM     12  C   UNL     1       1.698   7.952  20.286  0.00  0.00    +0.000 C 
ATOM     13  O   UNL     1       1.688   7.891  21.514  0.00  0.00    +0.000 OA
ATOM     14  N   UNL     1       1.184   9.025  19.592  0.00  0.00    +0.000 N 
ATOM     15  H   UNL     1       1.103   9.042  18.570  0.00  0.00    +0.000 HD
BRANCH  14  16
ATOM     16  N   UNL     1       0.636  10.102  20.296  0.00  0.00    +0.000 N 
ATOM     17  C   UNL     1      -0.608  10.584  19.929  0.00  0.00    +0.000 C 
ATOM     18  O   UNL     1      -1.281  10.114  19.016  0.00  0.00    +0.000 OA
ATOM     19  H   UNL     1       1.090  10.350  21.168  0.00  0.00    +0.000 HD
BRANCH  17  20
ATOM     20  C   UNL     1      -1.125  11.707  20.758  0.00  0.00    +0.000 A 
ATOM     21  C   UNL     1      -1.898  12.731  20.194  0.00  0.00    +0.000 A 
ATOM     22  C   UNL     1      -2.324  13.803  20.982  0.00  0.00    +0.000 A 
ATOM     23  C   UNL     1      -1.995  13.848  22.335  0.00  0.00    +0.000 A 
ATOM     24  C   UNL     1      -1.262  12.811  22.913  0.00  0.00    +0.000 A 
ATOM     25  C   UNL     1      -0.832  11.738  22.129  0.00  0.00    +0.000 A 
ENDBRANCH  17  20
ENDBRANCH  14  16
ENDBRANCH   4  12
BRANCH   5  26
ATOM     26  O   UNL     1       1.236   5.165  20.851  0.00  0.00    +0.000 OA
ATOM     27  H   UNL     1       1.793   4.670  21.493  0.00  0.00    +0.000 HD
ENDBRANCH   5  26
BRANCH   1  28
ATOM     28  C   UNL     1       4.801   6.452  16.617  0.00  0.00    +0.000 C 
BRANCH  28  30
ATOM     29  C   UNL     1       7.191   5.687  16.870  0.00  0.00    +0.000 C 
ATOM     30  C   UNL     1       6.201   6.813  17.122  0.00  0.00    +0.000 C 
ENDBRANCH  28  30
ENDBRANCH   1  28
TORSDOF 6
ENDMDL
MODEL 8
REMARK VINA RESULT:      -7.3      6.143      7.156
REMARK  Name = 
REMARK  7 active torsions:
REMARK  status: ('A' for Active; 'I' for Inactive)
REMARK    1  A    between atoms: C_1  and  C_2
REMARK    2  A    between atoms: C_2  and  C_3
REMARK    3  A    between atoms: C_3  and  N_4
REMARK    4  A    between atoms: C_7  and  C_8
REMARK    5  A    between atoms: N_10  and  N_11
REMARK    6  A    between atoms: C_12  and  C_14
REMARK    7  A    between atoms: C_20  and  O_21
REMARK                            x       y       z     vdW  Elec       q    Type
REMARK                         _______ _______ _______ _____ _____    ______ ____
ROOT
ATOM      1  N   UNL     1       4.068   5.513  17.712  0.00  0.00    +0.000 N 
ATOM      2  C   UNL     1       3.387   6.674  18.050  0.00  0.00    +0.000 A 
ATOM      3  O   UNL     1       3.558   7.738  17.447  0.00  0.00    +0.000 OA
ATOM      4  C   UNL     1       2.433   6.639  19.196  0.00  0.00    +0.000 A 
ATOM      5  C   UNL     1       2.016   5.442  19.670  0.00  0.00    +0.000 A 
ATOM      6  C   UNL     1       2.539   4.193  19.089  0.00  0.00    +0.000 A 
ATOM      7  C   UNL     1       1.978   2.952  19.438  0.00  0.00    +0.000 A 
ATOM      8  C   UNL     1       2.426   1.770  18.854  0.00  0.00    +0.000 A 
ATOM      9  C   UNL     1       3.476   1.809  17.948  0.00  0.00    +0.000 A 
ATOM     10  C   UNL     1       4.073   3.030  17.620  0.00  0.00    +0.000 A 
ATOM     11  C   UNL     1       3.590   4.239  18.154  0.00  0.00    +0.000 A 
ENDROOT
BRANCH   4  12
ATOM     12  C   UNL     1       1.896   7.903  19.810  0.00  0.00    +0.000 C 
ATOM     13  O   UNL     1       1.815   8.034  21.030  0.00  0.00    +0.000 OA
ATOM     14  N   UNL     1       1.513   8.891  18.930  0.00  0.00    +0.000 N 
ATOM     15  H   UNL     1       1.490   8.755  17.914  0.00  0.00    +0.000 HD
BRANCH  14  16
ATOM     16  N   UNL     1       1.020  10.102  19.426  0.00  0.00    +0.000 N 
ATOM     17  C   UNL     1      -0.096  10.668  18.836  0.00  0.00    +0.000 C 
ATOM     18  O   UNL     1      -0.699  10.164  17.892  0.00  0.00    +0.000 OA
ATOM     19  H   UNL     1       1.385  10.405  20.322  0.00  0.00    +0.000 HD
BRANCH  17  20
ATOM     20  C   UNL     1      -0.569  11.937  19.454  0.00  0.00    +0.000 A 
ATOM     21  C   UNL     1      -1.321  11.932  20.637  0.00  0.00    +0.000 A 
ATOM     22  C   UNL     1      -1.800  13.132  21.166  0.00  0.00    +0.000 A 
ATOM     23  C   UNL     1      -1.517  14.339  20.529  0.00  0.00    +0.000 A 
ATOM     24  C   UNL     1      -0.732  14.355  19.376  0.00  0.00    +0.000 A 
ATOM     25  C   UNL     1      -0.253  13.157  18.840  0.00  0.00    +0.000 A 
ENDBRANCH  17  20
ENDBRANCH  14  16
ENDBRANCH   4  12
BRANCH   5  26
ATOM     26  O   UNL     1       1.101   5.279  20.693  0.00  0.00    +0.000 OA
ATOM     27  H   UNL     1       1.589   5.091  21.527  0.00  0.00    +0.000 HD
ENDBRANCH   5  26
BRANCH   1  28
ATOM     28  C   UNL     1       5.125   5.619  16.695  0.00  0.00    +0.000 C 
BRANCH  28  30
ATOM     29  C   UNL     1       7.372   4.697  17.376  0.00  0.00    +0.000 C 
ATOM     30  C   UNL     1       6.503   5.941  17.280  0.00  0.00    +0.000 C 
ENDBRANCH  28  30
ENDBRANCH   1  28
TORSDOF 6
ENDMDL
MODEL 9
REMARK VINA RESULT:      -7.3      6.106      7.126
REMARK  Name = 
REMARK  7 active torsions:
REMARK  status: ('A' for Active; 'I' for Inactive)
REMARK    1  A    between atoms: C_1  and  C_2
REMARK    2  A    between atoms: C_2  and  C_3
REMARK    3  A    between atoms: C_3  and  N_4
REMARK    4  A    between atoms: C_7  and  C_8
REMARK    5  A    between atoms: N_10  and  N_11
REMARK    6  A    between atoms: C_12  and  C_14
REMARK    7  A    between atoms: C_20  and  O_21
REMARK                            x       y       z     vdW  Elec       q    Type
REMARK                         _______ _______ _______ _____ _____    ______ ____
ROOT
ATOM      1  N   UNL     1       4.183   5.484  17.741  0.00  0.00    +0.000 N 
ATOM      2  C   UNL     1       3.500   6.661  18.011  0.00  0.00    +0.000 A 
ATOM      3  O   UNL     1       3.713   7.706  17.387  0.00  0.00    +0.000 OA
ATOM      4  C   UNL     1       2.490   6.669  19.109  0.00  0.00    +0.000 A 
ATOM      5  C   UNL     1       2.036   5.491  19.596  0.00  0.00    +0.000 A 
ATOM      6  C   UNL     1       2.572   4.221  19.077  0.00  0.00    +0.000 A 
ATOM      7  C   UNL     1       1.980   2.996  19.434  0.00  0.00    +0.000 A 
ATOM      8  C   UNL     1       2.442   1.793  18.906  0.00  0.00    +0.000 A 
ATOM      9  C   UNL     1       3.536   1.794  18.053  0.00  0.00    +0.000 A 
ATOM     10  C   UNL     1       4.162   2.999  17.719  0.00  0.00    +0.000 A 
ATOM     11  C   UNL     1       3.669   4.228  18.195  0.00  0.00    +0.000 A 
ENDROOT
BRANCH   4  12
ATOM     12  C   UNL     1       1.939   7.956  19.659  0.00  0.00    +0.000 C 
ATOM     13  O   UNL     1       1.826   8.135  20.870  0.00  0.00    +0.000 OA
ATOM     14  N   UNL     1       1.580   8.909  18.732  0.00  0.00    +0.000 N 
ATOM     15  H   UNL     1       1.582   8.734  17.722  0.00  0.00    +0.000 HD
BRANCH  14  16
ATOM     16  N   UNL     1       1.074  10.139  19.168  0.00  0.00    +0.000 N 
ATOM     17  C   UNL     1      -0.118  10.602  18.642  0.00  0.00    +0.000 C 
ATOM     18  O   UNL     1      -0.781   9.990  17.809  0.00  0.00    +0.000 OA
ATOM     19  H   UNL     1       1.506  10.537  19.994  0.00  0.00    +0.000 HD
BRANCH  17  20
ATOM     20  C   UNL     1      -0.594  11.901  19.192  0.00  0.00    +0.000 A 
ATOM     21  C   UNL     1       0.159  13.073  19.042  0.00  0.00    +0.000 A 
ATOM     22  C   UNL     1      -0.282  14.267  19.616  0.00  0.00    +0.000 A 
ATOM     23  C   UNL     1      -1.482  14.300  20.325  0.00  0.00    +0.000 A 
ATOM     24  C   UNL     1      -2.258  13.146  20.442  0.00  0.00    +0.000 A 
ATOM     25  C   UNL     1      -1.819  11.948  19.871  0.00  0.00    +0.000 A 
ENDBRANCH  17  20
ENDBRANCH  14  16
ENDBRANCH   4  12
BRANCH   5  26
ATOM     26  O   UNL     1       1.070   5.367  20.577  0.00  0.00    +0.000 OA
ATOM     27  H   UNL     1       0.415   6.093  20.469  0.00  0.00    +0.000 HD
ENDBRANCH   5  26
BRANCH   1  28
ATOM     28  C   UNL     1       5.290   5.549  16.775  0.00  0.00    +0.000 C 
BRANCH  28  30
ATOM     29  C   UNL     1       7.240   7.005  17.434  0.00  0.00    +0.000 C 
ATOM     30  C   UNL     1       6.671   5.596  17.434  0.00  0.00    +0.000 C 
ENDBRANCH  28  30
ENDBRANCH   1  28
TORSDOF 6
ENDMDL
