MODEL 1
REMARK VINA RESULT:      -8.9      0.000      0.000
REMARK  Name = 
REMARK  6 active torsions:
REMARK  status: ('A' for Active; 'I' for Inactive)
REMARK    1  A    between atoms: C_2  and  C_4
REMARK    2  A    between atoms: N_7  and  C_8
REMARK    3  A    between atoms: C_19  and  N_20
REMARK    4  A    between atoms: C_21  and  C_23
REMARK    5  A    between atoms: C_26  and  C_27
REMARK    6  A    between atoms: C_27  and  N_28
REMARK                            x       y       z     vdW  Elec       q    Type
REMARK                         _______ _______ _______ _____ _____    ______ ____
ROOT
ATOM      1  C   UNL     1       1.427   8.765  19.081  0.00  0.00    +0.000 A 
ATOM      2  N   UNL     1       2.328   7.714  18.907  0.00  0.00    +0.000 NA
ATOM      3  C   UNL     1       2.347   6.933  19.959  0.00  0.00    +0.000 A 
ATOM      4  N   UNL     1       3.143   5.850  20.090  0.00  0.00    +0.000 N 
ATOM      5  S   UNL     1       1.271   7.390  21.196  0.00  0.00    +0.000 S 
ATOM      6  C   UNL     1       0.745   8.745  20.287  0.00  0.00    +0.000 A 
ATOM      7  H   UNL     1       3.325   5.473  21.011  0.00  0.00    +0.000 HD
ENDROOT
BRANCH   4   8
ATOM      8  C   UNL     1       3.577   5.068  18.997  0.00  0.00    +0.000 A 
ATOM      9  C   UNL     1       2.636   4.407  18.198  0.00  0.00    +0.000 A 
ATOM     10  C   UNL     1       3.063   3.729  17.079  0.00  0.00    +0.000 A 
ATOM     11  N   UNL     1       4.349   3.675  16.692  0.00  0.00    +0.000 NA
ATOM     12  C   UNL     1       5.262   4.310  17.445  0.00  0.00    +0.000 A 
ATOM     13  C   UNL     1       6.580   4.284  17.017  0.00  0.00    +0.000 A 
ATOM     14  C   UNL     1       7.602   4.917  17.725  0.00  0.00    +0.000 A 
ATOM     15  C   UNL     1       7.304   5.596  18.898  0.00  0.00    +0.000 A 
ATOM     16  C   UNL     1       5.986   5.651  19.346  0.00  0.00    +0.000 A 
ATOM     17  C   UNL     1       4.944   5.016  18.630  0.00  0.00    +0.000 A 
ENDBRANCH   4   8
BRANCH   1  19
ATOM     18  N   UNL     1       0.076  10.009  17.614  0.00  0.00    +0.000 N 
ATOM     19  C   UNL     1       1.355   9.796  18.052  0.00  0.00    +0.000 C 
ATOM     20  O   UNL     1       2.327  10.390  17.603  0.00  0.00    +0.000 OA
ATOM     21  H   UNL     1      -0.124  10.672  16.881  0.00  0.00    +0.000 HD
ATOM     22  H   UNL     1      -0.675   9.449  18.009  0.00  0.00    +0.000 HD
ENDBRANCH   1  19
BRANCH   6  23
ATOM     23  N   UNL     1      -0.223   9.621  20.784  0.00  0.00    +0.000 N 
ATOM     24  C   UNL     1       0.087  10.841  21.367  0.00  0.00    +0.000 C 
ATOM     25  O   UNL     1       1.209  11.339  21.442  0.00  0.00    +0.000 OA
ATOM     26  H   UNL     1      -1.191   9.347  20.642  0.00  0.00    +0.000 HD
BRANCH  24  27
ATOM     27  C   UNL     1      -1.002  11.668  21.948  0.00  0.00    +0.000 A 
ATOM     28  C   UNL     1      -1.452  12.736  21.154  0.00  0.00    +0.000 A 
ATOM     29  C   UNL     1      -2.546  13.506  21.535  0.00  0.00    +0.000 A 
ATOM     30  C   UNL     1      -3.220  13.225  22.728  0.00  0.00    +0.000 A 
ATOM     31  C   UNL     1      -2.763  12.165  23.532  0.00  0.00    +0.000 A 
ATOM     32  C   UNL     1      -1.655  11.388  23.150  0.00  0.00    +0.000 A 
BRANCH  30  33
ATOM     33  C   UNL     1      -4.419  14.056  23.113  0.00  0.00    +0.000 C 
BRANCH  33  34
ATOM     34  N   UNL     1      -5.669  13.330  22.978  0.00  0.00    +0.000 N 
ATOM     35  C   UNL     1      -6.587  13.092  23.966  0.00  0.00    +0.000 A 
ATOM     36  C   UNL     1      -7.502  12.231  23.403  0.00  0.00    +0.000 A 
ATOM     37  N   UNL     1      -7.169  11.953  22.104  0.00  0.00    +0.000 NA
ATOM     38  C   UNL     1      -6.066  12.629  21.874  0.00  0.00    +0.000 A 
ENDBRANCH  33  34
ENDBRANCH  30  33
ENDBRANCH  24  27
ENDBRANCH   6  23
TORSDOF 6
ENDMDL
MODEL 2
REMARK VINA RESULT:      -8.7      3.836     11.123
REMARK  Name = 
REMARK  6 active torsions:
REMARK  status: ('A' for Active; 'I' for Inactive)
REMARK    1  A    between atoms: C_2  and  C_4
REMARK    2  A    between atoms: N_7  and  C_8
REMARK    3  A    between atoms: C_19  and  N_20
REMARK    4  A    between atoms: C_21  and  C_23
REMARK    5  A    between atoms: C_26  and  C_27
REMARK    6  A    between atoms: C_27  and  N_28
REMARK                            x       y       z     vdW  Elec       q    Type
REMARK                         _______ _______ _______ _____ _____    ______ ____
ROOT
ATOM      1  C   UNL     1      -0.777  11.898  18.944  0.00  0.00    +0.000 A 
ATOM      2  N   UNL     1      -1.115  13.228  19.196  0.00  0.00    +0.000 NA
ATOM      3  C   UNL     1      -0.319  13.751  20.096  0.00  0.00    +0.000 A 
ATOM      4  N   UNL     1      -0.423  15.015  20.562  0.00  0.00    +0.000 N 
ATOM      5  S   UNL     1       0.891  12.700  20.666  0.00  0.00    +0.000 S 
ATOM      6  C   UNL     1       0.314  11.435  19.663  0.00  0.00    +0.000 A 
ATOM      7  H   UNL     1       0.014  15.260  21.441  0.00  0.00    +0.000 HD
ENDROOT
BRANCH   4   8
ATOM      8  C   UNL     1      -0.927  16.088  19.793  0.00  0.00    +0.000 A 
ATOM      9  C   UNL     1      -2.214  16.580  20.046  0.00  0.00    +0.000 A 
ATOM     10  C   UNL     1      -2.655  17.687  19.358  0.00  0.00    +0.000 A 
ATOM     11  N   UNL     1      -1.907  18.344  18.454  0.00  0.00    +0.000 NA
ATOM     12  C   UNL     1      -0.670  17.887  18.207  0.00  0.00    +0.000 A 
ATOM     13  C   UNL     1       0.109  18.595  17.304  0.00  0.00    +0.000 A 
ATOM     14  C   UNL     1       1.410  18.205  16.983  0.00  0.00    +0.000 A 
ATOM     15  C   UNL     1       1.953  17.075  17.577  0.00  0.00    +0.000 A 
ATOM     16  C   UNL     1       1.199  16.350  18.499  0.00  0.00    +0.000 A 
ATOM     17  C   UNL     1      -0.119  16.743  18.833  0.00  0.00    +0.000 A 
ENDBRANCH   4   8
BRANCH   1  19
ATOM     18  N   UNL     1      -1.906  11.790  16.886  0.00  0.00    +0.000 N 
ATOM     19  C   UNL     1      -1.626  11.123  18.047  0.00  0.00    +0.000 C 
ATOM     20  O   UNL     1      -2.068  10.011  18.308  0.00  0.00    +0.000 OA
ATOM     21  H   UNL     1      -2.509  11.390  16.183  0.00  0.00    +0.000 HD
ATOM     22  H   UNL     1      -1.533  12.727  16.759  0.00  0.00    +0.000 HD
ENDBRANCH   1  19
BRANCH   6  23
ATOM     23  N   UNL     1       0.926  10.179  19.654  0.00  0.00    +0.000 N 
ATOM     24  C   UNL     1       1.682   9.711  18.589  0.00  0.00    +0.000 C 
ATOM     25  O   UNL     1       1.978  10.350  17.581  0.00  0.00    +0.000 OA
ATOM     26  H   UNL     1       0.843   9.635  20.508  0.00  0.00    +0.000 HD
BRANCH  24  27
ATOM     27  C   UNL     1       2.222   8.327  18.631  0.00  0.00    +0.000 A 
ATOM     28  C   UNL     1       3.041   7.955  17.553  0.00  0.00    +0.000 A 
ATOM     29  C   UNL     1       3.702   6.731  17.540  0.00  0.00    +0.000 A 
ATOM     30  C   UNL     1       3.557   5.845  18.612  0.00  0.00    +0.000 A 
ATOM     31  C   UNL     1       2.727   6.209  19.687  0.00  0.00    +0.000 A 
ATOM     32  C   UNL     1       2.055   7.444  19.700  0.00  0.00    +0.000 A 
BRANCH  30  33
ATOM     33  C   UNL     1       4.301   4.532  18.590  0.00  0.00    +0.000 C 
BRANCH  33  34
ATOM     34  N   UNL     1       5.734   4.704  18.426  0.00  0.00    +0.000 N 
ATOM     35  C   UNL     1       6.572   5.411  19.246  0.00  0.00    +0.000 A 
ATOM     36  C   UNL     1       7.783   5.425  18.592  0.00  0.00    +0.000 A 
ATOM     37  N   UNL     1       7.703   4.740  17.409  0.00  0.00    +0.000 NA
ATOM     38  C   UNL     1       6.461   4.315  17.336  0.00  0.00    +0.000 A 
ENDBRANCH  33  34
ENDBRANCH  30  33
ENDBRANCH  24  27
ENDBRANCH   6  23
TORSDOF 6
ENDMDL
MODEL 3
REMARK VINA RESULT:      -8.7      2.048      2.917
REMARK  Name = 
REMARK  6 active torsions:
REMARK  status: ('A' for Active; 'I' for Inactive)
REMARK    1  A    between atoms: C_2  and  C_4
REMARK    2  A    between atoms: N_7  and  C_8
REMARK    3  A    between atoms: C_19  and  N_20
REMARK    4  A    between atoms: C_21  and  C_23
REMARK    5  A    between atoms: C_26  and  C_27
REMARK    6  A    between atoms: C_27  and  N_28
REMARK                            x       y       z     vdW  Elec       q    Type
REMARK                         _______ _______ _______ _____ _____    ______ ____
ROOT
ATOM      1  C   UNL     1       0.661   9.689  19.669  0.00  0.00    +0.000 A 
ATOM      2  N   UNL     1       1.536   8.644  19.373  0.00  0.00    +0.000 NA
ATOM      3  C   UNL     1       1.724   7.878  20.420  0.00  0.00    +0.000 A 
ATOM      4  N   UNL     1       2.542   6.804  20.442  0.00  0.00    +0.000 N 
ATOM      5  S   UNL     1       0.845   8.343  21.801  0.00  0.00    +0.000 S 
ATOM      6  C   UNL     1       0.171   9.681  20.966  0.00  0.00    +0.000 A 
ATOM      7  H   UNL     1       2.866   6.442  21.329  0.00  0.00    +0.000 HD
ENDROOT
BRANCH   4   8
ATOM      8  C   UNL     1       2.812   6.009  19.305  0.00  0.00    +0.000 A 
ATOM      9  C   UNL     1       3.765   6.433  18.371  0.00  0.00    +0.000 A 
ATOM     10  C   UNL     1       4.090   5.604  17.321  0.00  0.00    +0.000 A 
ATOM     11  N   UNL     1       3.549   4.386  17.145  0.00  0.00    +0.000 NA
ATOM     12  C   UNL     1       2.639   3.964  18.036  0.00  0.00    +0.000 A 
ATOM     13  C   UNL     1       2.116   2.692  17.870  0.00  0.00    +0.000 A 
ATOM     14  C   UNL     1       1.169   2.159  18.745  0.00  0.00    +0.000 A 
ATOM     15  C   UNL     1       0.725   2.917  19.819  0.00  0.00    +0.000 A 
ATOM     16  C   UNL     1       1.242   4.196  20.020  0.00  0.00    +0.000 A 
ATOM     17  C   UNL     1       2.207   4.740  19.140  0.00  0.00    +0.000 A 
ENDBRANCH   4   8
BRANCH   1  19
ATOM     18  N   UNL     1       1.525  10.936  17.874  0.00  0.00    +0.000 N 
ATOM     19  C   UNL     1       0.422  10.705  18.651  0.00  0.00    +0.000 C 
ATOM     20  O   UNL     1      -0.634  11.310  18.516  0.00  0.00    +0.000 OA
ATOM     21  H   UNL     1       1.518  11.636  17.148  0.00  0.00    +0.000 HD
ATOM     22  H   UNL     1       2.379  10.420  18.072  0.00  0.00    +0.000 HD
ENDBRANCH   1  19
BRANCH   6  23
ATOM     23  N   UNL     1      -0.718  10.555  21.594  0.00  0.00    +0.000 N 
ATOM     24  C   UNL     1      -0.356  11.822  22.029  0.00  0.00    +0.000 C 
ATOM     25  O   UNL     1       0.735  12.361  21.847  0.00  0.00    +0.000 OA
ATOM     26  H   UNL     1      -1.681  10.240  21.665  0.00  0.00    +0.000 HD
BRANCH  24  27
ATOM     27  C   UNL     1      -1.346  12.650  22.766  0.00  0.00    +0.000 A 
ATOM     28  C   UNL     1      -0.987  13.991  22.977  0.00  0.00    +0.000 A 
ATOM     29  C   UNL     1      -1.880  14.894  23.547  0.00  0.00    +0.000 A 
ATOM     30  C   UNL     1      -3.160  14.473  23.921  0.00  0.00    +0.000 A 
ATOM     31  C   UNL     1      -3.517  13.127  23.722  0.00  0.00    +0.000 A 
ATOM     32  C   UNL     1      -2.614  12.213  23.150  0.00  0.00    +0.000 A 
BRANCH  30  33
ATOM     33  C   UNL     1      -4.122  15.472  24.514  0.00  0.00    +0.000 C 
BRANCH  33  34
ATOM     34  N   UNL     1      -5.263  15.731  23.653  0.00  0.00    +0.000 N 
ATOM     35  C   UNL     1      -6.527  15.225  23.798  0.00  0.00    +0.000 A 
ATOM     36  C   UNL     1      -7.198  15.611  22.660  0.00  0.00    +0.000 A 
ATOM     37  N   UNL     1      -6.380  16.342  21.840  0.00  0.00    +0.000 NA
ATOM     38  C   UNL     1      -5.224  16.400  22.463  0.00  0.00    +0.000 A 
ENDBRANCH  33  34
ENDBRANCH  30  33
ENDBRANCH  24  27
ENDBRANCH   6  23
TORSDOF 6
ENDMDL
MODEL 4
REMARK VINA RESULT:      -8.5      0.947      2.232
REMARK  Name = 
REMARK  6 active torsions:
REMARK  status: ('A' for Active; 'I' for Inactive)
REMARK    1  A    between atoms: C_2  and  C_4
REMARK    2  A    between atoms: N_7  and  C_8
REMARK    3  A    between atoms: C_19  and  N_20
REMARK    4  A    between atoms: C_21  and  C_23
REMARK    5  A    between atoms: C_26  and  C_27
REMARK    6  A    between atoms: C_27  and  N_28
REMARK                            x       y       z     vdW  Elec       q    Type
REMARK                         _______ _______ _______ _____ _____    ______ ____
ROOT
ATOM      1  C   UNL     1       1.184   9.086  19.131  0.00  0.00    +0.000 A 
ATOM      2  N   UNL     1       2.101   8.040  19.025  0.00  0.00    +0.000 NA
ATOM      3  C   UNL     1       2.136   7.333  20.128  0.00  0.00    +0.000 A 
ATOM      4  N   UNL     1       2.951   6.274  20.328  0.00  0.00    +0.000 N 
ATOM      5  S   UNL     1       1.058   7.855  21.336  0.00  0.00    +0.000 S 
ATOM      6  C   UNL     1       0.506   9.137  20.339  0.00  0.00    +0.000 A 
ATOM      7  H   UNL     1       3.142   5.963  21.271  0.00  0.00    +0.000 HD
ENDROOT
BRANCH   4   8
ATOM      8  C   UNL     1       3.393   5.426  19.289  0.00  0.00    +0.000 A 
ATOM      9  C   UNL     1       4.587   5.713  18.617  0.00  0.00    +0.000 A 
ATOM     10  C   UNL     1       5.058   4.828  17.674  0.00  0.00    +0.000 A 
ATOM     11  N   UNL     1       4.436   3.676  17.366  0.00  0.00    +0.000 NA
ATOM     12  C   UNL     1       3.294   3.384  18.007  0.00  0.00    +0.000 A 
ATOM     13  C   UNL     1       2.681   2.176  17.713  0.00  0.00    +0.000 A 
ATOM     14  C   UNL     1       1.494   1.778  18.328  0.00  0.00    +0.000 A 
ATOM     15  C   UNL     1       0.895   2.608  19.264  0.00  0.00    +0.000 A 
ATOM     16  C   UNL     1       1.494   3.823  19.591  0.00  0.00    +0.000 A 
ATOM     17  C   UNL     1       2.701   4.231  18.975  0.00  0.00    +0.000 A 
ENDBRANCH   4   8
BRANCH   1  19
ATOM     18  N   UNL     1      -0.191  10.198  17.584  0.00  0.00    +0.000 N 
ATOM     19  C   UNL     1       1.091  10.043  18.036  0.00  0.00    +0.000 C 
ATOM     20  O   UNL     1       2.051  10.626  17.547  0.00  0.00    +0.000 OA
ATOM     21  H   UNL     1      -0.405  10.806  16.808  0.00  0.00    +0.000 HD
ATOM     22  H   UNL     1      -0.931   9.650  18.016  0.00  0.00    +0.000 HD
ENDBRANCH   1  19
BRANCH   6  23
ATOM     23  N   UNL     1      -0.474  10.029  20.781  0.00  0.00    +0.000 N 
ATOM     24  C   UNL     1      -0.179  11.213  21.440  0.00  0.00    +0.000 C 
ATOM     25  O   UNL     1       0.948  11.665  21.640  0.00  0.00    +0.000 OA
ATOM     26  H   UNL     1      -1.432   9.798  20.538  0.00  0.00    +0.000 HD
BRANCH  24  27
ATOM     27  C   UNL     1      -1.289  12.058  21.952  0.00  0.00    +0.000 A 
ATOM     28  C   UNL     1      -1.738  13.070  21.087  0.00  0.00    +0.000 A 
ATOM     29  C   UNL     1      -2.849  13.846  21.402  0.00  0.00    +0.000 A 
ATOM     30  C   UNL     1      -3.541  13.627  22.598  0.00  0.00    +0.000 A 
ATOM     31  C   UNL     1      -3.085  12.623  23.472  0.00  0.00    +0.000 A 
ATOM     32  C   UNL     1      -1.960  11.841  23.156  0.00  0.00    +0.000 A 
BRANCH  30  33
ATOM     33  C   UNL     1      -4.757  14.462  22.911  0.00  0.00    +0.000 C 
BRANCH  33  34
ATOM     34  N   UNL     1      -5.990  13.695  22.868  0.00  0.00    +0.000 N 
ATOM     35  C   UNL     1      -6.795  13.381  23.930  0.00  0.00    +0.000 A 
ATOM     36  C   UNL     1      -7.732  12.510  23.422  0.00  0.00    +0.000 A 
ATOM     37  N   UNL     1      -7.521  12.298  22.085  0.00  0.00    +0.000 NA
ATOM     38  C   UNL     1      -6.470  13.025  21.778  0.00  0.00    +0.000 A 
ENDBRANCH  33  34
ENDBRANCH  30  33
ENDBRANCH  24  27
ENDBRANCH   6  23
TORSDOF 6
ENDMDL
MODEL 5
REMARK VINA RESULT:      -8.4      2.191     11.622
REMARK  Name = 
REMARK  6 active torsions:
REMARK  status: ('A' for Active; 'I' for Inactive)
REMARK    1  A    between atoms: C_2  and  C_4
REMARK    2  A    between atoms: N_7  and  C_8
REMARK    3  A    between atoms: C_19  and  N_20
REMARK    4  A    between atoms: C_21  and  C_23
REMARK    5  A    between atoms: C_26  and  C_27
REMARK    6  A    between atoms: C_27  and  N_28
REMARK                            x       y       z     vdW  Elec       q    Type
REMARK                         _______ _______ _______ _____ _____    ______ ____
ROOT
ATOM      1  C   UNL     1      -0.321  10.370  21.158  0.00  0.00    +0.000 A 
ATOM      2  N   UNL     1      -1.158  11.486  21.176  0.00  0.00    +0.000 NA
ATOM      3  C   UNL     1      -1.486  11.847  19.960  0.00  0.00    +0.000 A 
ATOM      4  N   UNL     1      -2.263  12.911  19.664  0.00  0.00    +0.000 N 
ATOM      5  S   UNL     1      -0.843  10.859  18.733  0.00  0.00    +0.000 S 
ATOM      6  C   UNL     1      -0.043   9.879  19.891  0.00  0.00    +0.000 A 
ATOM      7  H   UNL     1      -2.238  13.303  18.733  0.00  0.00    +0.000 HD
ENDROOT
BRANCH   4   8
ATOM      8  C   UNL     1      -3.282  13.390  20.518  0.00  0.00    +0.000 A 
ATOM      9  C   UNL     1      -2.976  14.339  21.501  0.00  0.00    +0.000 A 
ATOM     10  C   UNL     1      -3.993  14.871  22.260  0.00  0.00    +0.000 A 
ATOM     11  N   UNL     1      -5.286  14.539  22.101  0.00  0.00    +0.000 NA
ATOM     12  C   UNL     1      -5.595  13.636  21.158  0.00  0.00    +0.000 A 
ATOM     13  C   UNL     1      -6.934  13.330  20.973  0.00  0.00    +0.000 A 
ATOM     14  C   UNL     1      -7.359  12.409  20.015  0.00  0.00    +0.000 A 
ATOM     15  C   UNL     1      -6.422  11.768  19.217  0.00  0.00    +0.000 A 
ATOM     16  C   UNL     1      -5.069  12.065  19.371  0.00  0.00    +0.000 A 
ATOM     17  C   UNL     1      -4.631  13.003  20.336  0.00  0.00    +0.000 A 
ENDBRANCH   4   8
BRANCH   1  19
ATOM     18  N   UNL     1      -0.724   9.746  23.388  0.00  0.00    +0.000 N 
ATOM     19  C   UNL     1       0.233   9.895  22.420  0.00  0.00    +0.000 C 
ATOM     20  O   UNL     1       1.423   9.679  22.612  0.00  0.00    +0.000 OA
ATOM     21  H   UNL     1      -0.483   9.454  24.323  0.00  0.00    +0.000 HD
ATOM     22  H   UNL     1      -1.687   9.982  23.163  0.00  0.00    +0.000 HD
ENDBRANCH   1  19
BRANCH   6  23
ATOM     23  N   UNL     1       0.737   8.788  19.504  0.00  0.00    +0.000 N 
ATOM     24  C   UNL     1       1.738   8.873  18.547  0.00  0.00    +0.000 C 
ATOM     25  O   UNL     1       2.120   9.903  17.995  0.00  0.00    +0.000 OA
ATOM     26  H   UNL     1       0.578   7.921  20.010  0.00  0.00    +0.000 HD
BRANCH  24  27
ATOM     27  C   UNL     1       2.459   7.640  18.135  0.00  0.00    +0.000 A 
ATOM     28  C   UNL     1       3.632   7.836  17.388  0.00  0.00    +0.000 A 
ATOM     29  C   UNL     1       4.456   6.768  17.049  0.00  0.00    +0.000 A 
ATOM     30  C   UNL     1       4.123   5.471  17.450  0.00  0.00    +0.000 A 
ATOM     31  C   UNL     1       2.942   5.270  18.187  0.00  0.00    +0.000 A 
ATOM     32  C   UNL     1       2.106   6.348  18.527  0.00  0.00    +0.000 A 
BRANCH  30  33
ATOM     33  C   UNL     1       5.042   4.329  17.093  0.00  0.00    +0.000 C 
BRANCH  33  34
ATOM     34  N   UNL     1       5.879   4.622  15.943  0.00  0.00    +0.000 N 
ATOM     35  C   UNL     1       5.633   4.269  14.642  0.00  0.00    +0.000 A 
ATOM     36  C   UNL     1       6.777   4.612  13.958  0.00  0.00    +0.000 A 
ATOM     37  N   UNL     1       7.699   5.169  14.804  0.00  0.00    +0.000 NA
ATOM     38  C   UNL     1       7.132   5.165  15.989  0.00  0.00    +0.000 A 
ENDBRANCH  33  34
ENDBRANCH  30  33
ENDBRANCH  24  27
ENDBRANCH   6  23
TORSDOF 6
ENDMDL
MODEL 6
REMARK VINA RESULT:      -8.4      2.113      3.296
REMARK  Name = 
REMARK  6 active torsions:
REMARK  status: ('A' for Active; 'I' for Inactive)
REMARK    1  A    between atoms: C_2  and  C_4
REMARK    2  A    between atoms: N_7  and  C_8
REMARK    3  A    between atoms: C_19  and  N_20
REMARK    4  A    between atoms: C_21  and  C_23
REMARK    5  A    between atoms: C_26  and  C_27
REMARK    6  A    between atoms: C_27  and  N_28
REMARK                            x       y       z     vdW  Elec       q    Type
REMARK                         _______ _______ _______ _____ _____    ______ ____
ROOT
ATOM      1  C   UNL     1       0.780   9.735  19.479  0.00  0.00    +0.000 A 
ATOM      2  N   UNL     1       1.647   8.663  19.262  0.00  0.00    +0.000 NA
ATOM      3  C   UNL     1       1.738   7.910  20.330  0.00  0.00    +0.000 A 
ATOM      4  N   UNL     1       2.525   6.816  20.426  0.00  0.00    +0.000 N 
ATOM      5  S   UNL     1       0.774   8.418  21.636  0.00  0.00    +0.000 S 
ATOM      6  C   UNL     1       0.198   9.759  20.736  0.00  0.00    +0.000 A 
ATOM      7  H   UNL     1       2.774   6.459  21.339  0.00  0.00    +0.000 HD
ENDROOT
BRANCH   4   8
ATOM      8  C   UNL     1       2.855   5.997  19.323  0.00  0.00    +0.000 A 
ATOM      9  C   UNL     1       3.865   6.396  18.439  0.00  0.00    +0.000 A 
ATOM     10  C   UNL     1       4.246   5.546  17.426  0.00  0.00    +0.000 A 
ATOM     11  N   UNL     1       3.707   4.328  17.241  0.00  0.00    +0.000 NA
ATOM     12  C   UNL     1       2.743   3.929  18.086  0.00  0.00    +0.000 A 
ATOM     13  C   UNL     1       2.222   2.656  17.913  0.00  0.00    +0.000 A 
ATOM     14  C   UNL     1       1.220   2.147  18.741  0.00  0.00    +0.000 A 
ATOM     15  C   UNL     1       0.719   2.928  19.772  0.00  0.00    +0.000 A 
ATOM     16  C   UNL     1       1.233   4.208  19.978  0.00  0.00    +0.000 A 
ATOM     17  C   UNL     1       2.252   4.729  19.146  0.00  0.00    +0.000 A 
ENDBRANCH   4   8
BRANCH   1  19
ATOM     18  N   UNL     1       1.815  10.963  17.764  0.00  0.00    +0.000 N 
ATOM     19  C   UNL     1       0.642  10.740  18.432  0.00  0.00    +0.000 C 
ATOM     20  O   UNL     1      -0.395  11.345  18.191  0.00  0.00    +0.000 OA
ATOM     21  H   UNL     1       1.880  11.655  17.033  0.00  0.00    +0.000 HD
ATOM     22  H   UNL     1       2.645  10.449  18.048  0.00  0.00    +0.000 HD
ENDBRANCH   1  19
BRANCH   6  23
ATOM     23  N   UNL     1      -0.712  10.665  21.286  0.00  0.00    +0.000 N 
ATOM     24  C   UNL     1      -0.352  11.933  21.717  0.00  0.00    +0.000 C 
ATOM     25  O   UNL     1       0.760  12.446  21.596  0.00  0.00    +0.000 OA
ATOM     26  H   UNL     1      -1.684  10.371  21.300  0.00  0.00    +0.000 HD
BRANCH  24  27
ATOM     27  C   UNL     1      -1.370  12.797  22.370  0.00  0.00    +0.000 A 
ATOM     28  C   UNL     1      -2.699  12.591  21.967  0.00  0.00    +0.000 A 
ATOM     29  C   UNL     1      -3.752  13.252  22.592  0.00  0.00    +0.000 A 
ATOM     30  C   UNL     1      -3.497  14.142  23.641  0.00  0.00    +0.000 A 
ATOM     31  C   UNL     1      -2.165  14.360  24.037  0.00  0.00    +0.000 A 
ATOM     32  C   UNL     1      -1.100  13.695  23.404  0.00  0.00    +0.000 A 
BRANCH  30  33
ATOM     33  C   UNL     1      -4.653  14.831  24.322  0.00  0.00    +0.000 C 
BRANCH  33  34
ATOM     34  N   UNL     1      -4.660  16.266  24.099  0.00  0.00    +0.000 N 
ATOM     35  C   UNL     1      -4.649  17.242  25.059  0.00  0.00    +0.000 A 
ATOM     36  C   UNL     1      -4.837  18.420  24.371  0.00  0.00    +0.000 A 
ATOM     37  N   UNL     1      -4.949  18.183  23.027  0.00  0.00    +0.000 NA
ATOM     38  C   UNL     1      -4.837  16.881  22.892  0.00  0.00    +0.000 A 
ENDBRANCH  33  34
ENDBRANCH  30  33
ENDBRANCH  24  27
ENDBRANCH   6  23
TORSDOF 6
ENDMDL
MODEL 7
REMARK VINA RESULT:      -8.4      3.531     11.324
REMARK  Name = 
REMARK  6 active torsions:
REMARK  status: ('A' for Active; 'I' for Inactive)
REMARK    1  A    between atoms: C_2  and  C_4
REMARK    2  A    between atoms: N_7  and  C_8
REMARK    3  A    between atoms: C_19  and  N_20
REMARK    4  A    between atoms: C_21  and  C_23
REMARK    5  A    between atoms: C_26  and  C_27
REMARK    6  A    between atoms: C_27  and  N_28
REMARK                            x       y       z     vdW  Elec       q    Type
REMARK                         _______ _______ _______ _____ _____    ______ ____
ROOT
ATOM      1  C   UNL     1      -0.873  11.581  18.697  0.00  0.00    +0.000 A 
ATOM      2  N   UNL     1      -1.263  12.816  19.214  0.00  0.00    +0.000 NA
ATOM      3  C   UNL     1      -0.304  13.349  19.931  0.00  0.00    +0.000 A 
ATOM      4  N   UNL     1      -0.403  14.530  20.579  0.00  0.00    +0.000 N 
ATOM      5  S   UNL     1       1.122  12.424  20.000  0.00  0.00    +0.000 S 
ATOM      6  C   UNL     1       0.420  11.203  19.023  0.00  0.00    +0.000 A 
ATOM      7  H   UNL     1       0.238  14.740  21.333  0.00  0.00    +0.000 HD
ENDROOT
BRANCH   4   8
ATOM      8  C   UNL     1      -1.215  15.596  20.132  0.00  0.00    +0.000 A 
ATOM      9  C   UNL     1      -2.487  15.782  20.688  0.00  0.00    +0.000 A 
ATOM     10  C   UNL     1      -3.228  16.880  20.316  0.00  0.00    +0.000 A 
ATOM     11  N   UNL     1      -2.791  17.808  19.448  0.00  0.00    +0.000 NA
ATOM     12  C   UNL     1      -1.570  17.647  18.913  0.00  0.00    +0.000 A 
ATOM     13  C   UNL     1      -1.111  18.630  18.050  0.00  0.00    +0.000 A 
ATOM     14  C   UNL     1       0.145  18.558  17.446  0.00  0.00    +0.000 A 
ATOM     15  C   UNL     1       0.969  17.473  17.706  0.00  0.00    +0.000 A 
ATOM     16  C   UNL     1       0.540  16.475  18.579  0.00  0.00    +0.000 A 
ATOM     17  C   UNL     1      -0.730  16.544  19.200  0.00  0.00    +0.000 A 
ENDBRANCH   4   8
BRANCH   1  19
ATOM     18  N   UNL     1      -3.126  11.283  18.099  0.00  0.00    +0.000 N 
ATOM     19  C   UNL     1      -1.855  10.793  17.963  0.00  0.00    +0.000 C 
ATOM     20  O   UNL     1      -1.589   9.785  17.319  0.00  0.00    +0.000 OA
ATOM     21  H   UNL     1      -3.915  10.822  17.672  0.00  0.00    +0.000 HD
ATOM     22  H   UNL     1      -3.273  12.103  18.683  0.00  0.00    +0.000 HD
ENDBRANCH   1  19
BRANCH   6  23
ATOM     23  N   UNL     1       1.133  10.053  18.675  0.00  0.00    +0.000 N 
ATOM     24  C   UNL     1       1.379   9.015  19.562  0.00  0.00    +0.000 C 
ATOM     25  O   UNL     1       0.942   8.930  20.709  0.00  0.00    +0.000 OA
ATOM     26  H   UNL     1       1.418   9.980  17.702  0.00  0.00    +0.000 HD
BRANCH  24  27
ATOM     27  C   UNL     1       2.221   7.870  19.129  0.00  0.00    +0.000 A 
ATOM     28  C   UNL     1       2.221   6.753  19.980  0.00  0.00    +0.000 A 
ATOM     29  C   UNL     1       2.873   5.577  19.623  0.00  0.00    +0.000 A 
ATOM     30  C   UNL     1       3.545   5.491  18.400  0.00  0.00    +0.000 A 
ATOM     31  C   UNL     1       3.557   6.613  17.552  0.00  0.00    +0.000 A 
ATOM     32  C   UNL     1       2.903   7.804  17.913  0.00  0.00    +0.000 A 
BRANCH  30  33
ATOM     33  C   UNL     1       4.225   4.199  18.020  0.00  0.00    +0.000 C 
BRANCH  33  34
ATOM     34  N   UNL     1       5.448   4.410  17.265  0.00  0.00    +0.000 N 
ATOM     35  C   UNL     1       5.629   4.190  15.925  0.00  0.00    +0.000 A 
ATOM     36  C   UNL     1       6.978   4.366  15.715  0.00  0.00    +0.000 A 
ATOM     37  N   UNL     1       7.612   4.695  16.884  0.00  0.00    +0.000 NA
ATOM     38  C   UNL     1       6.668   4.718  17.798  0.00  0.00    +0.000 A 
ENDBRANCH  33  34
ENDBRANCH  30  33
ENDBRANCH  24  27
ENDBRANCH   6  23
TORSDOF 6
ENDMDL
MODEL 8
REMARK VINA RESULT:      -8.4      1.882      2.940
REMARK  Name = 
REMARK  6 active torsions:
REMARK  status: ('A' for Active; 'I' for Inactive)
REMARK    1  A    between atoms: C_2  and  C_4
REMARK    2  A    between atoms: N_7  and  C_8
REMARK    3  A    between atoms: C_19  and  N_20
REMARK    4  A    between atoms: C_21  and  C_23
REMARK    5  A    between atoms: C_26  and  C_27
REMARK    6  A    between atoms: C_27  and  N_28
REMARK                            x       y       z     vdW  Elec       q    Type
REMARK                         _______ _______ _______ _____ _____    ______ ____
ROOT
ATOM      1  C   UNL     1       0.985   9.643  19.446  0.00  0.00    +0.000 A 
ATOM      2  N   UNL     1       1.811   8.546  19.198  0.00  0.00    +0.000 NA
ATOM      3  C   UNL     1       1.908   7.782  20.259  0.00  0.00    +0.000 A 
ATOM      4  N   UNL     1       2.662   6.664  20.325  0.00  0.00    +0.000 N 
ATOM      5  S   UNL     1       0.999   8.312  21.595  0.00  0.00    +0.000 S 
ATOM      6  C   UNL     1       0.440   9.676  20.720  0.00  0.00    +0.000 A 
ATOM      7  H   UNL     1       2.926   6.293  21.229  0.00  0.00    +0.000 HD
ENDROOT
BRANCH   4   8
ATOM      8  C   UNL     1       2.935   5.843  19.209  0.00  0.00    +0.000 A 
ATOM      9  C   UNL     1       3.915   6.227  18.285  0.00  0.00    +0.000 A 
ATOM     10  C   UNL     1       4.240   5.373  17.257  0.00  0.00    +0.000 A 
ATOM     11  N   UNL     1       3.675   4.164  17.091  0.00  0.00    +0.000 NA
ATOM     12  C   UNL     1       2.739   3.779  17.973  0.00  0.00    +0.000 A 
ATOM     13  C   UNL     1       2.192   2.515  17.820  0.00  0.00    +0.000 A 
ATOM     14  C   UNL     1       1.216   2.020  18.686  0.00  0.00    +0.000 A 
ATOM     15  C   UNL     1       0.770   2.807  19.738  0.00  0.00    +0.000 A 
ATOM     16  C   UNL     1       1.312   4.078  19.925  0.00  0.00    +0.000 A 
ATOM     17  C   UNL     1       2.305   4.584  19.054  0.00  0.00    +0.000 A 
ENDBRANCH   4   8
BRANCH   1  19
ATOM     18  N   UNL     1      -0.333  10.555  17.728  0.00  0.00    +0.000 N 
ATOM     19  C   UNL     1       0.849  10.659  18.410  0.00  0.00    +0.000 C 
ATOM     20  O   UNL     1       1.704  11.497  18.150  0.00  0.00    +0.000 OA
ATOM     21  H   UNL     1      -0.553  11.173  16.962  0.00  0.00    +0.000 HD
ATOM     22  H   UNL     1      -0.977   9.809  17.977  0.00  0.00    +0.000 HD
ENDBRANCH   1  19
BRANCH   6  23
ATOM     23  N   UNL     1      -0.425  10.607  21.301  0.00  0.00    +0.000 N 
ATOM     24  C   UNL     1      -0.012  11.859  21.731  0.00  0.00    +0.000 C 
ATOM     25  O   UNL     1       1.113  12.337  21.584  0.00  0.00    +0.000 OA
ATOM     26  H   UNL     1      -1.405  10.344  21.340  0.00  0.00    +0.000 HD
BRANCH  24  27
ATOM     27  C   UNL     1      -0.982  12.751  22.418  0.00  0.00    +0.000 A 
ATOM     28  C   UNL     1      -2.080  12.114  23.019  0.00  0.00    +0.000 A 
ATOM     29  C   UNL     1      -2.991  12.827  23.793  0.00  0.00    +0.000 A 
ATOM     30  C   UNL     1      -2.823  14.202  23.984  0.00  0.00    +0.000 A 
ATOM     31  C   UNL     1      -1.731  14.844  23.373  0.00  0.00    +0.000 A 
ATOM     32  C   UNL     1      -0.813  14.126  22.587  0.00  0.00    +0.000 A 
BRANCH  30  33
ATOM     33  C   UNL     1      -3.807  14.953  24.847  0.00  0.00    +0.000 C 
BRANCH  33  34
ATOM     34  N   UNL     1      -4.818  15.646  24.069  0.00  0.00    +0.000 N 
ATOM     35  C   UNL     1      -5.418  16.837  24.383  0.00  0.00    +0.000 A 
ATOM     36  C   UNL     1      -6.414  16.992  23.446  0.00  0.00    +0.000 A 
ATOM     37  N   UNL     1      -6.426  15.937  22.572  0.00  0.00    +0.000 NA
ATOM     38  C   UNL     1      -5.455  15.146  22.968  0.00  0.00    +0.000 A 
ENDBRANCH  33  34
ENDBRANCH  30  33
ENDBRANCH  24  27
ENDBRANCH   6  23
TORSDOF 6
ENDMDL
MODEL 9
REMARK VINA RESULT:      -8.4      1.925      2.750
REMARK  Name = 
REMARK  6 active torsions:
REMARK  status: ('A' for Active; 'I' for Inactive)
REMARK    1  A    between atoms: C_2  and  C_4
REMARK    2  A    between atoms: N_7  and  C_8
REMARK    3  A    between atoms: C_19  and  N_20
REMARK    4  A    between atoms: C_21  and  C_23
REMARK    5  A    between atoms: C_26  and  C_27
REMARK    6  A    between atoms: C_27  and  N_28
REMARK                            x       y       z     vdW  Elec       q    Type
REMARK                         _______ _______ _______ _____ _____    ______ ____
ROOT
ATOM      1  C   UNL     1       1.399   8.984  19.148  0.00  0.00    +0.000 A 
ATOM      2  N   UNL     1       2.218   7.870  18.958  0.00  0.00    +0.000 NA
ATOM      3  C   UNL     1       2.258   7.128  20.038  0.00  0.00    +0.000 A 
ATOM      4  N   UNL     1       2.991   6.001  20.160  0.00  0.00    +0.000 N 
ATOM      5  S   UNL     1       1.300   7.699  21.322  0.00  0.00    +0.000 S 
ATOM      6  C   UNL     1       0.800   9.052  20.396  0.00  0.00    +0.000 A 
ATOM      7  H   UNL     1       3.210   5.646  21.081  0.00  0.00    +0.000 HD
ENDROOT
BRANCH   4   8
ATOM      8  C   UNL     1       3.300   5.152  19.073  0.00  0.00    +0.000 A 
ATOM      9  C   UNL     1       2.271   4.488  18.396  0.00  0.00    +0.000 A 
ATOM     10  C   UNL     1       2.574   3.743  17.279  0.00  0.00    +0.000 A 
ATOM     11  N   UNL     1       3.818   3.626  16.782  0.00  0.00    +0.000 NA
ATOM     12  C   UNL     1       4.813   4.264  17.417  0.00  0.00    +0.000 A 
ATOM     13  C   UNL     1       6.086   4.171  16.875  0.00  0.00    +0.000 A 
ATOM     14  C   UNL     1       7.186   4.801  17.457  0.00  0.00    +0.000 A 
ATOM     15  C   UNL     1       7.018   5.545  18.616  0.00  0.00    +0.000 A 
ATOM     16  C   UNL     1       5.747   5.667  19.177  0.00  0.00    +0.000 A 
ATOM     17  C   UNL     1       4.626   5.035  18.590  0.00  0.00    +0.000 A 
ENDBRANCH   4   8
BRANCH   1  19
ATOM     18  N   UNL     1       0.045  10.164  17.632  0.00  0.00    +0.000 N 
ATOM     19  C   UNL     1       1.323   9.980  18.086  0.00  0.00    +0.000 C 
ATOM     20  O   UNL     1       2.293  10.569  17.624  0.00  0.00    +0.000 OA
ATOM     21  H   UNL     1      -0.157  10.801  16.877  0.00  0.00    +0.000 HD
ATOM     22  H   UNL     1      -0.703   9.609  18.040  0.00  0.00    +0.000 HD
ENDBRANCH   1  19
BRANCH   6  23
ATOM     23  N   UNL     1      -0.075  10.007  20.920  0.00  0.00    +0.000 N 
ATOM     24  C   UNL     1       0.345  11.243  21.390  0.00  0.00    +0.000 C 
ATOM     25  O   UNL     1       1.492  11.684  21.330  0.00  0.00    +0.000 OA
ATOM     26  H   UNL     1      -1.063   9.777  20.883  0.00  0.00    +0.000 HD
BRANCH  24  27
ATOM     27  C   UNL     1      -0.644  12.161  22.011  0.00  0.00    +0.000 A 
ATOM     28  C   UNL     1      -1.625  11.554  22.813  0.00  0.00    +0.000 A 
ATOM     29  C   UNL     1      -2.531  12.318  23.543  0.00  0.00    +0.000 A 
ATOM     30  C   UNL     1      -2.477  13.714  23.487  0.00  0.00    +0.000 A 
ATOM     31  C   UNL     1      -1.504  14.323  22.674  0.00  0.00    +0.000 A 
ATOM     32  C   UNL     1      -0.591  13.553  21.932  0.00  0.00    +0.000 A 
BRANCH  30  33
ATOM     33  C   UNL     1      -3.452  14.524  24.305  0.00  0.00    +0.000 C 
BRANCH  33  34
ATOM     34  N   UNL     1      -2.805  15.582  25.060  0.00  0.00    +0.000 N 
ATOM     35  C   UNL     1      -2.979  16.930  24.892  0.00  0.00    +0.000 A 
ATOM     36  C   UNL     1      -2.038  17.516  25.708  0.00  0.00    +0.000 A 
ATOM     37  N   UNL     1      -1.310  16.562  26.371  0.00  0.00    +0.000 NA
ATOM     38  C   UNL     1      -1.795  15.410  25.964  0.00  0.00    +0.000 A 
ENDBRANCH  33  34
ENDBRANCH  30  33
ENDBRANCH  24  27
ENDBRANCH   6  23
TORSDOF 6
ENDMDL
