MODEL 1
REMARK VINA RESULT:      -7.3      0.000      0.000
REMARK  Name = 
REMARK  8 active torsions:
REMARK  status: ('A' for Active; 'I' for Inactive)
REMARK    1  A    between atoms: C_1  and  C_2
REMARK    2  A    between atoms: C_2  and  N_3
REMARK    3  A    between atoms: C_5  and  C_6
REMARK    4  A    between atoms: C_6  and  N_7
REMARK    5  A    between atoms: N_7  and  C_8
REMARK    6  A    between atoms: N_7  and  C_9
REMARK    7  A    between atoms: C_9  and  C_10
REMARK    8  A    between atoms: N_13  and  C_14
REMARK                            x       y       z     vdW  Elec       q    Type
REMARK                         _______ _______ _______ _____ _____    ______ ____
ROOT
ATOM      1  C   UNL     1       4.800   5.555  16.431  0.00  0.00    +0.000 A 
ATOM      2  C   UNL     1       4.479   6.687  17.207  0.00  0.00    +0.000 A 
ATOM      3  N   UNL     1       3.815   6.377  18.320  0.00  0.00    +0.000 NA
ATOM      4  N   UNL     1       3.702   5.023  18.288  0.00  0.00    +0.000 N 
ATOM      5  C   UNL     1       4.333   4.499  17.184  0.00  0.00    +0.000 A 
ENDROOT
BRANCH   4   6
ATOM      6  C   UNL     1       2.986   4.317  19.294  0.00  0.00    +0.000 A 
ATOM      7  C   UNL     1       1.662   4.682  19.590  0.00  0.00    +0.000 A 
ATOM      8  C   UNL     1       0.949   3.990  20.573  0.00  0.00    +0.000 A 
ATOM      9  C   UNL     1       1.560   2.947  21.258  0.00  0.00    +0.000 A 
ATOM     10  F   UNL     1       0.880   2.290  22.206  0.00  0.00    +0.000 F 
ATOM     11  C   UNL     1       2.868   2.574  20.976  0.00  0.00    +0.000 A 
ATOM     12  C   UNL     1       3.585   3.254  19.989  0.00  0.00    +0.000 A 
ENDBRANCH   4   6
BRANCH   1  13
ATOM     13  C   UNL     1       5.426   5.512  15.081  0.00  0.00    +0.000 C 
BRANCH  13  14
ATOM     14  N   UNL     1       6.351   4.363  14.981  0.00  0.00    +0.000 NA
ATOM     15  C   UNL     1       7.364   4.485  16.037  0.00  0.00    +0.000 C 
BRANCH  14  16
ATOM     16  C   UNL     1       6.967   4.299  13.640  0.00  0.00    +0.000 C 
BRANCH  16  19
ATOM     17  N   UNL     1       4.491   2.953  11.306  0.00  0.00    +0.000 N 
ATOM     18  C   UNL     1       4.887   3.975  12.121  0.00  0.00    +0.000 A 
ATOM     19  C   UNL     1       6.097   3.584  12.665  0.00  0.00    +0.000 A 
ATOM     20  C   UNL     1       6.353   2.332  12.062  0.00  0.00    +0.000 A 
ATOM     21  N   UNL     1       5.379   1.946  11.240  0.00  0.00    +0.000 NA
BRANCH  17  23
ATOM     22  C   UNL     1       2.983   4.122   9.760  0.00  0.00    +0.000 C 
ATOM     23  C   UNL     1       3.244   2.865  10.572  0.00  0.00    +0.000 C 
ENDBRANCH  17  23
ENDBRANCH  16  19
ENDBRANCH  14  16
ENDBRANCH  13  14
ENDBRANCH   1  13
TORSDOF 6
ENDMDL
MODEL 2
REMARK VINA RESULT:      -7.1      4.420      6.007
REMARK  Name = 
REMARK  8 active torsions:
REMARK  status: ('A' for Active; 'I' for Inactive)
REMARK    1  A    between atoms: C_1  and  C_2
REMARK    2  A    between atoms: C_2  and  N_3
REMARK    3  A    between atoms: C_5  and  C_6
REMARK    4  A    between atoms: C_6  and  N_7
REMARK    5  A    between atoms: N_7  and  C_8
REMARK    6  A    between atoms: N_7  and  C_9
REMARK    7  A    between atoms: C_9  and  C_10
REMARK    8  A    between atoms: N_13  and  C_14
REMARK                            x       y       z     vdW  Elec       q    Type
REMARK                         _______ _______ _______ _____ _____    ______ ____
ROOT
ATOM      1  C   UNL     1       2.162   6.735  19.796  0.00  0.00    +0.000 A 
ATOM      2  C   UNL     1       2.296   7.765  18.844  0.00  0.00    +0.000 A 
ATOM      3  N   UNL     1       1.761   8.916  19.251  0.00  0.00    +0.000 NA
ATOM      4  N   UNL     1       1.274   8.649  20.491  0.00  0.00    +0.000 N 
ATOM      5  C   UNL     1       1.549   7.354  20.863  0.00  0.00    +0.000 A 
ENDROOT
BRANCH   4   6
ATOM      6  C   UNL     1       0.562   9.632  21.233  0.00  0.00    +0.000 A 
ATOM      7  C   UNL     1       0.597  10.974  20.820  0.00  0.00    +0.000 A 
ATOM      8  C   UNL     1      -0.104  11.946  21.539  0.00  0.00    +0.000 A 
ATOM      9  C   UNL     1      -0.826  11.577  22.667  0.00  0.00    +0.000 A 
ATOM     10  F   UNL     1      -1.490  12.510  23.361  0.00  0.00    +0.000 F 
ATOM     11  C   UNL     1      -0.871  10.254  23.088  0.00  0.00    +0.000 A 
ATOM     12  C   UNL     1      -0.181   9.275  22.370  0.00  0.00    +0.000 A 
ENDBRANCH   4   6
BRANCH   1  13
ATOM     13  C   UNL     1       2.526   5.298  19.654  0.00  0.00    +0.000 C 
BRANCH  13  14
ATOM     14  N   UNL     1       3.009   5.024  18.284  0.00  0.00    +0.000 NA
ATOM     15  C   UNL     1       2.309   3.842  17.768  0.00  0.00    +0.000 C 
BRANCH  14  16
ATOM     16  C   UNL     1       4.475   4.841  18.270  0.00  0.00    +0.000 C 
BRANCH  16  19
ATOM     17  N   UNL     1       5.942   4.603  14.927  0.00  0.00    +0.000 N 
ATOM     18  C   UNL     1       5.526   3.970  16.063  0.00  0.00    +0.000 A 
ATOM     19  C   UNL     1       5.035   4.958  16.896  0.00  0.00    +0.000 A 
ATOM     20  C   UNL     1       5.159   6.140  16.130  0.00  0.00    +0.000 A 
ATOM     21  N   UNL     1       5.712   5.928  14.938  0.00  0.00    +0.000 NA
BRANCH  17  23
ATOM     22  C   UNL     1       5.617   3.672  12.678  0.00  0.00    +0.000 C 
ATOM     23  C   UNL     1       6.602   3.994  13.789  0.00  0.00    +0.000 C 
ENDBRANCH  17  23
ENDBRANCH  16  19
ENDBRANCH  14  16
ENDBRANCH  13  14
ENDBRANCH   1  13
TORSDOF 6
ENDMDL
MODEL 3
REMARK VINA RESULT:      -7.1      4.262      6.291
REMARK  Name = 
REMARK  8 active torsions:
REMARK  status: ('A' for Active; 'I' for Inactive)
REMARK    1  A    between atoms: C_1  and  C_2
REMARK    2  A    between atoms: C_2  and  N_3
REMARK    3  A    between atoms: C_5  and  C_6
REMARK    4  A    between atoms: C_6  and  N_7
REMARK    5  A    between atoms: N_7  and  C_8
REMARK    6  A    between atoms: N_7  and  C_9
REMARK    7  A    between atoms: C_9  and  C_10
REMARK    8  A    between atoms: N_13  and  C_14
REMARK                            x       y       z     vdW  Elec       q    Type
REMARK                         _______ _______ _______ _____ _____    ______ ____
ROOT
ATOM      1  C   UNL     1       3.058   4.961  19.535  0.00  0.00    +0.000 A 
ATOM      2  C   UNL     1       2.225   5.041  20.668  0.00  0.00    +0.000 A 
ATOM      3  N   UNL     1       1.628   6.227  20.787  0.00  0.00    +0.000 NA
ATOM      4  N   UNL     1       2.063   6.940  19.715  0.00  0.00    +0.000 N 
ATOM      5  C   UNL     1       2.887   6.181  18.917  0.00  0.00    +0.000 A 
ENDROOT
BRANCH   4   6
ATOM      6  C   UNL     1       1.687   8.298  19.529  0.00  0.00    +0.000 A 
ATOM      7  C   UNL     1       1.053   8.993  20.572  0.00  0.00    +0.000 A 
ATOM      8  C   UNL     1       0.684  10.330  20.401  0.00  0.00    +0.000 A 
ATOM      9  C   UNL     1       0.943  10.963  19.191  0.00  0.00    +0.000 A 
ATOM     10  F   UNL     1       0.582  12.241  19.023  0.00  0.00    +0.000 F 
ATOM     11  C   UNL     1       1.570  10.290  18.150  0.00  0.00    +0.000 A 
ATOM     12  C   UNL     1       1.949   8.957  18.316  0.00  0.00    +0.000 A 
ENDBRANCH   4   6
BRANCH   1  13
ATOM     13  C   UNL     1       3.969   3.851  19.138  0.00  0.00    +0.000 C 
BRANCH  13  14
ATOM     14  N   UNL     1       3.688   3.430  17.749  0.00  0.00    +0.000 NA
ATOM     15  C   UNL     1       3.054   2.106  17.781  0.00  0.00    +0.000 C 
BRANCH  14  16
ATOM     16  C   UNL     1       4.926   3.424  16.943  0.00  0.00    +0.000 C 
BRANCH  16  19
ATOM     17  N   UNL     1       6.993   6.384  17.540  0.00  0.00    +0.000 N 
ATOM     18  C   UNL     1       6.728   5.073  17.819  0.00  0.00    +0.000 A 
ATOM     19  C   UNL     1       5.649   4.723  17.029  0.00  0.00    +0.000 A 
ATOM     20  C   UNL     1       5.384   5.890  16.277  0.00  0.00    +0.000 A 
ATOM     21  N   UNL     1       6.195   6.900  16.589  0.00  0.00    +0.000 NA
BRANCH  17  23
ATOM     22  C   UNL     1       7.898   8.660  17.705  0.00  0.00    +0.000 C 
ATOM     23  C   UNL     1       7.991   7.220  18.177  0.00  0.00    +0.000 C 
ENDBRANCH  17  23
ENDBRANCH  16  19
ENDBRANCH  14  16
ENDBRANCH  13  14
ENDBRANCH   1  13
TORSDOF 6
ENDMDL
MODEL 4
REMARK VINA RESULT:      -7.1      4.218      5.909
REMARK  Name = 
REMARK  8 active torsions:
REMARK  status: ('A' for Active; 'I' for Inactive)
REMARK    1  A    between atoms: C_1  and  C_2
REMARK    2  A    between atoms: C_2  and  N_3
REMARK    3  A    between atoms: C_5  and  C_6
REMARK    4  A    between atoms: C_6  and  N_7
REMARK    5  A    between atoms: N_7  and  C_8
REMARK    6  A    between atoms: N_7  and  C_9
REMARK    7  A    between atoms: C_9  and  C_10
REMARK    8  A    between atoms: N_13  and  C_14
REMARK                            x       y       z     vdW  Elec       q    Type
REMARK                         _______ _______ _______ _____ _____    ______ ____
ROOT
ATOM      1  C   UNL     1       2.669   6.807  19.272  0.00  0.00    +0.000 A 
ATOM      2  C   UNL     1       2.603   7.714  18.196  0.00  0.00    +0.000 A 
ATOM      3  N   UNL     1       1.877   8.796  18.476  0.00  0.00    +0.000 NA
ATOM      4  N   UNL     1       1.463   8.609  19.757  0.00  0.00    +0.000 N 
ATOM      5  C   UNL     1       1.971   7.441  20.277  0.00  0.00    +0.000 A 
ENDROOT
BRANCH   4   6
ATOM      6  C   UNL     1       0.599   9.539  20.398  0.00  0.00    +0.000 A 
ATOM      7  C   UNL     1       0.543   9.584  21.801  0.00  0.00    +0.000 A 
ATOM      8  C   UNL     1      -0.299  10.498  22.439  0.00  0.00    +0.000 A 
ATOM      9  C   UNL     1      -1.084  11.355  21.678  0.00  0.00    +0.000 A 
ATOM     10  F   UNL     1      -1.898  12.225  22.289  0.00  0.00    +0.000 F 
ATOM     11  C   UNL     1      -1.040  11.324  20.289  0.00  0.00    +0.000 A 
ATOM     12  C   UNL     1      -0.195  10.420  19.644  0.00  0.00    +0.000 A 
ENDBRANCH   4   6
BRANCH   1  13
ATOM     13  C   UNL     1       3.282   5.450  19.297  0.00  0.00    +0.000 C 
BRANCH  13  14
ATOM     14  N   UNL     1       3.164   4.811  17.969  0.00  0.00    +0.000 NA
ATOM     15  C   UNL     1       1.797   4.296  17.817  0.00  0.00    +0.000 C 
BRANCH  14  16
ATOM     16  C   UNL     1       4.171   3.742  17.810  0.00  0.00    +0.000 C 
BRANCH  16  19
ATOM     17  N   UNL     1       6.581   4.596  15.193  0.00  0.00    +0.000 N 
ATOM     18  C   UNL     1       5.337   4.143  15.526  0.00  0.00    +0.000 A 
ATOM     19  C   UNL     1       5.280   4.156  16.908  0.00  0.00    +0.000 A 
ATOM     20  C   UNL     1       6.532   4.687  17.294  0.00  0.00    +0.000 A 
ATOM     21  N   UNL     1       7.324   4.951  16.257  0.00  0.00    +0.000 NA
BRANCH  17  23
ATOM     22  C   UNL     1       6.374   3.829  12.870  0.00  0.00    +0.000 C 
ATOM     23  C   UNL     1       7.140   4.689  13.859  0.00  0.00    +0.000 C 
ENDBRANCH  17  23
ENDBRANCH  16  19
ENDBRANCH  14  16
ENDBRANCH  13  14
ENDBRANCH   1  13
TORSDOF 6
ENDMDL
MODEL 5
REMARK VINA RESULT:      -7.1      4.032      6.635
REMARK  Name = 
REMARK  8 active torsions:
REMARK  status: ('A' for Active; 'I' for Inactive)
REMARK    1  A    between atoms: C_1  and  C_2
REMARK    2  A    between atoms: C_2  and  N_3
REMARK    3  A    between atoms: C_5  and  C_6
REMARK    4  A    between atoms: C_6  and  N_7
REMARK    5  A    between atoms: N_7  and  C_8
REMARK    6  A    between atoms: N_7  and  C_9
REMARK    7  A    between atoms: C_9  and  C_10
REMARK    8  A    between atoms: N_13  and  C_14
REMARK                            x       y       z     vdW  Elec       q    Type
REMARK                         _______ _______ _______ _____ _____    ______ ____
ROOT
ATOM      1  C   UNL     1       3.532   4.926  18.325  0.00  0.00    +0.000 A 
ATOM      2  C   UNL     1       3.109   4.862  19.667  0.00  0.00    +0.000 A 
ATOM      3  N   UNL     1       2.505   5.980  20.071  0.00  0.00    +0.000 NA
ATOM      4  N   UNL     1       2.520   6.792  18.982  0.00  0.00    +0.000 N 
ATOM      5  C   UNL     1       3.088   6.160  17.901  0.00  0.00    +0.000 A 
ENDROOT
BRANCH   4   6
ATOM      6  C   UNL     1       2.014   8.120  19.043  0.00  0.00    +0.000 A 
ATOM      7  C   UNL     1       2.147   8.965  17.928  0.00  0.00    +0.000 A 
ATOM      8  C   UNL     1       1.647  10.269  17.976  0.00  0.00    +0.000 A 
ATOM      9  C   UNL     1       1.027  10.725  19.133  0.00  0.00    +0.000 A 
ATOM     10  F   UNL     1       0.557  11.977  19.183  0.00  0.00    +0.000 F 
ATOM     11  C   UNL     1       0.888   9.900  20.243  0.00  0.00    +0.000 A 
ATOM     12  C   UNL     1       1.376   8.593  20.201  0.00  0.00    +0.000 A 
ENDBRANCH   4   6
BRANCH   1  13
ATOM     13  C   UNL     1       4.337   3.929  17.565  0.00  0.00    +0.000 C 
BRANCH  13  14
ATOM     14  N   UNL     1       5.505   4.584  16.939  0.00  0.00    +0.000 NA
ATOM     15  C   UNL     1       5.942   3.771  15.798  0.00  0.00    +0.000 C 
BRANCH  14  16
ATOM     16  C   UNL     1       6.590   4.774  17.923  0.00  0.00    +0.000 C 
BRANCH  16  19
ATOM     17  N   UNL     1       8.147   8.059  18.333  0.00  0.00    +0.000 N 
ATOM     18  C   UNL     1       8.054   6.757  18.734  0.00  0.00    +0.000 A 
ATOM     19  C   UNL     1       7.107   6.170  17.916  0.00  0.00    +0.000 A 
ATOM     20  C   UNL     1       6.738   7.205  17.026  0.00  0.00    +0.000 A 
ATOM     21  N   UNL     1       7.364   8.352  17.280  0.00  0.00    +0.000 NA
BRANCH  17  23
ATOM     22  C   UNL     1       8.894  10.391  18.150  0.00  0.00    +0.000 C 
ATOM     23  C   UNL     1       8.957   9.096  18.941  0.00  0.00    +0.000 C 
ENDBRANCH  17  23
ENDBRANCH  16  19
ENDBRANCH  14  16
ENDBRANCH  13  14
ENDBRANCH   1  13
TORSDOF 6
ENDMDL
MODEL 6
REMARK VINA RESULT:      -7.1      3.844      5.474
REMARK  Name = 
REMARK  8 active torsions:
REMARK  status: ('A' for Active; 'I' for Inactive)
REMARK    1  A    between atoms: C_1  and  C_2
REMARK    2  A    between atoms: C_2  and  N_3
REMARK    3  A    between atoms: C_5  and  C_6
REMARK    4  A    between atoms: C_6  and  N_7
REMARK    5  A    between atoms: N_7  and  C_8
REMARK    6  A    between atoms: N_7  and  C_9
REMARK    7  A    between atoms: C_9  and  C_10
REMARK    8  A    between atoms: N_13  and  C_14
REMARK                            x       y       z     vdW  Elec       q    Type
REMARK                         _______ _______ _______ _____ _____    ______ ____
ROOT
ATOM      1  C   UNL     1       2.554   5.796  19.529  0.00  0.00    +0.000 A 
ATOM      2  C   UNL     1       2.606   6.726  18.471  0.00  0.00    +0.000 A 
ATOM      3  N   UNL     1       2.089   7.910  18.799  0.00  0.00    +0.000 NA
ATOM      4  N   UNL     1       1.698   7.768  20.092  0.00  0.00    +0.000 N 
ATOM      5  C   UNL     1       2.014   6.518  20.571  0.00  0.00    +0.000 A 
ENDROOT
BRANCH   4   6
ATOM      6  C   UNL     1       1.032   8.818  20.782  0.00  0.00    +0.000 A 
ATOM      7  C   UNL     1       0.886   8.749  22.178  0.00  0.00    +0.000 A 
ATOM      8  C   UNL     1       0.238   9.779  22.866  0.00  0.00    +0.000 A 
ATOM      9  C   UNL     1      -0.265  10.865  22.160  0.00  0.00    +0.000 A 
ATOM     10  F   UNL     1      -0.893  11.847  22.818  0.00  0.00    +0.000 F 
ATOM     11  C   UNL     1      -0.127  10.948  20.780  0.00  0.00    +0.000 A 
ATOM     12  C   UNL     1       0.526   9.928  20.086  0.00  0.00    +0.000 A 
ENDBRANCH   4   6
BRANCH   1  13
ATOM     13  C   UNL     1       2.923   4.354  19.506  0.00  0.00    +0.000 C 
BRANCH  13  14
ATOM     14  N   UNL     1       3.406   3.970  18.162  0.00  0.00    +0.000 NA
ATOM     15  C   UNL     1       2.886   2.635  17.841  0.00  0.00    +0.000 C 
BRANCH  14  16
ATOM     16  C   UNL     1       4.881   4.010  18.104  0.00  0.00    +0.000 C 
BRANCH  16  19
ATOM     17  N   UNL     1       6.167   4.530  14.718  0.00  0.00    +0.000 N 
ATOM     18  C   UNL     1       5.798   3.657  15.701  0.00  0.00    +0.000 A 
ATOM     19  C   UNL     1       5.371   4.434  16.763  0.00  0.00    +0.000 A 
ATOM     20  C   UNL     1       5.480   5.758  16.281  0.00  0.00    +0.000 A 
ATOM     21  N   UNL     1       5.965   5.819  15.043  0.00  0.00    +0.000 NA
BRANCH  17  23
ATOM     22  C   UNL     1       5.740   3.540  12.512  0.00  0.00    +0.000 C 
ATOM     23  C   UNL     1       6.753   4.191  13.436  0.00  0.00    +0.000 C 
ENDBRANCH  17  23
ENDBRANCH  16  19
ENDBRANCH  14  16
ENDBRANCH  13  14
ENDBRANCH   1  13
TORSDOF 6
ENDMDL
MODEL 7
REMARK VINA RESULT:      -7.0      4.087      6.555
REMARK  Name = 
REMARK  8 active torsions:
REMARK  status: ('A' for Active; 'I' for Inactive)
REMARK    1  A    between atoms: C_1  and  C_2
REMARK    2  A    between atoms: C_2  and  N_3
REMARK    3  A    between atoms: C_5  and  C_6
REMARK    4  A    between atoms: C_6  and  N_7
REMARK    5  A    between atoms: N_7  and  C_8
REMARK    6  A    between atoms: N_7  and  C_9
REMARK    7  A    between atoms: C_9  and  C_10
REMARK    8  A    between atoms: N_13  and  C_14
REMARK                            x       y       z     vdW  Elec       q    Type
REMARK                         _______ _______ _______ _____ _____    ______ ____
ROOT
ATOM      1  C   UNL     1       2.192   5.627  20.102  0.00  0.00    +0.000 A 
ATOM      2  C   UNL     1       2.640   6.554  19.140  0.00  0.00    +0.000 A 
ATOM      3  N   UNL     1       2.193   7.790  19.367  0.00  0.00    +0.000 NA
ATOM      4  N   UNL     1       1.448   7.683  20.498  0.00  0.00    +0.000 N 
ATOM      5  C   UNL     1       1.473   6.399  20.990  0.00  0.00    +0.000 A 
ENDROOT
BRANCH   4   6
ATOM      6  C   UNL     1       0.744   8.800  21.028  0.00  0.00    +0.000 A 
ATOM      7  C   UNL     1       0.460   8.853  22.403  0.00  0.00    +0.000 A 
ATOM      8  C   UNL     1      -0.226   9.949  22.933  0.00  0.00    +0.000 A 
ATOM      9  C   UNL     1      -0.629  10.979  22.092  0.00  0.00    +0.000 A 
ATOM     10  F   UNL     1      -1.294  12.025  22.599  0.00  0.00    +0.000 F 
ATOM     11  C   UNL     1      -0.354  10.942  20.731  0.00  0.00    +0.000 A 
ATOM     12  C   UNL     1       0.338   9.855  20.194  0.00  0.00    +0.000 A 
ENDBRANCH   4   6
BRANCH   1  13
ATOM     13  C   UNL     1       2.383   4.150  20.116  0.00  0.00    +0.000 C 
BRANCH  13  14
ATOM     14  N   UNL     1       2.306   3.611  18.742  0.00  0.00    +0.000 NA
ATOM     15  C   UNL     1       1.130   2.737  18.647  0.00  0.00    +0.000 C 
BRANCH  14  16
ATOM     16  C   UNL     1       3.548   2.894  18.389  0.00  0.00    +0.000 C 
BRANCH  16  19
ATOM     17  N   UNL     1       6.218   5.171  17.350  0.00  0.00    +0.000 N 
ATOM     18  C   UNL     1       5.634   4.439  18.344  0.00  0.00    +0.000 A 
ATOM     19  C   UNL     1       4.552   3.800  17.766  0.00  0.00    +0.000 A 
ATOM     20  C   UNL     1       4.618   4.183  16.407  0.00  0.00    +0.000 A 
ATOM     21  N   UNL     1       5.624   5.018  16.153  0.00  0.00    +0.000 NA
BRANCH  17  23
ATOM     22  C   UNL     1       7.859   6.112  18.915  0.00  0.00    +0.000 C 
ATOM     23  C   UNL     1       7.345   6.072  17.487  0.00  0.00    +0.000 C 
ENDBRANCH  17  23
ENDBRANCH  16  19
ENDBRANCH  14  16
ENDBRANCH  13  14
ENDBRANCH   1  13
TORSDOF 6
ENDMDL
MODEL 8
REMARK VINA RESULT:      -7.0      4.640      6.608
REMARK  Name = 
REMARK  8 active torsions:
REMARK  status: ('A' for Active; 'I' for Inactive)
REMARK    1  A    between atoms: C_1  and  C_2
REMARK    2  A    between atoms: C_2  and  N_3
REMARK    3  A    between atoms: C_5  and  C_6
REMARK    4  A    between atoms: C_6  and  N_7
REMARK    5  A    between atoms: N_7  and  C_8
REMARK    6  A    between atoms: N_7  and  C_9
REMARK    7  A    between atoms: C_9  and  C_10
REMARK    8  A    between atoms: N_13  and  C_14
REMARK                            x       y       z     vdW  Elec       q    Type
REMARK                         _______ _______ _______ _____ _____    ______ ____
ROOT
ATOM      1  C   UNL     1       2.865   7.337  18.150  0.00  0.00    +0.000 A 
ATOM      2  C   UNL     1       2.574   8.563  17.519  0.00  0.00    +0.000 A 
ATOM      3  N   UNL     1       1.863   9.384  18.293  0.00  0.00    +0.000 NA
ATOM      4  N   UNL     1       1.688   8.699  19.453  0.00  0.00    +0.000 N 
ATOM      5  C   UNL     1       2.328   7.482  19.411  0.00  0.00    +0.000 A 
ENDROOT
BRANCH   4   6
ATOM      6  C   UNL     1       0.911   9.233  20.517  0.00  0.00    +0.000 A 
ATOM      7  C   UNL     1      -0.071  10.200  20.243  0.00  0.00    +0.000 A 
ATOM      8  C   UNL     1      -0.844  10.726  21.281  0.00  0.00    +0.000 A 
ATOM      9  C   UNL     1      -0.629  10.293  22.584  0.00  0.00    +0.000 A 
ATOM     10  F   UNL     1      -1.363  10.805  23.580  0.00  0.00    +0.000 F 
ATOM     11  C   UNL     1       0.338   9.338  22.871  0.00  0.00    +0.000 A 
ATOM     12  C   UNL     1       1.108   8.800  21.839  0.00  0.00    +0.000 A 
ENDBRANCH   4   6
BRANCH   1  13
ATOM     13  C   UNL     1       3.530   6.138  17.568  0.00  0.00    +0.000 C 
BRANCH  13  14
ATOM     14  N   UNL     1       4.886   5.979  18.134  0.00  0.00    +0.000 NA
ATOM     15  C   UNL     1       5.835   6.712  17.288  0.00  0.00    +0.000 C 
BRANCH  14  16
ATOM     16  C   UNL     1       5.244   4.550  18.244  0.00  0.00    +0.000 C 
BRANCH  16  19
ATOM     17  N   UNL     1       2.296   2.834  19.569  0.00  0.00    +0.000 N 
ATOM     18  C   UNL     1       3.158   3.891  19.640  0.00  0.00    +0.000 A 
ATOM     19  C   UNL     1       4.071   3.713  18.617  0.00  0.00    +0.000 A 
ATOM     20  C   UNL     1       3.625   2.541  17.964  0.00  0.00    +0.000 A 
ATOM     21  N   UNL     1       2.552   2.004  18.542  0.00  0.00    +0.000 NA
BRANCH  17  23
ATOM     22  C   UNL     1       1.676   2.542  21.926  0.00  0.00    +0.000 C 
ATOM     23  C   UNL     1       1.209   2.540  20.481  0.00  0.00    +0.000 C 
ENDBRANCH  17  23
ENDBRANCH  16  19
ENDBRANCH  14  16
ENDBRANCH  13  14
ENDBRANCH   1  13
TORSDOF 6
ENDMDL
MODEL 9
REMARK VINA RESULT:      -7.0      4.296      6.414
REMARK  Name = 
REMARK  8 active torsions:
REMARK  status: ('A' for Active; 'I' for Inactive)
REMARK    1  A    between atoms: C_1  and  C_2
REMARK    2  A    between atoms: C_2  and  N_3
REMARK    3  A    between atoms: C_5  and  C_6
REMARK    4  A    between atoms: C_6  and  N_7
REMARK    5  A    between atoms: N_7  and  C_8
REMARK    6  A    between atoms: N_7  and  C_9
REMARK    7  A    between atoms: C_9  and  C_10
REMARK    8  A    between atoms: N_13  and  C_14
REMARK                            x       y       z     vdW  Elec       q    Type
REMARK                         _______ _______ _______ _____ _____    ______ ____
ROOT
ATOM      1  C   UNL     1       2.852   5.201  19.481  0.00  0.00    +0.000 A 
ATOM      2  C   UNL     1       2.018   5.262  20.615  0.00  0.00    +0.000 A 
ATOM      3  N   UNL     1       1.456   6.460  20.778  0.00  0.00    +0.000 NA
ATOM      4  N   UNL     1       1.915   7.200  19.735  0.00  0.00    +0.000 N 
ATOM      5  C   UNL     1       2.719   6.448  18.909  0.00  0.00    +0.000 A 
ENDROOT
BRANCH   4   6
ATOM      6  C   UNL     1       1.579   8.575  19.599  0.00  0.00    +0.000 A 
ATOM      7  C   UNL     1       1.898   9.255  18.412  0.00  0.00    +0.000 A 
ATOM      8  C   UNL     1       1.567  10.604  18.267  0.00  0.00    +0.000 A 
ATOM      9  C   UNL     1       0.927  11.269  19.306  0.00  0.00    +0.000 A 
ATOM     10  F   UNL     1       0.618  12.565  19.172  0.00  0.00    +0.000 F 
ATOM     11  C   UNL     1       0.604  10.611  20.487  0.00  0.00    +0.000 A 
ATOM     12  C   UNL     1       0.924   9.260  20.636  0.00  0.00    +0.000 A 
ENDBRANCH   4   6
BRANCH   1  13
ATOM     13  C   UNL     1       3.732   4.081  19.045  0.00  0.00    +0.000 C 
BRANCH  13  14
ATOM     14  N   UNL     1       3.415   3.694  17.653  0.00  0.00    +0.000 NA
ATOM     15  C   UNL     1       2.700   2.412  17.675  0.00  0.00    +0.000 C 
BRANCH  14  16
ATOM     16  C   UNL     1       4.644   3.620  16.837  0.00  0.00    +0.000 C 
BRANCH  16  19
ATOM     17  N   UNL     1       6.920   6.407  17.505  0.00  0.00    +0.000 N 
ATOM     18  C   UNL     1       6.555   5.115  17.758  0.00  0.00    +0.000 A 
ATOM     19  C   UNL     1       5.461   4.860  16.952  0.00  0.00    +0.000 A 
ATOM     20  C   UNL     1       5.292   6.056  16.219  0.00  0.00    +0.000 A 
ATOM     21  N   UNL     1       6.173   6.997  16.555  0.00  0.00    +0.000 NA
BRANCH  17  23
ATOM     22  C   UNL     1       7.948   8.621  17.769  0.00  0.00    +0.000 C 
ATOM     23  C   UNL     1       7.970   7.155  18.166  0.00  0.00    +0.000 C 
ENDBRANCH  17  23
ENDBRANCH  16  19
ENDBRANCH  14  16
ENDBRANCH  13  14
ENDBRANCH   1  13
TORSDOF 6
ENDMDL
