MODEL 1
REMARK VINA RESULT:      -6.6      0.000      0.000
REMARK  Name = 
REMARK  3 active torsions:
REMARK  status: ('A' for Active; 'I' for Inactive)
REMARK    1  A    between atoms: C_2  and  C_3
REMARK    2  A    between atoms: C_3  and  C_10
REMARK    3  A    between atoms: C_4  and  C_5
REMARK                            x       y       z     vdW  Elec       q    Type
REMARK                         _______ _______ _______ _____ _____    ______ ____
ROOT
ATOM      1  C   UNL     1       4.225   5.348  18.936  0.00  0.00    +0.000 C 
ATOM      2  C   UNL     1       4.085   4.050  19.286  0.00  0.00    +0.000 C 
ENDROOT
BRANCH   1   3
ATOM      3  C   UNL     1       5.388   5.844  18.222  0.00  0.00    +0.000 C 
ATOM      4  C   UNL     1       5.799   5.447  17.008  0.00  0.00    +0.000 C 
ATOM      5  S   UNL     1       5.053   4.303  15.950  0.00  0.00    +0.000 S 
ATOM      6  C   UNL     1       6.268   4.527  14.710  0.00  0.00    +0.000 C 
ATOM      7  S   UNL     1       6.329   3.770  13.240  0.00  0.00    +0.000 S 
ATOM      8  N   UNL     1       7.191   5.433  15.133  0.00  0.00    +0.000 N 
ATOM      9  C   UNL     1       7.026   5.989  16.371  0.00  0.00    +0.000 C 
ATOM     10  O   UNL     1       7.784   6.798  16.881  0.00  0.00    +0.000 OA
ATOM     11  H   UNL     1       7.983   5.688  14.563  0.00  0.00    +0.000 HD
ENDBRANCH   1   3
BRANCH   2  12
ATOM     12  C   UNL     1       2.915   3.544  19.935  0.00  0.00    +0.000 A 
ATOM     13  C   UNL     1       2.721   3.202  21.268  0.00  0.00    +0.000 A 
ATOM     14  C   UNL     1       1.381   2.762  21.418  0.00  0.00    +0.000 A 
ATOM     15  C   UNL     1       0.822   2.834  20.171  0.00  0.00    +0.000 A 
ATOM     16  O   UNL     1       1.733   3.278  19.278  0.00  0.00    +0.000 OA
ENDBRANCH   2  12
BRANCH   1  18
ATOM     17  N   UNL     1       2.259   7.171  19.676  0.00  0.00    +0.000 NA
ATOM     18  C   UNL     1       3.151   6.344  19.340  0.00  0.00    +0.000 C 
ENDBRANCH   1  18
TORSDOF 3
ENDMDL
MODEL 2
REMARK VINA RESULT:      -6.5      1.771      1.939
REMARK  Name = 
REMARK  3 active torsions:
REMARK  status: ('A' for Active; 'I' for Inactive)
REMARK    1  A    between atoms: C_2  and  C_3
REMARK    2  A    between atoms: C_3  and  C_10
REMARK    3  A    between atoms: C_4  and  C_5
REMARK                            x       y       z     vdW  Elec       q    Type
REMARK                         _______ _______ _______ _____ _____    ______ ____
ROOT
ATOM      1  C   UNL     1       4.397   4.439  18.326  0.00  0.00    +0.000 C 
ATOM      2  C   UNL     1       3.096   4.655  18.029  0.00  0.00    +0.000 C 
ENDROOT
BRANCH   1   3
ATOM      3  C   UNL     1       5.473   5.208  17.726  0.00  0.00    +0.000 C 
ATOM      4  C   UNL     1       5.979   5.033  16.495  0.00  0.00    +0.000 C 
ATOM      5  S   UNL     1       5.473   3.912  15.282  0.00  0.00    +0.000 S 
ATOM      6  C   UNL     1       6.661   4.486  14.134  0.00  0.00    +0.000 C 
ATOM      7  S   UNL     1       6.894   3.930  12.592  0.00  0.00    +0.000 S 
ATOM      8  N   UNL     1       7.401   5.480  14.698  0.00  0.00    +0.000 N 
ATOM      9  C   UNL     1       7.108   5.850  15.981  0.00  0.00    +0.000 C 
ATOM     10  O   UNL     1       7.699   6.709  16.613  0.00  0.00    +0.000 OA
ATOM     11  H   UNL     1       8.150   5.932  14.198  0.00  0.00    +0.000 HD
ENDBRANCH   1   3
BRANCH   2  12
ATOM     12  C   UNL     1       2.028   3.944  18.661  0.00  0.00    +0.000 A 
ATOM     13  C   UNL     1       1.423   4.168  19.893  0.00  0.00    +0.000 A 
ATOM     14  C   UNL     1       0.402   3.197  20.063  0.00  0.00    +0.000 A 
ATOM     15  C   UNL     1       0.442   2.412  18.943  0.00  0.00    +0.000 A 
ATOM     16  O   UNL     1       1.420   2.835  18.113  0.00  0.00    +0.000 OA
ENDBRANCH   2  12
BRANCH   1  18
ATOM     17  N   UNL     1       5.064   2.393  20.088  0.00  0.00    +0.000 NA
ATOM     18  C   UNL     1       4.761   3.321  19.289  0.00  0.00    +0.000 C 
ENDBRANCH   1  18
TORSDOF 3
ENDMDL
MODEL 3
REMARK VINA RESULT:      -6.4      2.659      6.471
REMARK  Name = 
REMARK  3 active torsions:
REMARK  status: ('A' for Active; 'I' for Inactive)
REMARK    1  A    between atoms: C_2  and  C_3
REMARK    2  A    between atoms: C_3  and  C_10
REMARK    3  A    between atoms: C_4  and  C_5
REMARK                            x       y       z     vdW  Elec       q    Type
REMARK                         _______ _______ _______ _____ _____    ______ ____
ROOT
ATOM      1  C   UNL     1       5.084   5.747  17.214  0.00  0.00    +0.000 C 
ATOM      2  C   UNL     1       4.863   5.830  15.883  0.00  0.00    +0.000 C 
ENDROOT
BRANCH   1   3
ATOM      3  C   UNL     1       4.174   6.313  18.193  0.00  0.00    +0.000 C 
ATOM      4  C   UNL     1       3.459   5.626  19.098  0.00  0.00    +0.000 C 
ATOM      5  S   UNL     1       3.458   3.922  19.387  0.00  0.00    +0.000 S 
ATOM      6  C   UNL     1       2.305   4.058  20.697  0.00  0.00    +0.000 C 
ATOM      7  S   UNL     1       1.703   2.820  21.614  0.00  0.00    +0.000 S 
ATOM      8  N   UNL     1       1.952   5.362  20.863  0.00  0.00    +0.000 N 
ATOM      9  C   UNL     1       2.524   6.293  20.039  0.00  0.00    +0.000 C 
ATOM     10  O   UNL     1       2.286   7.489  20.065  0.00  0.00    +0.000 OA
ATOM     11  H   UNL     1       1.284   5.646  21.562  0.00  0.00    +0.000 HD
ENDBRANCH   1   3
BRANCH   2  12
ATOM     12  C   UNL     1       5.724   5.222  14.916  0.00  0.00    +0.000 A 
ATOM     13  C   UNL     1       5.507   4.105  14.117  0.00  0.00    +0.000 A 
ATOM     14  C   UNL     1       6.660   3.911  13.312  0.00  0.00    +0.000 A 
ATOM     15  C   UNL     1       7.535   4.901  13.667  0.00  0.00    +0.000 A 
ATOM     16  O   UNL     1       6.996   5.673  14.636  0.00  0.00    +0.000 OA
ENDBRANCH   2  12
BRANCH   1  18
ATOM     17  N   UNL     1       7.407   4.523  18.130  0.00  0.00    +0.000 NA
ATOM     18  C   UNL     1       6.354   5.078  17.714  0.00  0.00    +0.000 C 
ENDBRANCH   1  18
TORSDOF 3
ENDMDL
MODEL 4
REMARK VINA RESULT:      -6.2      2.645      3.120
REMARK  Name = 
REMARK  3 active torsions:
REMARK  status: ('A' for Active; 'I' for Inactive)
REMARK    1  A    between atoms: C_2  and  C_3
REMARK    2  A    between atoms: C_3  and  C_10
REMARK    3  A    between atoms: C_4  and  C_5
REMARK                            x       y       z     vdW  Elec       q    Type
REMARK                         _______ _______ _______ _____ _____    ______ ____
ROOT
ATOM      1  C   UNL     1       4.297   3.615  17.896  0.00  0.00    +0.000 C 
ATOM      2  C   UNL     1       3.003   3.944  17.684  0.00  0.00    +0.000 C 
ENDROOT
BRANCH   1   3
ATOM      3  C   UNL     1       5.353   3.958  16.961  0.00  0.00    +0.000 C 
ATOM      4  C   UNL     1       6.114   5.063  16.997  0.00  0.00    +0.000 C 
ATOM      5  S   UNL     1       6.093   6.335  18.166  0.00  0.00    +0.000 S 
ATOM      6  C   UNL     1       7.395   7.198  17.377  0.00  0.00    +0.000 C 
ATOM      7  S   UNL     1       8.070   8.628  17.865  0.00  0.00    +0.000 S 
ATOM      8  N   UNL     1       7.788   6.517  16.266  0.00  0.00    +0.000 N 
ATOM      9  C   UNL     1       7.150   5.344  15.971  0.00  0.00    +0.000 C 
ATOM     10  O   UNL     1       7.388   4.644  15.001  0.00  0.00    +0.000 OA
ATOM     11  H   UNL     1       8.520   6.862  15.665  0.00  0.00    +0.000 HD
ENDBRANCH   1   3
BRANCH   2  12
ATOM     12  C   UNL     1       1.968   3.663  18.630  0.00  0.00    +0.000 A 
ATOM     13  C   UNL     1       1.058   2.611  18.661  0.00  0.00    +0.000 A 
ATOM     14  C   UNL     1       0.241   2.771  19.810  0.00  0.00    +0.000 A 
ATOM     15  C   UNL     1       0.671   3.919  20.417  0.00  0.00    +0.000 A 
ATOM     16  O   UNL     1       1.683   4.469  19.711  0.00  0.00    +0.000 OA
ENDBRANCH   2  12
BRANCH   1  18
ATOM     17  N   UNL     1       4.971   2.155  20.165  0.00  0.00    +0.000 NA
ATOM     18  C   UNL     1       4.665   2.817  19.136  0.00  0.00    +0.000 C 
ENDBRANCH   1  18
TORSDOF 3
ENDMDL
MODEL 5
REMARK VINA RESULT:      -6.0      2.466      6.767
REMARK  Name = 
REMARK  3 active torsions:
REMARK  status: ('A' for Active; 'I' for Inactive)
REMARK    1  A    between atoms: C_2  and  C_3
REMARK    2  A    between atoms: C_3  and  C_10
REMARK    3  A    between atoms: C_4  and  C_5
REMARK                            x       y       z     vdW  Elec       q    Type
REMARK                         _______ _______ _______ _____ _____    ______ ____
ROOT
ATOM      1  C   UNL     1       5.411   4.034  16.348  0.00  0.00    +0.000 C 
ATOM      2  C   UNL     1       5.072   4.141  15.044  0.00  0.00    +0.000 C 
ENDROOT
BRANCH   1   3
ATOM      3  C   UNL     1       4.432   3.788  17.392  0.00  0.00    +0.000 C 
ATOM      4  C   UNL     1       3.729   4.722  18.052  0.00  0.00    +0.000 C 
ATOM      5  S   UNL     1       3.744   6.433  17.818  0.00  0.00    +0.000 S 
ATOM      6  C   UNL     1       2.538   6.700  19.058  0.00  0.00    +0.000 C 
ATOM      7  S   UNL     1       1.909   8.157  19.526  0.00  0.00    +0.000 S 
ATOM      8  N   UNL     1       2.179   5.509  19.610  0.00  0.00    +0.000 N 
ATOM      9  C   UNL     1       2.772   4.373  19.133  0.00  0.00    +0.000 C 
ATOM     10  O   UNL     1       2.558   3.246  19.547  0.00  0.00    +0.000 OA
ATOM     11  H   UNL     1       1.503   5.453  20.356  0.00  0.00    +0.000 HD
ENDBRANCH   1   3
BRANCH   2  12
ATOM     12  C   UNL     1       6.038   4.322  14.005  0.00  0.00    +0.000 A 
ATOM     13  C   UNL     1       6.223   3.596  12.833  0.00  0.00    +0.000 A 
ATOM     14  C   UNL     1       7.306   4.177  12.123  0.00  0.00    +0.000 A 
ATOM     15  C   UNL     1       7.747   5.214  12.899  0.00  0.00    +0.000 A 
ATOM     16  O   UNL     1       7.013   5.295  14.030  0.00  0.00    +0.000 OA
ENDBRANCH   2  12
BRANCH   1  18
ATOM     17  N   UNL     1       8.069   4.375  17.090  0.00  0.00    +0.000 NA
ATOM     18  C   UNL     1       6.864   4.220  16.753  0.00  0.00    +0.000 C 
ENDBRANCH   1  18
TORSDOF 3
ENDMDL
MODEL 6
REMARK VINA RESULT:      -5.9      4.129      6.076
REMARK  Name = 
REMARK  3 active torsions:
REMARK  status: ('A' for Active; 'I' for Inactive)
REMARK    1  A    between atoms: C_2  and  C_3
REMARK    2  A    between atoms: C_3  and  C_10
REMARK    3  A    between atoms: C_4  and  C_5
REMARK                            x       y       z     vdW  Elec       q    Type
REMARK                         _______ _______ _______ _____ _____    ______ ____
ROOT
ATOM      1  C   UNL     1       2.940   6.371  18.185  0.00  0.00    +0.000 C 
ATOM      2  C   UNL     1       2.172   5.269  18.332  0.00  0.00    +0.000 C 
ENDROOT
BRANCH   1   3
ATOM      3  C   UNL     1       2.385   7.713  18.168  0.00  0.00    +0.000 C 
ATOM      4  C   UNL     1       1.765   8.325  19.189  0.00  0.00    +0.000 C 
ATOM      5  S   UNL     1       1.505   7.731  20.791  0.00  0.00    +0.000 S 
ATOM      6  C   UNL     1       0.708   9.204  21.300  0.00  0.00    +0.000 C 
ATOM      7  S   UNL     1       0.094   9.525  22.802  0.00  0.00    +0.000 S 
ATOM      8  N   UNL     1       0.652  10.078  20.258  0.00  0.00    +0.000 N 
ATOM      9  C   UNL     1       1.198   9.692  19.065  0.00  0.00    +0.000 C 
ATOM     10  O   UNL     1       1.202  10.365  18.048  0.00  0.00    +0.000 OA
ATOM     11  H   UNL     1       0.215  10.982  20.348  0.00  0.00    +0.000 HD
ENDBRANCH   1   3
BRANCH   2  12
ATOM     12  C   UNL     1       2.717   3.949  18.410  0.00  0.00    +0.000 A 
ATOM     13  C   UNL     1       2.718   2.934  17.460  0.00  0.00    +0.000 A 
ATOM     14  C   UNL     1       3.397   1.816  18.012  0.00  0.00    +0.000 A 
ATOM     15  C   UNL     1       3.762   2.189  19.277  0.00  0.00    +0.000 A 
ATOM     16  O   UNL     1       3.344   3.448  19.531  0.00  0.00    +0.000 OA
ENDBRANCH   2  12
BRANCH   1  18
ATOM     17  N   UNL     1       5.680   6.075  17.817  0.00  0.00    +0.000 NA
ATOM     18  C   UNL     1       4.438   6.210  17.984  0.00  0.00    +0.000 C 
ENDBRANCH   1  18
TORSDOF 3
ENDMDL
MODEL 7
REMARK VINA RESULT:      -5.8      3.895      6.505
REMARK  Name = 
REMARK  3 active torsions:
REMARK  status: ('A' for Active; 'I' for Inactive)
REMARK    1  A    between atoms: C_2  and  C_3
REMARK    2  A    between atoms: C_3  and  C_10
REMARK    3  A    between atoms: C_4  and  C_5
REMARK                            x       y       z     vdW  Elec       q    Type
REMARK                         _______ _______ _______ _____ _____    ______ ____
ROOT
ATOM      1  C   UNL     1       2.977   6.017  18.587  0.00  0.00    +0.000 C 
ATOM      2  C   UNL     1       4.249   6.227  18.181  0.00  0.00    +0.000 C 
ENDROOT
BRANCH   1   3
ATOM      3  C   UNL     1       2.375   6.754  19.683  0.00  0.00    +0.000 C 
ATOM      4  C   UNL     1       1.873   7.998  19.619  0.00  0.00    +0.000 C 
ATOM      5  S   UNL     1       1.751   9.029  18.238  0.00  0.00    +0.000 S 
ATOM      6  C   UNL     1       0.974  10.303  19.152  0.00  0.00    +0.000 C 
ATOM      7  S   UNL     1       0.464  11.766  18.569  0.00  0.00    +0.000 S 
ATOM      8  N   UNL     1       0.846   9.922  20.452  0.00  0.00    +0.000 N 
ATOM      9  C   UNL     1       1.307   8.685  20.808  0.00  0.00    +0.000 C 
ATOM     10  O   UNL     1       1.273   8.224  21.936  0.00  0.00    +0.000 OA
ATOM     11  H   UNL     1       0.434  10.528  21.144  0.00  0.00    +0.000 HD
ENDBRANCH   1   3
BRANCH   2  12
ATOM     12  C   UNL     1       4.828   5.548  17.063  0.00  0.00    +0.000 A 
ATOM     13  C   UNL     1       5.114   6.025  15.789  0.00  0.00    +0.000 A 
ATOM     14  C   UNL     1       5.695   4.967  15.044  0.00  0.00    +0.000 A 
ATOM     15  C   UNL     1       5.719   3.887  15.885  0.00  0.00    +0.000 A 
ATOM     16  O   UNL     1       5.186   4.217  17.081  0.00  0.00    +0.000 OA
ENDBRANCH   2  12
BRANCH   1  18
ATOM     17  N   UNL     1       1.464   4.045  17.340  0.00  0.00    +0.000 NA
ATOM     18  C   UNL     1       2.150   4.939  17.905  0.00  0.00    +0.000 C 
ENDBRANCH   1  18
TORSDOF 3
ENDMDL
MODEL 8
REMARK VINA RESULT:      -5.7      2.436      2.839
REMARK  Name = 
REMARK  3 active torsions:
REMARK  status: ('A' for Active; 'I' for Inactive)
REMARK    1  A    between atoms: C_2  and  C_3
REMARK    2  A    between atoms: C_3  and  C_10
REMARK    3  A    between atoms: C_4  and  C_5
REMARK                            x       y       z     vdW  Elec       q    Type
REMARK                         _______ _______ _______ _____ _____    ______ ____
ROOT
ATOM      1  C   UNL     1       4.142   3.880  18.055  0.00  0.00    +0.000 C 
ATOM      2  C   UNL     1       4.334   3.766  19.388  0.00  0.00    +0.000 C 
ENDROOT
BRANCH   1   3
ATOM      3  C   UNL     1       5.230   4.136  17.128  0.00  0.00    +0.000 C 
ATOM      4  C   UNL     1       6.021   5.220  17.118  0.00  0.00    +0.000 C 
ATOM      5  S   UNL     1       6.010   6.561  18.208  0.00  0.00    +0.000 S 
ATOM      6  C   UNL     1       7.355   7.338  17.402  0.00  0.00    +0.000 C 
ATOM      7  S   UNL     1       8.059   8.775  17.820  0.00  0.00    +0.000 S 
ATOM      8  N   UNL     1       7.754   6.580  16.344  0.00  0.00    +0.000 N 
ATOM      9  C   UNL     1       7.089   5.410  16.104  0.00  0.00    +0.000 C 
ATOM     10  O   UNL     1       7.329   4.646  15.184  0.00  0.00    +0.000 OA
ATOM     11  H   UNL     1       8.510   6.867  15.742  0.00  0.00    +0.000 HD
ENDBRANCH   1   3
BRANCH   2  12
ATOM     12  C   UNL     1       3.277   3.453  20.299  0.00  0.00    +0.000 A 
ATOM     13  C   UNL     1       2.237   4.254  20.757  0.00  0.00    +0.000 A 
ATOM     14  C   UNL     1       1.441   3.479  21.639  0.00  0.00    +0.000 A 
ATOM     15  C   UNL     1       2.038   2.249  21.698  0.00  0.00    +0.000 A 
ATOM     16  O   UNL     1       3.143   2.230  20.921  0.00  0.00    +0.000 OA
ENDBRANCH   2  12
BRANCH   1  18
ATOM     17  N   UNL     1       1.560   3.702  17.037  0.00  0.00    +0.000 NA
ATOM     18  C   UNL     1       2.731   3.783  17.499  0.00  0.00    +0.000 C 
ENDBRANCH   1  18
TORSDOF 3
ENDMDL
MODEL 9
REMARK VINA RESULT:      -5.6      2.073      2.877
REMARK  Name = 
REMARK  3 active torsions:
REMARK  status: ('A' for Active; 'I' for Inactive)
REMARK    1  A    between atoms: C_2  and  C_3
REMARK    2  A    between atoms: C_3  and  C_10
REMARK    3  A    between atoms: C_4  and  C_5
REMARK                            x       y       z     vdW  Elec       q    Type
REMARK                         _______ _______ _______ _____ _____    ______ ____
ROOT
ATOM      1  C   UNL     1       5.942   5.380  17.254  0.00  0.00    +0.000 C 
ATOM      2  C   UNL     1       4.607   5.179  17.184  0.00  0.00    +0.000 C 
ENDROOT
BRANCH   1   3
ATOM      3  C   UNL     1       6.771   5.541  16.073  0.00  0.00    +0.000 C 
ATOM      4  C   UNL     1       6.628   4.885  14.911  0.00  0.00    +0.000 C 
ATOM      5  S   UNL     1       5.417   3.731  14.479  0.00  0.00    +0.000 S 
ATOM      6  C   UNL     1       6.060   3.533  12.863  0.00  0.00    +0.000 C 
ATOM      7  S   UNL     1       5.463   2.547  11.677  0.00  0.00    +0.000 S 
ATOM      8  N   UNL     1       7.160   4.321  12.709  0.00  0.00    +0.000 N 
ATOM      9  C   UNL     1       7.551   5.093  13.767  0.00  0.00    +0.000 C 
ATOM     10  O   UNL     1       8.524   5.829  13.773  0.00  0.00    +0.000 OA
ATOM     11  H   UNL     1       7.683   4.337  11.847  0.00  0.00    +0.000 HD
ENDBRANCH   1   3
BRANCH   2  12
ATOM     12  C   UNL     1       3.776   5.081  18.344  0.00  0.00    +0.000 A 
ATOM     13  C   UNL     1       3.068   6.073  19.012  0.00  0.00    +0.000 A 
ATOM     14  C   UNL     1       2.384   5.469  20.099  0.00  0.00    +0.000 A 
ATOM     15  C   UNL     1       2.719   4.143  20.060  0.00  0.00    +0.000 A 
ATOM     16  O   UNL     1       3.564   3.906  19.033  0.00  0.00    +0.000 OA
ENDBRANCH   2  12
BRANCH   1  18
ATOM     17  N   UNL     1       7.179   5.406  19.745  0.00  0.00    +0.000 NA
ATOM     18  C   UNL     1       6.618   5.394  18.615  0.00  0.00    +0.000 C 
ENDBRANCH   1  18
TORSDOF 3
ENDMDL
