MODEL 1
REMARK VINA RESULT:      -7.4      0.000      0.000
REMARK  Name = 
REMARK  9 active torsions:
REMARK  status: ('A' for Active; 'I' for Inactive)
REMARK    1  A    between atoms: C_1  and  O_2
REMARK    2  A    between atoms: O_2  and  C_3
REMARK    3  A    between atoms: C_6  and  C_7
REMARK    4  A    between atoms: C_7  and  C_8
REMARK    5  A    between atoms: C_8  and  O_9
REMARK    6  A    between atoms: O_9  and  C_10
REMARK    7  A    between atoms: C_10  and  C_12
REMARK    8  A    between atoms: C_12  and  C_13
REMARK    9  A    between atoms: N_21  and  C_22
REMARK                            x       y       z     vdW  Elec       q    Type
REMARK                         _______ _______ _______ _____ _____    ______ ____
ROOT
ATOM      1  C   UNL     1       5.705   4.625  18.809  0.00  0.00    +0.000 C 
ATOM      2  O   UNL     1       6.341   5.085  19.758  0.00  0.00    +0.000 OA
ENDROOT
BRANCH   1   3
ATOM      3  C   UNL     1       4.185   4.411  18.821  0.00  0.00    +0.000 C 
ATOM      4  C   UNL     1       3.779   3.588  20.074  0.00  0.00    +0.000 C 
ATOM      5  C   UNL     1       2.310   3.177  20.028  0.00  0.00    +0.000 C 
ATOM      6  N   UNL     1       2.026   2.349  18.851  0.00  0.00    +0.000 NA
ATOM      7  C   UNL     1       0.596   2.028  18.813  0.00  0.00    +0.000 C 
ATOM      8  C   UNL     1       2.411   3.016  17.600  0.00  0.00    +0.000 C 
ATOM      9  C   UNL     1       3.866   3.483  17.614  0.00  0.00    +0.000 C 
BRANCH   3  10
ATOM     10  C   UNL     1       3.484   5.789  18.759  0.00  0.00    +0.000 A 
ATOM     11  C   UNL     1       2.652   6.262  19.790  0.00  0.00    +0.000 A 
ATOM     12  C   UNL     1       2.076   7.537  19.730  0.00  0.00    +0.000 A 
ATOM     13  C   UNL     1       2.291   8.357  18.628  0.00  0.00    +0.000 A 
ATOM     14  C   UNL     1       3.072   7.897  17.576  0.00  0.00    +0.000 A 
ATOM     15  C   UNL     1       3.650   6.627  17.638  0.00  0.00    +0.000 A 
ENDBRANCH   3  10
ENDBRANCH   1   3
BRANCH   1  16
ATOM     16  O   UNL     1       6.280   4.230  17.636  0.00  0.00    +0.000 OA
BRANCH  16  17
ATOM     17  C   UNL     1       7.352   5.065  17.164  0.00  0.00    +0.000 C 
BRANCH  17  18
ATOM     18  C   UNL     1       6.892   5.920  15.981  0.00  0.00    +0.000 C 
BRANCH  18  22
ATOM     19  C   UNL     1       5.936   3.503  12.525  0.00  0.00    +0.000 A 
ATOM     20  C   UNL     1       5.009   3.663  13.554  0.00  0.00    +0.000 A 
ATOM     21  C   UNL     1       5.307   4.463  14.661  0.00  0.00    +0.000 A 
ATOM     22  C   UNL     1       6.552   5.094  14.765  0.00  0.00    +0.000 A 
ATOM     23  C   UNL     1       7.484   4.919  13.734  0.00  0.00    +0.000 A 
ATOM     24  C   UNL     1       7.177   4.128  12.619  0.00  0.00    +0.000 A 
BRANCH  19  26
ATOM     25  C   UNL     1       6.355   1.549  11.265  0.00  0.00    +0.000 C 
ATOM     26  O   UNL     1       5.538   2.693  11.495  0.00  0.00    +0.000 OA
ENDBRANCH  19  26
ENDBRANCH  18  22
ENDBRANCH  17  18
ENDBRANCH  16  17
ENDBRANCH   1  16
TORSDOF 7
ENDMDL
MODEL 2
REMARK VINA RESULT:      -7.2      0.205      1.347
REMARK  Name = 
REMARK  9 active torsions:
REMARK  status: ('A' for Active; 'I' for Inactive)
REMARK    1  A    between atoms: C_1  and  O_2
REMARK    2  A    between atoms: O_2  and  C_3
REMARK    3  A    between atoms: C_6  and  C_7
REMARK    4  A    between atoms: C_7  and  C_8
REMARK    5  A    between atoms: C_8  and  O_9
REMARK    6  A    between atoms: O_9  and  C_10
REMARK    7  A    between atoms: C_10  and  C_12
REMARK    8  A    between atoms: C_12  and  C_13
REMARK    9  A    between atoms: N_21  and  C_22
REMARK                            x       y       z     vdW  Elec       q    Type
REMARK                         _______ _______ _______ _____ _____    ______ ____
ROOT
ATOM      1  C   UNL     1       5.732   4.658  18.794  0.00  0.00    +0.000 C 
ATOM      2  O   UNL     1       6.373   5.084  19.755  0.00  0.00    +0.000 OA
ENDROOT
BRANCH   1   3
ATOM      3  C   UNL     1       4.211   4.455  18.803  0.00  0.00    +0.000 C 
ATOM      4  C   UNL     1       3.798   3.617  20.044  0.00  0.00    +0.000 C 
ATOM      5  C   UNL     1       2.326   3.217  19.991  0.00  0.00    +0.000 C 
ATOM      6  N   UNL     1       2.036   2.409  18.802  0.00  0.00    +0.000 NA
ATOM      7  C   UNL     1       0.604   2.098  18.760  0.00  0.00    +0.000 C 
ATOM      8  C   UNL     1       2.426   3.091  17.561  0.00  0.00    +0.000 C 
ATOM      9  C   UNL     1       3.884   3.547  17.582  0.00  0.00    +0.000 C 
BRANCH   3  10
ATOM     10  C   UNL     1       3.520   5.839  18.760  0.00  0.00    +0.000 A 
ATOM     11  C   UNL     1       3.712   6.748  17.703  0.00  0.00    +0.000 A 
ATOM     12  C   UNL     1       3.029   7.970  17.665  0.00  0.00    +0.000 A 
ATOM     13  C   UNL     1       2.164   8.327  18.694  0.00  0.00    +0.000 A 
ATOM     14  C   UNL     1       1.992   7.468  19.770  0.00  0.00    +0.000 A 
ATOM     15  C   UNL     1       2.669   6.247  19.806  0.00  0.00    +0.000 A 
ENDBRANCH   3  10
ENDBRANCH   1   3
BRANCH   1  16
ATOM     16  O   UNL     1       6.301   4.296  17.607  0.00  0.00    +0.000 OA
BRANCH  16  17
ATOM     17  C   UNL     1       7.243   5.237  17.063  0.00  0.00    +0.000 C 
BRANCH  17  18
ATOM     18  C   UNL     1       6.649   5.961  15.853  0.00  0.00    +0.000 C 
BRANCH  18  22
ATOM     19  C   UNL     1       6.055   3.387  12.429  0.00  0.00    +0.000 A 
ATOM     20  C   UNL     1       7.268   4.049  12.615  0.00  0.00    +0.000 A 
ATOM     21  C   UNL     1       7.470   4.862  13.733  0.00  0.00    +0.000 A 
ATOM     22  C   UNL     1       6.448   5.047  14.670  0.00  0.00    +0.000 A 
ATOM     23  C   UNL     1       5.226   4.389  14.473  0.00  0.00    +0.000 A 
ATOM     24  C   UNL     1       5.032   3.563  13.358  0.00  0.00    +0.000 A 
BRANCH  19  26
ATOM     25  C   UNL     1       6.996   1.649  11.134  0.00  0.00    +0.000 C 
ATOM     26  O   UNL     1       5.968   2.622  11.296  0.00  0.00    +0.000 OA
ENDBRANCH  19  26
ENDBRANCH  18  22
ENDBRANCH  17  18
ENDBRANCH  16  17
ENDBRANCH   1  16
TORSDOF 7
ENDMDL
MODEL 3
REMARK VINA RESULT:      -7.1      5.142      7.971
REMARK  Name = 
REMARK  9 active torsions:
REMARK  status: ('A' for Active; 'I' for Inactive)
REMARK    1  A    between atoms: C_1  and  O_2
REMARK    2  A    between atoms: O_2  and  C_3
REMARK    3  A    between atoms: C_6  and  C_7
REMARK    4  A    between atoms: C_7  and  C_8
REMARK    5  A    between atoms: C_8  and  O_9
REMARK    6  A    between atoms: O_9  and  C_10
REMARK    7  A    between atoms: C_10  and  C_12
REMARK    8  A    between atoms: C_12  and  C_13
REMARK    9  A    between atoms: N_21  and  C_22
REMARK                            x       y       z     vdW  Elec       q    Type
REMARK                         _______ _______ _______ _____ _____    ______ ____
ROOT
ATOM      1  C   UNL     1       1.135  10.842  18.356  0.00  0.00    +0.000 C 
ATOM      2  O   UNL     1       1.916  11.763  18.593  0.00  0.00    +0.000 OA
ENDROOT
BRANCH   1   3
ATOM      3  C   UNL     1      -0.339  10.839  18.781  0.00  0.00    +0.000 C 
ATOM      4  C   UNL     1      -1.151   9.885  17.863  0.00  0.00    +0.000 C 
ATOM      5  C   UNL     1      -2.652  10.001  18.114  0.00  0.00    +0.000 C 
ATOM      6  N   UNL     1      -3.131  11.363  17.861  0.00  0.00    +0.000 NA
ATOM      7  C   UNL     1      -4.562  11.445  18.172  0.00  0.00    +0.000 C 
ATOM      8  C   UNL     1      -2.401  12.363  18.651  0.00  0.00    +0.000 C 
ATOM      9  C   UNL     1      -0.888  12.261  18.464  0.00  0.00    +0.000 C 
BRANCH   3  10
ATOM     10  C   UNL     1      -0.429  10.450  20.276  0.00  0.00    +0.000 A 
ATOM     11  C   UNL     1      -0.217   9.135  20.729  0.00  0.00    +0.000 A 
ATOM     12  C   UNL     1      -0.249   8.824  22.094  0.00  0.00    +0.000 A 
ATOM     13  C   UNL     1      -0.525   9.809  23.035  0.00  0.00    +0.000 A 
ATOM     14  C   UNL     1      -0.783  11.106  22.611  0.00  0.00    +0.000 A 
ATOM     15  C   UNL     1      -0.745  11.417  21.250  0.00  0.00    +0.000 A 
ENDBRANCH   3  10
ENDBRANCH   1   3
BRANCH   1  16
ATOM     16  O   UNL     1       1.493   9.699  17.701  0.00  0.00    +0.000 OA
BRANCH  16  17
ATOM     17  C   UNL     1       2.693   9.065  18.178  0.00  0.00    +0.000 C 
BRANCH  17  18
ATOM     18  C   UNL     1       2.852   7.673  17.562  0.00  0.00    +0.000 C 
BRANCH  18  22
ATOM     19  C   UNL     1       1.506   4.532  20.213  0.00  0.00    +0.000 A 
ATOM     20  C   UNL     1       1.669   4.286  18.850  0.00  0.00    +0.000 A 
ATOM     21  C   UNL     1       2.126   5.293  17.996  0.00  0.00    +0.000 A 
ATOM     22  C   UNL     1       2.403   6.572  18.491  0.00  0.00    +0.000 A 
ATOM     23  C   UNL     1       2.226   6.818  19.859  0.00  0.00    +0.000 A 
ATOM     24  C   UNL     1       1.780   5.802  20.716  0.00  0.00    +0.000 A 
BRANCH  19  26
ATOM     25  C   UNL     1       1.917   2.348  21.014  0.00  0.00    +0.000 C 
ATOM     26  O   UNL     1       1.047   3.474  20.952  0.00  0.00    +0.000 OA
ENDBRANCH  19  26
ENDBRANCH  18  22
ENDBRANCH  17  18
ENDBRANCH  16  17
ENDBRANCH   1  16
TORSDOF 7
ENDMDL
MODEL 4
REMARK VINA RESULT:      -7.1      4.400      7.983
REMARK  Name = 
REMARK  9 active torsions:
REMARK  status: ('A' for Active; 'I' for Inactive)
REMARK    1  A    between atoms: C_1  and  O_2
REMARK    2  A    between atoms: O_2  and  C_3
REMARK    3  A    between atoms: C_6  and  C_7
REMARK    4  A    between atoms: C_7  and  C_8
REMARK    5  A    between atoms: C_8  and  O_9
REMARK    6  A    between atoms: O_9  and  C_10
REMARK    7  A    between atoms: C_10  and  C_12
REMARK    8  A    between atoms: C_12  and  C_13
REMARK    9  A    between atoms: N_21  and  C_22
REMARK                            x       y       z     vdW  Elec       q    Type
REMARK                         _______ _______ _______ _____ _____    ______ ____
ROOT
ATOM      1  C   UNL     1       2.745   7.468  18.010  0.00  0.00    +0.000 C 
ATOM      2  O   UNL     1       3.679   8.101  17.517  0.00  0.00    +0.000 OA
ENDROOT
BRANCH   1   3
ATOM      3  C   UNL     1       2.868   6.029  18.531  0.00  0.00    +0.000 C 
ATOM      4  C   UNL     1       1.761   5.143  17.897  0.00  0.00    +0.000 C 
ATOM      5  C   UNL     1       1.714   3.756  18.533  0.00  0.00    +0.000 C 
ATOM      6  N   UNL     1       1.436   3.840  19.971  0.00  0.00    +0.000 NA
ATOM      7  C   UNL     1       1.459   2.494  20.552  0.00  0.00    +0.000 C 
ATOM      8  C   UNL     1       2.403   4.693  20.673  0.00  0.00    +0.000 C 
ATOM      9  C   UNL     1       2.516   6.083  20.046  0.00  0.00    +0.000 C 
BRANCH   3  10
ATOM     10  C   UNL     1       4.294   5.508  18.234  0.00  0.00    +0.000 A 
ATOM     11  C   UNL     1       4.646   4.929  17.001  0.00  0.00    +0.000 A 
ATOM     12  C   UNL     1       5.960   4.518  16.742  0.00  0.00    +0.000 A 
ATOM     13  C   UNL     1       6.944   4.646  17.716  0.00  0.00    +0.000 A 
ATOM     14  C   UNL     1       6.612   5.172  18.957  0.00  0.00    +0.000 A 
ATOM     15  C   UNL     1       5.304   5.587  19.213  0.00  0.00    +0.000 A 
ENDBRANCH   3  10
ENDBRANCH   1   3
BRANCH   1  16
ATOM     16  O   UNL     1       1.479   7.963  18.134  0.00  0.00    +0.000 OA
BRANCH  16  17
ATOM     17  C   UNL     1       1.338   9.368  17.856  0.00  0.00    +0.000 C 
BRANCH  17  18
ATOM     18  C   UNL     1       0.434  10.037  18.894  0.00  0.00    +0.000 C 
BRANCH  18  22
ATOM     19  C   UNL     1      -3.492  10.940  17.319  0.00  0.00    +0.000 A 
ATOM     20  C   UNL     1      -2.665  10.021  16.675  0.00  0.00    +0.000 A 
ATOM     21  C   UNL     1      -1.406   9.710  17.195  0.00  0.00    +0.000 A 
ATOM     22  C   UNL     1      -0.944  10.337  18.357  0.00  0.00    +0.000 A 
ATOM     23  C   UNL     1      -1.773  11.269  18.995  0.00  0.00    +0.000 A 
ATOM     24  C   UNL     1      -3.041  11.569  18.478  0.00  0.00    +0.000 A 
BRANCH  19  26
ATOM     25  C   UNL     1      -5.462  12.242  17.265  0.00  0.00    +0.000 C 
ATOM     26  O   UNL     1      -4.699  11.171  16.717  0.00  0.00    +0.000 OA
ENDBRANCH  19  26
ENDBRANCH  18  22
ENDBRANCH  17  18
ENDBRANCH  16  17
ENDBRANCH   1  16
TORSDOF 7
ENDMDL
MODEL 5
REMARK VINA RESULT:      -7.1      4.355      6.423
REMARK  Name = 
REMARK  9 active torsions:
REMARK  status: ('A' for Active; 'I' for Inactive)
REMARK    1  A    between atoms: C_1  and  O_2
REMARK    2  A    between atoms: O_2  and  C_3
REMARK    3  A    between atoms: C_6  and  C_7
REMARK    4  A    between atoms: C_7  and  C_8
REMARK    5  A    between atoms: C_8  and  O_9
REMARK    6  A    between atoms: O_9  and  C_10
REMARK    7  A    between atoms: C_10  and  C_12
REMARK    8  A    between atoms: C_12  and  C_13
REMARK    9  A    between atoms: N_21  and  C_22
REMARK                            x       y       z     vdW  Elec       q    Type
REMARK                         _______ _______ _______ _____ _____    ______ ____
ROOT
ATOM      1  C   UNL     1       5.923   6.434  16.888  0.00  0.00    +0.000 C 
ATOM      2  O   UNL     1       5.844   6.783  15.710  0.00  0.00    +0.000 OA
ENDROOT
BRANCH   1   3
ATOM      3  C   UNL     1       4.861   5.588  17.604  0.00  0.00    +0.000 C 
ATOM      4  C   UNL     1       5.526   4.744  18.725  0.00  0.00    +0.000 C 
ATOM      5  C   UNL     1       4.550   3.740  19.331  0.00  0.00    +0.000 C 
ATOM      6  N   UNL     1       4.053   2.804  18.317  0.00  0.00    +0.000 NA
ATOM      7  C   UNL     1       3.075   1.897  18.927  0.00  0.00    +0.000 C 
ATOM      8  C   UNL     1       3.434   3.497  17.180  0.00  0.00    +0.000 C 
ATOM      9  C   UNL     1       4.361   4.544  16.563  0.00  0.00    +0.000 C 
BRANCH   3  10
ATOM     10  C   UNL     1       3.752   6.525  18.139  0.00  0.00    +0.000 A 
ATOM     11  C   UNL     1       3.129   6.325  19.385  0.00  0.00    +0.000 A 
ATOM     12  C   UNL     1       2.168   7.222  19.867  0.00  0.00    +0.000 A 
ATOM     13  C   UNL     1       1.783   8.320  19.105  0.00  0.00    +0.000 A 
ATOM     14  C   UNL     1       2.348   8.514  17.853  0.00  0.00    +0.000 A 
ATOM     15  C   UNL     1       3.311   7.623  17.374  0.00  0.00    +0.000 A 
ENDBRANCH   3  10
ENDBRANCH   1   3
BRANCH   1  16
ATOM     16  O   UNL     1       6.960   6.775  17.709  0.00  0.00    +0.000 OA
BRANCH  16  17
ATOM     17  C   UNL     1       7.397   8.142  17.612  0.00  0.00    +0.000 C 
BRANCH  17  18
ATOM     18  C   UNL     1       8.544   8.414  18.589  0.00  0.00    +0.000 C 
BRANCH  18  22
ATOM     19  C   UNL     1       9.517  12.616  18.910  0.00  0.00    +0.000 A 
ATOM     20  C   UNL     1       8.811  12.135  17.808  0.00  0.00    +0.000 A 
ATOM     21  C   UNL     1       8.474  10.782  17.714  0.00  0.00    +0.000 A 
ATOM     22  C   UNL     1       8.865   9.883  18.712  0.00  0.00    +0.000 A 
ATOM     23  C   UNL     1       9.586  10.368  19.811  0.00  0.00    +0.000 A 
ATOM     24  C   UNL     1       9.910  11.728  19.909  0.00  0.00    +0.000 A 
BRANCH  19  26
ATOM     25  C   UNL     1       8.736  14.807  19.318  0.00  0.00    +0.000 C 
ATOM     26  O   UNL     1       9.796  13.956  18.893  0.00  0.00    +0.000 OA
ENDBRANCH  19  26
ENDBRANCH  18  22
ENDBRANCH  17  18
ENDBRANCH  16  17
ENDBRANCH   1  16
TORSDOF 7
ENDMDL
MODEL 6
REMARK VINA RESULT:      -7.1      4.412      6.471
REMARK  Name = 
REMARK  9 active torsions:
REMARK  status: ('A' for Active; 'I' for Inactive)
REMARK    1  A    between atoms: C_1  and  O_2
REMARK    2  A    between atoms: O_2  and  C_3
REMARK    3  A    between atoms: C_6  and  C_7
REMARK    4  A    between atoms: C_7  and  C_8
REMARK    5  A    between atoms: C_8  and  O_9
REMARK    6  A    between atoms: O_9  and  C_10
REMARK    7  A    between atoms: C_10  and  C_12
REMARK    8  A    between atoms: C_12  and  C_13
REMARK    9  A    between atoms: N_21  and  C_22
REMARK                            x       y       z     vdW  Elec       q    Type
REMARK                         _______ _______ _______ _____ _____    ______ ____
ROOT
ATOM      1  C   UNL     1       5.924   6.485  16.929  0.00  0.00    +0.000 C 
ATOM      2  O   UNL     1       5.851   6.843  15.753  0.00  0.00    +0.000 OA
ENDROOT
BRANCH   1   3
ATOM      3  C   UNL     1       4.847   5.653  17.638  0.00  0.00    +0.000 C 
ATOM      4  C   UNL     1       5.499   4.783  18.748  0.00  0.00    +0.000 C 
ATOM      5  C   UNL     1       4.505   3.791  19.345  0.00  0.00    +0.000 C 
ATOM      6  N   UNL     1       3.986   2.877  18.323  0.00  0.00    +0.000 NA
ATOM      7  C   UNL     1       2.992   1.983  18.926  0.00  0.00    +0.000 C 
ATOM      8  C   UNL     1       3.377   3.595  17.196  0.00  0.00    +0.000 C 
ATOM      9  C   UNL     1       4.322   4.631  16.588  0.00  0.00    +0.000 C 
BRANCH   3  10
ATOM     10  C   UNL     1       3.758   6.605  18.188  0.00  0.00    +0.000 A 
ATOM     11  C   UNL     1       3.342   7.757  17.496  0.00  0.00    +0.000 A 
ATOM     12  C   UNL     1       2.314   8.569  17.992  0.00  0.00    +0.000 A 
ATOM     13  C   UNL     1       1.701   8.269  19.204  0.00  0.00    +0.000 A 
ATOM     14  C   UNL     1       2.124   7.163  19.928  0.00  0.00    +0.000 A 
ATOM     15  C   UNL     1       3.145   6.350  19.431  0.00  0.00    +0.000 A 
ENDBRANCH   3  10
ENDBRANCH   1   3
BRANCH   1  16
ATOM     16  O   UNL     1       6.965   6.804  17.752  0.00  0.00    +0.000 OA
BRANCH  16  17
ATOM     17  C   UNL     1       7.564   8.090  17.516  0.00  0.00    +0.000 C 
BRANCH  17  18
ATOM     18  C   UNL     1       8.586   8.420  18.608  0.00  0.00    +0.000 C 
BRANCH  18  22
ATOM     19  C   UNL     1       9.391  12.657  18.928  0.00  0.00    +0.000 A 
ATOM     20  C   UNL     1       8.776  12.138  17.790  0.00  0.00    +0.000 A 
ATOM     21  C   UNL     1       8.493  10.773  17.694  0.00  0.00    +0.000 A 
ATOM     22  C   UNL     1       8.848   9.901  18.729  0.00  0.00    +0.000 A 
ATOM     23  C   UNL     1       9.478  10.425  19.866  0.00  0.00    +0.000 A 
ATOM     24  C   UNL     1       9.747  11.796  19.965  0.00  0.00    +0.000 A 
BRANCH  19  26
ATOM     25  C   UNL     1      10.977  14.390  18.682  0.00  0.00    +0.000 C 
ATOM     26  O   UNL     1       9.625  14.006  18.909  0.00  0.00    +0.000 OA
ENDBRANCH  19  26
ENDBRANCH  18  22
ENDBRANCH  17  18
ENDBRANCH  16  17
ENDBRANCH   1  16
TORSDOF 7
ENDMDL
MODEL 7
REMARK VINA RESULT:      -7.0      4.491      6.956
REMARK  Name = 
REMARK  9 active torsions:
REMARK  status: ('A' for Active; 'I' for Inactive)
REMARK    1  A    between atoms: C_1  and  O_2
REMARK    2  A    between atoms: O_2  and  C_3
REMARK    3  A    between atoms: C_6  and  C_7
REMARK    4  A    between atoms: C_7  and  C_8
REMARK    5  A    between atoms: C_8  and  O_9
REMARK    6  A    between atoms: O_9  and  C_10
REMARK    7  A    between atoms: C_10  and  C_12
REMARK    8  A    between atoms: C_12  and  C_13
REMARK    9  A    between atoms: N_21  and  C_22
REMARK                            x       y       z     vdW  Elec       q    Type
REMARK                         _______ _______ _______ _____ _____    ______ ____
ROOT
ATOM      1  C   UNL     1       1.198  10.716  18.306  0.00  0.00    +0.000 C 
ATOM      2  O   UNL     1       2.026  11.593  18.553  0.00  0.00    +0.000 OA
ENDROOT
BRANCH   1   3
ATOM      3  C   UNL     1      -0.274  10.785  18.734  0.00  0.00    +0.000 C 
ATOM      4  C   UNL     1      -1.131   9.865  17.823  0.00  0.00    +0.000 C 
ATOM      5  C   UNL     1      -2.625  10.051  18.077  0.00  0.00    +0.000 C 
ATOM      6  N   UNL     1      -3.040  11.433  17.816  0.00  0.00    +0.000 NA
ATOM      7  C   UNL     1      -4.465  11.583  18.129  0.00  0.00    +0.000 C 
ATOM      8  C   UNL     1      -2.263  12.402  18.599  0.00  0.00    +0.000 C 
ATOM      9  C   UNL     1      -0.756  12.229  18.409  0.00  0.00    +0.000 C 
BRANCH   3  10
ATOM     10  C   UNL     1      -0.379  10.409  20.232  0.00  0.00    +0.000 A 
ATOM     11  C   UNL     1      -0.220   9.089  20.693  0.00  0.00    +0.000 A 
ATOM     12  C   UNL     1      -0.264   8.788  22.060  0.00  0.00    +0.000 A 
ATOM     13  C   UNL     1      -0.500   9.790  22.995  0.00  0.00    +0.000 A 
ATOM     14  C   UNL     1      -0.705  11.093  22.563  0.00  0.00    +0.000 A 
ATOM     15  C   UNL     1      -0.655  11.394  21.200  0.00  0.00    +0.000 A 
ENDBRANCH   3  10
ENDBRANCH   1   3
BRANCH   1  16
ATOM     16  O   UNL     1       1.495   9.564  17.638  0.00  0.00    +0.000 OA
BRANCH  16  17
ATOM     17  C   UNL     1       2.644   8.848  18.125  0.00  0.00    +0.000 C 
BRANCH  17  18
ATOM     18  C   UNL     1       2.272   7.407  18.484  0.00  0.00    +0.000 C 
BRANCH  18  22
ATOM     19  C   UNL     1       4.883   4.512  16.612  0.00  0.00    +0.000 A 
ATOM     20  C   UNL     1       5.192   5.871  16.574  0.00  0.00    +0.000 A 
ATOM     21  C   UNL     1       4.362   6.806  17.199  0.00  0.00    +0.000 A 
ATOM     22  C   UNL     1       3.193   6.395  17.849  0.00  0.00    +0.000 A 
ATOM     23  C   UNL     1       2.881   5.029  17.873  0.00  0.00    +0.000 A 
ATOM     24  C   UNL     1       3.722   4.093  17.258  0.00  0.00    +0.000 A 
BRANCH  19  26
ATOM     25  C   UNL     1       6.050   4.044  14.612  0.00  0.00    +0.000 C 
ATOM     26  O   UNL     1       5.764   3.690  15.961  0.00  0.00    +0.000 OA
ENDBRANCH  19  26
ENDBRANCH  18  22
ENDBRANCH  17  18
ENDBRANCH  16  17
ENDBRANCH   1  16
TORSDOF 7
ENDMDL
MODEL 8
REMARK VINA RESULT:      -7.0      4.139      8.708
REMARK  Name = 
REMARK  9 active torsions:
REMARK  status: ('A' for Active; 'I' for Inactive)
REMARK    1  A    between atoms: C_1  and  O_2
REMARK    2  A    between atoms: O_2  and  C_3
REMARK    3  A    between atoms: C_6  and  C_7
REMARK    4  A    between atoms: C_7  and  C_8
REMARK    5  A    between atoms: C_8  and  O_9
REMARK    6  A    between atoms: O_9  and  C_10
REMARK    7  A    between atoms: C_10  and  C_12
REMARK    8  A    between atoms: C_12  and  C_13
REMARK    9  A    between atoms: N_21  and  C_22
REMARK                            x       y       z     vdW  Elec       q    Type
REMARK                         _______ _______ _______ _____ _____    ______ ____
ROOT
ATOM      1  C   UNL     1       2.539   6.751  18.704  0.00  0.00    +0.000 C 
ATOM      2  O   UNL     1       2.045   7.323  17.733  0.00  0.00    +0.000 OA
ENDROOT
BRANCH   1   3
ATOM      3  C   UNL     1       3.327   5.437  18.613  0.00  0.00    +0.000 C 
ATOM      4  C   UNL     1       2.773   4.570  17.450  0.00  0.00    +0.000 C 
ATOM      5  C   UNL     1       3.386   3.172  17.445  0.00  0.00    +0.000 C 
ATOM      6  N   UNL     1       3.098   2.461  18.695  0.00  0.00    +0.000 NA
ATOM      7  C   UNL     1       3.754   1.149  18.673  0.00  0.00    +0.000 C 
ATOM      8  C   UNL     1       3.545   3.212  19.875  0.00  0.00    +0.000 C 
ATOM      9  C   UNL     1       2.988   4.635  19.904  0.00  0.00    +0.000 C 
BRANCH   3  10
ATOM     10  C   UNL     1       4.830   5.764  18.452  0.00  0.00    +0.000 A 
ATOM     11  C   UNL     1       5.802   5.330  19.373  0.00  0.00    +0.000 A 
ATOM     12  C   UNL     1       7.162   5.593  19.169  0.00  0.00    +0.000 A 
ATOM     13  C   UNL     1       7.581   6.322  18.062  0.00  0.00    +0.000 A 
ATOM     14  C   UNL     1       6.639   6.800  17.162  0.00  0.00    +0.000 A 
ATOM     15  C   UNL     1       5.283   6.533  17.362  0.00  0.00    +0.000 A 
ENDBRANCH   3  10
ENDBRANCH   1   3
BRANCH   1  16
ATOM     16  O   UNL     1       2.428   7.207  19.986  0.00  0.00    +0.000 OA
BRANCH  16  17
ATOM     17  C   UNL     1       1.620   8.385  20.153  0.00  0.00    +0.000 C 
BRANCH  17  18
ATOM     18  C   UNL     1       1.029   8.442  21.563  0.00  0.00    +0.000 C 
BRANCH  18  22
ATOM     19  C   UNL     1      -1.609  11.823  22.123  0.00  0.00    +0.000 A 
ATOM     20  C   UNL     1      -1.025  11.579  20.881  0.00  0.00    +0.000 A 
ATOM     21  C   UNL     1      -0.191  10.474  20.692  0.00  0.00    +0.000 A 
ATOM     22  C   UNL     1       0.092   9.609  21.754  0.00  0.00    +0.000 A 
ATOM     23  C   UNL     1      -0.487   9.864  23.004  0.00  0.00    +0.000 A 
ATOM     24  C   UNL     1      -1.334  10.966  23.187  0.00  0.00    +0.000 A 
BRANCH  19  26
ATOM     25  C   UNL     1      -3.390  12.921  23.221  0.00  0.00    +0.000 C 
ATOM     26  O   UNL     1      -2.402  12.937  22.194  0.00  0.00    +0.000 OA
ENDBRANCH  19  26
ENDBRANCH  18  22
ENDBRANCH  17  18
ENDBRANCH  16  17
ENDBRANCH   1  16
TORSDOF 7
ENDMDL
MODEL 9
REMARK VINA RESULT:      -7.0      3.662      8.111
REMARK  Name = 
REMARK  9 active torsions:
REMARK  status: ('A' for Active; 'I' for Inactive)
REMARK    1  A    between atoms: C_1  and  O_2
REMARK    2  A    between atoms: O_2  and  C_3
REMARK    3  A    between atoms: C_6  and  C_7
REMARK    4  A    between atoms: C_7  and  C_8
REMARK    5  A    between atoms: C_8  and  O_9
REMARK    6  A    between atoms: O_9  and  C_10
REMARK    7  A    between atoms: C_10  and  C_12
REMARK    8  A    between atoms: C_12  and  C_13
REMARK    9  A    between atoms: N_21  and  C_22
REMARK                            x       y       z     vdW  Elec       q    Type
REMARK                         _______ _______ _______ _____ _____    ______ ____
ROOT
ATOM      1  C   UNL     1       2.502   6.838  19.143  0.00  0.00    +0.000 C 
ATOM      2  O   UNL     1       2.354   7.274  20.285  0.00  0.00    +0.000 OA
ENDROOT
BRANCH   1   3
ATOM      3  C   UNL     1       3.232   5.529  18.815  0.00  0.00    +0.000 C 
ATOM      4  C   UNL     1       2.497   4.790  17.664  0.00  0.00    +0.000 C 
ATOM      5  C   UNL     1       3.064   3.391  17.437  0.00  0.00    +0.000 C 
ATOM      6  N   UNL     1       2.935   2.563  18.640  0.00  0.00    +0.000 NA
ATOM      7  C   UNL     1       3.544   1.251  18.399  0.00  0.00    +0.000 C 
ATOM      8  C   UNL     1       3.563   3.187  19.812  0.00  0.00    +0.000 C 
ATOM      9  C   UNL     1       3.056   4.607  20.057  0.00  0.00    +0.000 C 
BRANCH   3  10
ATOM     10  C   UNL     1       4.707   5.849  18.474  0.00  0.00    +0.000 A 
ATOM     11  C   UNL     1       5.075   6.609  17.348  0.00  0.00    +0.000 A 
ATOM     12  C   UNL     1       6.415   6.931  17.097  0.00  0.00    +0.000 A 
ATOM     13  C   UNL     1       7.420   6.474  17.942  0.00  0.00    +0.000 A 
ATOM     14  C   UNL     1       7.088   5.684  19.034  0.00  0.00    +0.000 A 
ATOM     15  C   UNL     1       5.751   5.369  19.288  0.00  0.00    +0.000 A 
ENDBRANCH   3  10
ENDBRANCH   1   3
BRANCH   1  16
ATOM     16  O   UNL     1       2.051   7.480  18.026  0.00  0.00    +0.000 OA
BRANCH  16  17
ATOM     17  C   UNL     1       2.079   8.917  18.088  0.00  0.00    +0.000 C 
BRANCH  17  18
ATOM     18  C   UNL     1       0.672   9.494  17.914  0.00  0.00    +0.000 C 
BRANCH  18  22
ATOM     19  C   UNL     1      -0.695  11.655  21.402  0.00  0.00    +0.000 A 
ATOM     20  C   UNL     1       0.457  10.872  21.461  0.00  0.00    +0.000 A 
ATOM     21  C   UNL     1       0.914  10.192  20.328  0.00  0.00    +0.000 A 
ATOM     22  C   UNL     1       0.206  10.264  19.124  0.00  0.00    +0.000 A 
ATOM     23  C   UNL     1      -0.959  11.042  19.073  0.00  0.00    +0.000 A 
ATOM     24  C   UNL     1      -1.406  11.734  20.206  0.00  0.00    +0.000 A 
BRANCH  19  26
ATOM     25  C   UNL     1      -2.352  11.953  23.059  0.00  0.00    +0.000 C 
ATOM     26  O   UNL     1      -1.051  12.270  22.572  0.00  0.00    +0.000 OA
ENDBRANCH  19  26
ENDBRANCH  18  22
ENDBRANCH  17  18
ENDBRANCH  16  17
ENDBRANCH   1  16
TORSDOF 7
ENDMDL
