MODEL 1
REMARK VINA RESULT:      -7.4      0.000      0.000
REMARK  Name = 
REMARK  8 active torsions:
REMARK  status: ('A' for Active; 'I' for Inactive)
REMARK    1  A    between atoms: C_1  and  O_2
REMARK    2  A    between atoms: O_2  and  C_3
REMARK    3  A    between atoms: C_6  and  C_7
REMARK    4  A    between atoms: C_7  and  C_8
REMARK    5  A    between atoms: C_9  and  C_10
REMARK    6  A    between atoms: C_20  and  C_21
REMARK    7  A    between atoms: C_24  and  C_25
REMARK    8  A    between atoms: C_27  and  C_28
REMARK                            x       y       z     vdW  Elec       q    Type
REMARK                         _______ _______ _______ _____ _____    ______ ____
ROOT
ATOM      1  C   UNL     1       1.927   7.211  19.123  0.00  0.00    +0.000 A 
ATOM      2  C   UNL     1       1.742   6.370  20.239  0.00  0.00    +0.000 A 
ATOM      3  N   UNL     1       1.250   7.061  21.306  0.00  0.00    +0.000 NA
ATOM      4  C   UNL     1       1.127   8.303  20.912  0.00  0.00    +0.000 A 
ATOM      5  C   UNL     1       0.617   9.400  21.660  0.00  0.00    +0.000 A 
ATOM      6  C   UNL     1       0.555  10.639  21.145  0.00  0.00    +0.000 A 
ATOM      7  C   UNL     1       0.012  11.794  21.938  0.00  0.00    +0.000 C 
ATOM      8  C   UNL     1       1.028  10.882  19.787  0.00  0.00    +0.000 A 
ATOM      9 BR   UNL     1       0.934  12.668  19.142  0.00  0.00    +0.000 Br
ATOM     10  C   UNL     1       1.510   9.846  19.043  0.00  0.00    +0.000 A 
ATOM     11  C   UNL     1       2.010  10.143  17.688  0.00  0.00    +0.000 C 
ATOM     12  N   UNL     1       1.552   8.513  19.586  0.00  0.00    +0.000 N 
ENDROOT
BRANCH   2  13
ATOM     13  C   UNL     1       1.870   4.897  20.307  0.00  0.00    +0.000 A 
ATOM     14  C   UNL     1       0.769   4.026  20.257  0.00  0.00    +0.000 A 
ATOM     15  C   UNL     1       0.916   2.644  20.461  0.00  0.00    +0.000 A 
ATOM     16  C   UNL     1       2.179   2.100  20.625  0.00  0.00    +0.000 A 
ATOM     17  C   UNL     1       3.296   2.939  20.563  0.00  0.00    +0.000 A 
ATOM     18 CL   UNL     1       4.866   2.248  20.680  0.00  0.00    +0.000 Cl
ATOM     19  C   UNL     1       3.142   4.322  20.413  0.00  0.00    +0.000 A 
ENDBRANCH   2  13
BRANCH   1  20
ATOM     20  C   UNL     1       2.315   6.660  17.756  0.00  0.00    +0.000 C 
BRANCH  20  24
ATOM     21  C   UNL     1       6.325   5.236  17.088  0.00  0.00    +0.000 A 
ATOM     22  C   UNL     1       6.073   6.582  17.351  0.00  0.00    +0.000 A 
ATOM     23  C   UNL     1       4.758   7.034  17.476  0.00  0.00    +0.000 A 
ATOM     24  C   UNL     1       3.679   6.135  17.409  0.00  0.00    +0.000 A 
ATOM     25  C   UNL     1       3.916   4.790  17.041  0.00  0.00    +0.000 A 
ATOM     26  C   UNL     1       2.840   3.732  17.001  0.00  0.00    +0.000 C 
ATOM     27  C   UNL     1       5.250   4.364  16.887  0.00  0.00    +0.000 A 
BRANCH  21  29
ATOM     28  C   UNL     1       8.262   4.594  18.297  0.00  0.00    +0.000 C 
ATOM     29  O   UNL     1       7.559   4.649  17.062  0.00  0.00    +0.000 OA
ENDBRANCH  21  29
ENDBRANCH  20  24
ENDBRANCH   1  20
TORSDOF 4
ENDMDL
MODEL 2
REMARK VINA RESULT:      -7.1      1.045      1.266
REMARK  Name = 
REMARK  8 active torsions:
REMARK  status: ('A' for Active; 'I' for Inactive)
REMARK    1  A    between atoms: C_1  and  O_2
REMARK    2  A    between atoms: O_2  and  C_3
REMARK    3  A    between atoms: C_6  and  C_7
REMARK    4  A    between atoms: C_7  and  C_8
REMARK    5  A    between atoms: C_9  and  C_10
REMARK    6  A    between atoms: C_20  and  C_21
REMARK    7  A    between atoms: C_24  and  C_25
REMARK    8  A    between atoms: C_27  and  C_28
REMARK                            x       y       z     vdW  Elec       q    Type
REMARK                         _______ _______ _______ _____ _____    ______ ____
ROOT
ATOM      1  C   UNL     1       1.848   7.248  19.240  0.00  0.00    +0.000 A 
ATOM      2  C   UNL     1       1.636   6.482  20.405  0.00  0.00    +0.000 A 
ATOM      3  N   UNL     1       1.159   7.251  21.425  0.00  0.00    +0.000 NA
ATOM      4  C   UNL     1       1.071   8.469  20.955  0.00  0.00    +0.000 A 
ATOM      5  C   UNL     1       0.588   9.623  21.632  0.00  0.00    +0.000 A 
ATOM      6  C   UNL     1       0.561  10.829  21.041  0.00  0.00    +0.000 A 
ATOM      7  C   UNL     1       0.046  12.045  21.759  0.00  0.00    +0.000 C 
ATOM      8  C   UNL     1       1.046  10.976  19.673  0.00  0.00    +0.000 A 
ATOM      9 BR   UNL     1       1.001  12.721  18.920  0.00  0.00    +0.000 Br
ATOM     10  C   UNL     1       1.502   9.883  18.997  0.00  0.00    +0.000 A 
ATOM     11  C   UNL     1       2.015  10.083  17.629  0.00  0.00    +0.000 C 
ATOM     12  N   UNL     1       1.506   8.585  19.620  0.00  0.00    +0.000 N 
ENDROOT
BRANCH   2  13
ATOM     13  C   UNL     1       1.724   5.014  20.564  0.00  0.00    +0.000 A 
ATOM     14  C   UNL     1       2.449   4.393  21.595  0.00  0.00    +0.000 A 
ATOM     15  C   UNL     1       2.623   3.000  21.635  0.00  0.00    +0.000 A 
ATOM     16  C   UNL     1       1.994   2.198  20.697  0.00  0.00    +0.000 A 
ATOM     17  C   UNL     1       1.175   2.791  19.732  0.00  0.00    +0.000 A 
ATOM     18 CL   UNL     1       0.329   1.786  18.624  0.00  0.00    +0.000 Cl
ATOM     19  C   UNL     1       1.047   4.183  19.663  0.00  0.00    +0.000 A 
ENDBRANCH   2  13
BRANCH   1  20
ATOM     20  C   UNL     1       2.227   6.604  17.912  0.00  0.00    +0.000 C 
BRANCH  20  24
ATOM     21  C   UNL     1       6.357   5.727  17.063  0.00  0.00    +0.000 A 
ATOM     22  C   UNL     1       5.941   7.026  17.350  0.00  0.00    +0.000 A 
ATOM     23  C   UNL     1       4.585   7.300  17.534  0.00  0.00    +0.000 A 
ATOM     24  C   UNL     1       3.632   6.266  17.502  0.00  0.00    +0.000 A 
ATOM     25  C   UNL     1       4.028   4.967  17.110  0.00  0.00    +0.000 A 
ATOM     26  C   UNL     1       3.101   3.776  17.104  0.00  0.00    +0.000 C 
ATOM     27  C   UNL     1       5.399   4.722  16.897  0.00  0.00    +0.000 A 
BRANCH  21  29
ATOM     28  C   UNL     1       8.120   4.467  18.027  0.00  0.00    +0.000 C 
ATOM     29  O   UNL     1       7.656   5.308  16.978  0.00  0.00    +0.000 OA
ENDBRANCH  21  29
ENDBRANCH  20  24
ENDBRANCH   1  20
TORSDOF 4
ENDMDL
MODEL 3
REMARK VINA RESULT:      -6.5      6.733      9.399
REMARK  Name = 
REMARK  8 active torsions:
REMARK  status: ('A' for Active; 'I' for Inactive)
REMARK    1  A    between atoms: C_1  and  O_2
REMARK    2  A    between atoms: O_2  and  C_3
REMARK    3  A    between atoms: C_6  and  C_7
REMARK    4  A    between atoms: C_7  and  C_8
REMARK    5  A    between atoms: C_9  and  C_10
REMARK    6  A    between atoms: C_20  and  C_21
REMARK    7  A    between atoms: C_24  and  C_25
REMARK    8  A    between atoms: C_27  and  C_28
REMARK                            x       y       z     vdW  Elec       q    Type
REMARK                         _______ _______ _______ _____ _____    ______ ____
ROOT
ATOM      1  C   UNL     1      -1.216  13.196  20.148  0.00  0.00    +0.000 A 
ATOM      2  C   UNL     1      -2.129  14.018  20.839  0.00  0.00    +0.000 A 
ATOM      3  N   UNL     1      -1.741  15.324  20.810  0.00  0.00    +0.000 NA
ATOM      4  C   UNL     1      -0.618  15.359  20.138  0.00  0.00    +0.000 A 
ATOM      5  C   UNL     1       0.155  16.504  19.807  0.00  0.00    +0.000 A 
ATOM      6  C   UNL     1       1.307  16.406  19.121  0.00  0.00    +0.000 A 
ATOM      7  C   UNL     1       2.119  17.621  18.770  0.00  0.00    +0.000 C 
ATOM      8  C   UNL     1       1.792  15.094  18.707  0.00  0.00    +0.000 A 
ATOM      9 BR   UNL     1       3.443  15.038  17.766  0.00  0.00    +0.000 Br
ATOM     10  C   UNL     1       1.062  13.980  19.000  0.00  0.00    +0.000 A 
ATOM     11  C   UNL     1       1.607  12.672  18.593  0.00  0.00    +0.000 C 
ATOM     12  N   UNL     1      -0.184  14.088  19.712  0.00  0.00    +0.000 N 
ENDROOT
BRANCH   2  13
ATOM     13  C   UNL     1      -3.443  13.649  21.409  0.00  0.00    +0.000 A 
ATOM     14  C   UNL     1      -4.653  13.788  20.708  0.00  0.00    +0.000 A 
ATOM     15  C   UNL     1      -5.892  13.556  21.327  0.00  0.00    +0.000 A 
ATOM     16  C   UNL     1      -5.937  13.091  22.631  0.00  0.00    +0.000 A 
ATOM     17  C   UNL     1      -4.739  12.838  23.306  0.00  0.00    +0.000 A 
ATOM     18 CL   UNL     1      -4.798  12.179  24.893  0.00  0.00    +0.000 Cl
ATOM     19  C   UNL     1      -3.507  13.120  22.704  0.00  0.00    +0.000 A 
ENDBRANCH   2  13
BRANCH   1  20
ATOM     20  C   UNL     1      -1.495  11.719  19.894  0.00  0.00    +0.000 C 
BRANCH  20  24
ATOM     21  C   UNL     1      -3.495  10.514  16.275  0.00  0.00    +0.000 A 
ATOM     22  C   UNL     1      -4.127  11.336  17.208  0.00  0.00    +0.000 A 
ATOM     23  C   UNL     1      -3.492  11.640  18.413  0.00  0.00    +0.000 A 
ATOM     24  C   UNL     1      -2.187  11.183  18.674  0.00  0.00    +0.000 A 
ATOM     25  C   UNL     1      -1.580  10.267  17.784  0.00  0.00    +0.000 A 
ATOM     26  C   UNL     1      -0.165   9.766  17.937  0.00  0.00    +0.000 C 
ATOM     27  C   UNL     1      -2.255   9.949  16.589  0.00  0.00    +0.000 A 
BRANCH  21  29
ATOM     28  C   UNL     1      -2.970   9.954  14.031  0.00  0.00    +0.000 C 
ATOM     29  O   UNL     1      -3.955  10.239  15.017  0.00  0.00    +0.000 OA
ENDBRANCH  21  29
ENDBRANCH  20  24
ENDBRANCH   1  20
TORSDOF 4
ENDMDL
MODEL 4
REMARK VINA RESULT:      -6.4      8.412     10.187
REMARK  Name = 
REMARK  8 active torsions:
REMARK  status: ('A' for Active; 'I' for Inactive)
REMARK    1  A    between atoms: C_1  and  O_2
REMARK    2  A    between atoms: O_2  and  C_3
REMARK    3  A    between atoms: C_6  and  C_7
REMARK    4  A    between atoms: C_7  and  C_8
REMARK    5  A    between atoms: C_9  and  C_10
REMARK    6  A    between atoms: C_20  and  C_21
REMARK    7  A    between atoms: C_24  and  C_25
REMARK    8  A    between atoms: C_27  and  C_28
REMARK                            x       y       z     vdW  Elec       q    Type
REMARK                         _______ _______ _______ _____ _____    ______ ____
ROOT
ATOM      1  C   UNL     1       8.215  13.828  22.497  0.00  0.00    +0.000 A 
ATOM      2  C   UNL     1       8.873  12.589  22.351  0.00  0.00    +0.000 A 
ATOM      3  N   UNL     1       8.677  11.792  23.440  0.00  0.00    +0.000 NA
ATOM      4  C   UNL     1       7.932  12.479  24.268  0.00  0.00    +0.000 A 
ATOM      5  C   UNL     1       7.428  12.058  25.529  0.00  0.00    +0.000 A 
ATOM      6  C   UNL     1       6.681  12.869  26.298  0.00  0.00    +0.000 A 
ATOM      7  C   UNL     1       6.147  12.417  27.628  0.00  0.00    +0.000 C 
ATOM      8  C   UNL     1       6.379  14.221  25.843  0.00  0.00    +0.000 A 
ATOM      9 BR   UNL     1       5.341  15.314  27.002  0.00  0.00    +0.000 Br
ATOM     10  C   UNL     1       6.839  14.646  24.632  0.00  0.00    +0.000 A 
ATOM     11  C   UNL     1       6.540  16.032  24.228  0.00  0.00    +0.000 C 
ATOM     12  N   UNL     1       7.617  13.769  23.796  0.00  0.00    +0.000 N 
ENDROOT
BRANCH   2  13
ATOM     13  C   UNL     1       9.566  12.055  21.159  0.00  0.00    +0.000 A 
ATOM     14  C   UNL     1      10.882  12.403  20.812  0.00  0.00    +0.000 A 
ATOM     15  C   UNL     1      11.459  11.984  19.602  0.00  0.00    +0.000 A 
ATOM     16  C   UNL     1      10.762  11.131  18.763  0.00  0.00    +0.000 A 
ATOM     17  C   UNL     1       9.495  10.682  19.147  0.00  0.00    +0.000 A 
ATOM     18 CL   UNL     1       8.669   9.556  18.144  0.00  0.00    +0.000 Cl
ATOM     19  C   UNL     1       8.901  11.144  20.328  0.00  0.00    +0.000 A 
ENDBRANCH   2  13
BRANCH   1  20
ATOM     20  C   UNL     1       8.142  14.838  21.358  0.00  0.00    +0.000 C 
BRANCH  20  24
ATOM     21  C   UNL     1       5.099  15.119  18.323  0.00  0.00    +0.000 A 
ATOM     22  C   UNL     1       4.780  15.234  19.675  0.00  0.00    +0.000 A 
ATOM     23  C   UNL     1       5.769  15.050  20.643  0.00  0.00    +0.000 A 
ATOM     24  C   UNL     1       7.105  14.818  20.271  0.00  0.00    +0.000 A 
ATOM     25  C   UNL     1       7.420  14.598  18.910  0.00  0.00    +0.000 A 
ATOM     26  C   UNL     1       8.826  14.404  18.398  0.00  0.00    +0.000 C 
ATOM     27  C   UNL     1       6.397  14.756  17.954  0.00  0.00    +0.000 A 
BRANCH  21  29
ATOM     28  C   UNL     1       3.254  16.374  17.516  0.00  0.00    +0.000 C 
ATOM     29  O   UNL     1       4.255  15.390  17.281  0.00  0.00    +0.000 OA
ENDBRANCH  21  29
ENDBRANCH  20  24
ENDBRANCH   1  20
TORSDOF 4
ENDMDL
MODEL 5
REMARK VINA RESULT:      -6.3      4.747      8.564
REMARK  Name = 
REMARK  8 active torsions:
REMARK  status: ('A' for Active; 'I' for Inactive)
REMARK    1  A    between atoms: C_1  and  O_2
REMARK    2  A    between atoms: O_2  and  C_3
REMARK    3  A    between atoms: C_6  and  C_7
REMARK    4  A    between atoms: C_7  and  C_8
REMARK    5  A    between atoms: C_9  and  C_10
REMARK    6  A    between atoms: C_20  and  C_21
REMARK    7  A    between atoms: C_24  and  C_25
REMARK    8  A    between atoms: C_27  and  C_28
REMARK                            x       y       z     vdW  Elec       q    Type
REMARK                         _______ _______ _______ _____ _____    ______ ____
ROOT
ATOM      1  C   UNL     1       0.037  11.026  19.749  0.00  0.00    +0.000 A 
ATOM      2  C   UNL     1      -0.698  11.050  20.952  0.00  0.00    +0.000 A 
ATOM      3  N   UNL     1      -0.490   9.919  21.683  0.00  0.00    +0.000 NA
ATOM      4  C   UNL     1       0.337   9.180  20.988  0.00  0.00    +0.000 A 
ATOM      5  C   UNL     1       0.883   7.919  21.353  0.00  0.00    +0.000 A 
ATOM      6  C   UNL     1       1.716   7.248  20.540  0.00  0.00    +0.000 A 
ATOM      7  C   UNL     1       2.294   5.916  20.932  0.00  0.00    +0.000 C 
ATOM      8  C   UNL     1       2.070   7.811  19.242  0.00  0.00    +0.000 A 
ATOM      9 BR   UNL     1       3.231   6.786  18.139  0.00  0.00    +0.000 Br
ATOM     10  C   UNL     1       1.571   9.025  18.873  0.00  0.00    +0.000 A 
ATOM     11  C   UNL     1       1.927   9.541  17.538  0.00  0.00    +0.000 C 
ATOM     12  N   UNL     1       0.699   9.757  19.755  0.00  0.00    +0.000 N 
ENDROOT
BRANCH   2  13
ATOM     13  C   UNL     1      -1.484  12.166  21.522  0.00  0.00    +0.000 A 
ATOM     14  C   UNL     1      -2.741  12.554  21.028  0.00  0.00    +0.000 A 
ATOM     15  C   UNL     1      -3.396  13.701  21.505  0.00  0.00    +0.000 A 
ATOM     16  C   UNL     1      -2.847  14.426  22.550  0.00  0.00    +0.000 A 
ATOM     17  C   UNL     1      -1.653  13.988  23.131  0.00  0.00    +0.000 A 
ATOM     18 CL   UNL     1      -1.021  14.840  24.483  0.00  0.00    +0.000 Cl
ATOM     19  C   UNL     1      -0.977  12.874  22.618  0.00  0.00    +0.000 A 
ENDBRANCH   2  13
BRANCH   1  20
ATOM     20  C   UNL     1       0.107  12.236  18.825  0.00  0.00    +0.000 C 
BRANCH  20  24
ATOM     21  C   UNL     1       3.141  15.291  18.763  0.00  0.00    +0.000 A 
ATOM     22  C   UNL     1       3.463  13.952  18.543  0.00  0.00    +0.000 A 
ATOM     23  C   UNL     1       2.477  12.971  18.656  0.00  0.00    +0.000 A 
ATOM     24  C   UNL     1       1.141  13.321  18.922  0.00  0.00    +0.000 A 
ATOM     25  C   UNL     1       0.824  14.659  19.248  0.00  0.00    +0.000 A 
ATOM     26  C   UNL     1      -0.582  15.152  19.487  0.00  0.00    +0.000 C 
ATOM     27  C   UNL     1       1.843  15.628  19.160  0.00  0.00    +0.000 A 
BRANCH  21  29
ATOM     28  C   UNL     1       5.022  16.520  19.523  0.00  0.00    +0.000 C 
ATOM     29  O   UNL     1       3.981  16.353  18.569  0.00  0.00    +0.000 OA
ENDBRANCH  21  29
ENDBRANCH  20  24
ENDBRANCH   1  20
TORSDOF 4
ENDMDL
MODEL 6
REMARK VINA RESULT:      -6.3      6.379     11.351
REMARK  Name = 
REMARK  8 active torsions:
REMARK  status: ('A' for Active; 'I' for Inactive)
REMARK    1  A    between atoms: C_1  and  O_2
REMARK    2  A    between atoms: O_2  and  C_3
REMARK    3  A    between atoms: C_6  and  C_7
REMARK    4  A    between atoms: C_7  and  C_8
REMARK    5  A    between atoms: C_9  and  C_10
REMARK    6  A    between atoms: C_20  and  C_21
REMARK    7  A    between atoms: C_24  and  C_25
REMARK    8  A    between atoms: C_27  and  C_28
REMARK                            x       y       z     vdW  Elec       q    Type
REMARK                         _______ _______ _______ _____ _____    ______ ____
ROOT
ATOM      1  C   UNL     1      -1.650  11.968  21.551  0.00  0.00    +0.000 A 
ATOM      2  C   UNL     1      -2.063  12.871  20.549  0.00  0.00    +0.000 A 
ATOM      3  N   UNL     1      -1.532  12.544  19.337  0.00  0.00    +0.000 NA
ATOM      4  C   UNL     1      -0.795  11.481  19.534  0.00  0.00    +0.000 A 
ATOM      5  C   UNL     1      -0.066  10.743  18.562  0.00  0.00    +0.000 A 
ATOM      6  C   UNL     1       0.671   9.670  18.895  0.00  0.00    +0.000 A 
ATOM      7  C   UNL     1       1.437   8.891  17.863  0.00  0.00    +0.000 C 
ATOM      8  C   UNL     1       0.742   9.245  20.289  0.00  0.00    +0.000 A 
ATOM      9 BR   UNL     1       1.829   7.736  20.681  0.00  0.00    +0.000 Br
ATOM     10  C   UNL     1       0.041   9.927  21.239  0.00  0.00    +0.000 A 
ATOM     11  C   UNL     1       0.168   9.484  22.640  0.00  0.00    +0.000 C 
ATOM     12  N   UNL     1      -0.770  11.061  20.879  0.00  0.00    +0.000 N 
ENDROOT
BRANCH   2  13
ATOM     13  C   UNL     1      -3.064  13.955  20.650  0.00  0.00    +0.000 A 
ATOM     14  C   UNL     1      -2.722  15.304  20.838  0.00  0.00    +0.000 A 
ATOM     15  C   UNL     1      -3.700  16.286  21.066  0.00  0.00    +0.000 A 
ATOM     16  C   UNL     1      -5.042  15.949  21.015  0.00  0.00    +0.000 A 
ATOM     17  C   UNL     1      -5.404  14.633  20.716  0.00  0.00    +0.000 A 
ATOM     18 CL   UNL     1      -7.070  14.237  20.568  0.00  0.00    +0.000 Cl
ATOM     19  C   UNL     1      -4.426  13.646  20.542  0.00  0.00    +0.000 A 
ENDBRANCH   2  13
BRANCH   1  20
ATOM     20  C   UNL     1      -2.225  12.014  22.961  0.00  0.00    +0.000 C 
BRANCH  20  24
ATOM     21  C   UNL     1      -2.696  15.801  24.956  0.00  0.00    +0.000 A 
ATOM     22  C   UNL     1      -1.445  15.368  24.520  0.00  0.00    +0.000 A 
ATOM     23  C   UNL     1      -1.304  14.099  23.956  0.00  0.00    +0.000 A 
ATOM     24  C   UNL     1      -2.424  13.272  23.757  0.00  0.00    +0.000 A 
ATOM     25  C   UNL     1      -3.676  13.657  24.289  0.00  0.00    +0.000 A 
ATOM     26  C   UNL     1      -4.950  12.876  24.078  0.00  0.00    +0.000 C 
ATOM     27  C   UNL     1      -3.787  14.930  24.884  0.00  0.00    +0.000 A 
BRANCH  21  29
ATOM     28  C   UNL     1      -4.093  17.712  24.804  0.00  0.00    +0.000 C 
ATOM     29  O   UNL     1      -2.988  17.057  25.413  0.00  0.00    +0.000 OA
ENDBRANCH  21  29
ENDBRANCH  20  24
ENDBRANCH   1  20
TORSDOF 4
ENDMDL
MODEL 7
REMARK VINA RESULT:      -6.3      4.910      8.821
REMARK  Name = 
REMARK  8 active torsions:
REMARK  status: ('A' for Active; 'I' for Inactive)
REMARK    1  A    between atoms: C_1  and  O_2
REMARK    2  A    between atoms: O_2  and  C_3
REMARK    3  A    between atoms: C_6  and  C_7
REMARK    4  A    between atoms: C_7  and  C_8
REMARK    5  A    between atoms: C_9  and  C_10
REMARK    6  A    between atoms: C_20  and  C_21
REMARK    7  A    between atoms: C_24  and  C_25
REMARK    8  A    between atoms: C_27  and  C_28
REMARK                            x       y       z     vdW  Elec       q    Type
REMARK                         _______ _______ _______ _____ _____    ______ ____
ROOT
ATOM      1  C   UNL     1       0.077  11.180  20.002  0.00  0.00    +0.000 A 
ATOM      2  C   UNL     1      -0.627  11.165  21.224  0.00  0.00    +0.000 A 
ATOM      3  N   UNL     1      -0.446   9.987  21.886  0.00  0.00    +0.000 NA
ATOM      4  C   UNL     1       0.334   9.257  21.129  0.00  0.00    +0.000 A 
ATOM      5  C   UNL     1       0.839   7.958  21.409  0.00  0.00    +0.000 A 
ATOM      6  C   UNL     1       1.625   7.303  20.538  0.00  0.00    +0.000 A 
ATOM      7  C   UNL     1       2.160   5.931  20.840  0.00  0.00    +0.000 C 
ATOM      8  C   UNL     1       1.969   7.925  19.264  0.00  0.00    +0.000 A 
ATOM      9 BR   UNL     1       3.061   6.920  18.076  0.00  0.00    +0.000 Br
ATOM     10  C   UNL     1       1.509   9.176  18.977  0.00  0.00    +0.000 A 
ATOM     11  C   UNL     1       1.853   9.752  17.663  0.00  0.00    +0.000 C 
ATOM     12  N   UNL     1       0.689   9.889  19.921  0.00  0.00    +0.000 N 
ENDROOT
BRANCH   2  13
ATOM     13  C   UNL     1      -1.355  12.275  21.876  0.00  0.00    +0.000 A 
ATOM     14  C   UNL     1      -0.773  13.117  22.838  0.00  0.00    +0.000 A 
ATOM     15  C   UNL     1      -1.531  14.073  23.533  0.00  0.00    +0.000 A 
ATOM     16  C   UNL     1      -2.865  14.266  23.210  0.00  0.00    +0.000 A 
ATOM     17  C   UNL     1      -3.431  13.515  22.176  0.00  0.00    +0.000 A 
ATOM     18 CL   UNL     1      -5.060  13.818  21.720  0.00  0.00    +0.000 Cl
ATOM     19  C   UNL     1      -2.686  12.527  21.521  0.00  0.00    +0.000 A 
ENDBRANCH   2  13
BRANCH   1  20
ATOM     20  C   UNL     1       0.171  12.437  19.145  0.00  0.00    +0.000 C 
BRANCH  20  24
ATOM     21  C   UNL     1       2.971  15.679  19.586  0.00  0.00    +0.000 A 
ATOM     22  C   UNL     1       3.410  14.373  19.373  0.00  0.00    +0.000 A 
ATOM     23  C   UNL     1       2.487  13.327  19.322  0.00  0.00    +0.000 A 
ATOM     24  C   UNL     1       1.106  13.581  19.414  0.00  0.00    +0.000 A 
ATOM     25  C   UNL     1       0.659  14.883  19.733  0.00  0.00    +0.000 A 
ATOM     26  C   UNL     1      -0.798  15.276  19.793  0.00  0.00    +0.000 C 
ATOM     27  C   UNL     1       1.612  15.917  19.813  0.00  0.00    +0.000 A 
BRANCH  21  29
ATOM     28  C   UNL     1       5.067  16.633  19.015  0.00  0.00    +0.000 C 
ATOM     29  O   UNL     1       3.755  16.799  19.540  0.00  0.00    +0.000 OA
ENDBRANCH  21  29
ENDBRANCH  20  24
ENDBRANCH   1  20
TORSDOF 4
ENDMDL
MODEL 8
REMARK VINA RESULT:      -6.3      8.726     10.130
REMARK  Name = 
REMARK  8 active torsions:
REMARK  status: ('A' for Active; 'I' for Inactive)
REMARK    1  A    between atoms: C_1  and  O_2
REMARK    2  A    between atoms: O_2  and  C_3
REMARK    3  A    between atoms: C_6  and  C_7
REMARK    4  A    between atoms: C_7  and  C_8
REMARK    5  A    between atoms: C_9  and  C_10
REMARK    6  A    between atoms: C_20  and  C_21
REMARK    7  A    between atoms: C_24  and  C_25
REMARK    8  A    between atoms: C_27  and  C_28
REMARK                            x       y       z     vdW  Elec       q    Type
REMARK                         _______ _______ _______ _____ _____    ______ ____
ROOT
ATOM      1  C   UNL     1       6.913  14.801  19.720  0.00  0.00    +0.000 A 
ATOM      2  C   UNL     1       7.285  14.188  18.506  0.00  0.00    +0.000 A 
ATOM      3  N   UNL     1       6.393  14.468  17.514  0.00  0.00    +0.000 NA
ATOM      4  C   UNL     1       5.470  15.222  18.054  0.00  0.00    +0.000 A 
ATOM      5  C   UNL     1       4.343  15.802  17.409  0.00  0.00    +0.000 A 
ATOM      6  C   UNL     1       3.453  16.551  18.082  0.00  0.00    +0.000 A 
ATOM      7  C   UNL     1       2.265  17.165  17.395  0.00  0.00    +0.000 C 
ATOM      8  C   UNL     1       3.629  16.776  19.512  0.00  0.00    +0.000 A 
ATOM      9 BR   UNL     1       2.310  17.822  20.395  0.00  0.00    +0.000 Br
ATOM     10  C   UNL     1       4.708  16.242  20.152  0.00  0.00    +0.000 A 
ATOM     11  C   UNL     1       4.829  16.465  21.605  0.00  0.00    +0.000 C 
ATOM     12  N   UNL     1       5.677  15.461  19.427  0.00  0.00    +0.000 N 
ENDROOT
BRANCH   2  13
ATOM     13  C   UNL     1       8.535  13.462  18.193  0.00  0.00    +0.000 A 
ATOM     14  C   UNL     1       8.627  12.060  18.172  0.00  0.00    +0.000 A 
ATOM     15  C   UNL     1       9.859  11.406  18.005  0.00  0.00    +0.000 A 
ATOM     16  C   UNL     1      11.006  12.144  17.762  0.00  0.00    +0.000 A 
ATOM     17  C   UNL     1      10.913  13.536  17.666  0.00  0.00    +0.000 A 
ATOM     18 CL   UNL     1      12.322  14.441  17.279  0.00  0.00    +0.000 Cl
ATOM     19  C   UNL     1       9.693  14.187  17.885  0.00  0.00    +0.000 A 
ENDBRANCH   2  13
BRANCH   1  20
ATOM     20  C   UNL     1       7.821  14.779  20.943  0.00  0.00    +0.000 C 
BRANCH  20  24
ATOM     21  C   UNL     1       7.039  11.994  24.134  0.00  0.00    +0.000 A 
ATOM     22  C   UNL     1       6.188  13.072  23.894  0.00  0.00    +0.000 A 
ATOM     23  C   UNL     1       6.510  14.010  22.913  0.00  0.00    +0.000 A 
ATOM     24  C   UNL     1       7.653  13.846  22.109  0.00  0.00    +0.000 A 
ATOM     25  C   UNL     1       8.574  12.818  22.411  0.00  0.00    +0.000 A 
ATOM     26  C   UNL     1       9.795  12.517  21.577  0.00  0.00    +0.000 C 
ATOM     27  C   UNL     1       8.244  11.902  23.430  0.00  0.00    +0.000 A 
BRANCH  21  29
ATOM     28  C   UNL     1       6.531  11.281  26.339  0.00  0.00    +0.000 C 
ATOM     29  O   UNL     1       6.781  10.949  24.979  0.00  0.00    +0.000 OA
ENDBRANCH  21  29
ENDBRANCH  20  24
ENDBRANCH   1  20
TORSDOF 4
ENDMDL
MODEL 9
REMARK VINA RESULT:      -6.3      4.979      8.990
REMARK  Name = 
REMARK  8 active torsions:
REMARK  status: ('A' for Active; 'I' for Inactive)
REMARK    1  A    between atoms: C_1  and  O_2
REMARK    2  A    between atoms: O_2  and  C_3
REMARK    3  A    between atoms: C_6  and  C_7
REMARK    4  A    between atoms: C_7  and  C_8
REMARK    5  A    between atoms: C_9  and  C_10
REMARK    6  A    between atoms: C_20  and  C_21
REMARK    7  A    between atoms: C_24  and  C_25
REMARK    8  A    between atoms: C_27  and  C_28
REMARK                            x       y       z     vdW  Elec       q    Type
REMARK                         _______ _______ _______ _____ _____    ______ ____
ROOT
ATOM      1  C   UNL     1      -0.263  11.691  20.704  0.00  0.00    +0.000 A 
ATOM      2  C   UNL     1      -0.912  11.472  21.937  0.00  0.00    +0.000 A 
ATOM      3  N   UNL     1      -0.678  10.213  22.404  0.00  0.00    +0.000 NA
ATOM      4  C   UNL     1       0.082   9.627  21.514  0.00  0.00    +0.000 A 
ATOM      5  C   UNL     1       0.624   8.314  21.571  0.00  0.00    +0.000 A 
ATOM      6  C   UNL     1       1.382   7.819  20.579  0.00  0.00    +0.000 A 
ATOM      7  C   UNL     1       1.957   6.431  20.647  0.00  0.00    +0.000 C 
ATOM      8  C   UNL     1       1.658   8.635  19.402  0.00  0.00    +0.000 A 
ATOM      9 BR   UNL     1       2.715   7.850  18.031  0.00  0.00    +0.000 Br
ATOM     10  C   UNL     1       1.160   9.902  19.327  0.00  0.00    +0.000 A 
ATOM     11  C   UNL     1       1.434  10.680  18.104  0.00  0.00    +0.000 C 
ATOM     12  N   UNL     1       0.370  10.443  20.402  0.00  0.00    +0.000 N 
ENDROOT
BRANCH   2  13
ATOM     13  C   UNL     1      -1.631  12.452  22.780  0.00  0.00    +0.000 A 
ATOM     14  C   UNL     1      -1.041  13.633  23.261  0.00  0.00    +0.000 A 
ATOM     15  C   UNL     1      -1.710  14.471  24.169  0.00  0.00    +0.000 A 
ATOM     16  C   UNL     1      -3.015  14.190  24.536  0.00  0.00    +0.000 A 
ATOM     17  C   UNL     1      -3.657  13.081  23.977  0.00  0.00    +0.000 A 
ATOM     18 CL   UNL     1      -5.305  12.785  24.369  0.00  0.00    +0.000 Cl
ATOM     19  C   UNL     1      -2.971  12.219  23.114  0.00  0.00    +0.000 A 
ENDBRANCH   2  13
BRANCH   1  20
ATOM     20  C   UNL     1      -0.231  13.065  20.045  0.00  0.00    +0.000 C 
BRANCH  20  24
ATOM     21  C   UNL     1       3.249  15.600  20.140  0.00  0.00    +0.000 A 
ATOM     22  C   UNL     1       3.256  14.344  20.744  0.00  0.00    +0.000 A 
ATOM     23  C   UNL     1       2.089  13.579  20.777  0.00  0.00    +0.000 A 
ATOM     24  C   UNL     1       0.916  14.029  20.145  0.00  0.00    +0.000 A 
ATOM     25  C   UNL     1       0.868  15.341  19.621  0.00  0.00    +0.000 A 
ATOM     26  C   UNL     1      -0.316  15.898  18.870  0.00  0.00    +0.000 C 
ATOM     27  C   UNL     1       2.050  16.108  19.629  0.00  0.00    +0.000 A 
BRANCH  21  29
ATOM     28  C   UNL     1       4.819  16.489  18.600  0.00  0.00    +0.000 C 
ATOM     29  O   UNL     1       4.345  16.392  19.937  0.00  0.00    +0.000 OA
ENDBRANCH  21  29
ENDBRANCH  20  24
ENDBRANCH   1  20
TORSDOF 4
ENDMDL
