MODEL 1
REMARK VINA RESULT:      -5.6      0.000      0.000
REMARK  Name = 
REMARK  9 active torsions:
REMARK  status: ('A' for Active; 'I' for Inactive)
REMARK    1  A    between atoms: C_2  and  C_3
REMARK    2  A    between atoms: C_3  and  C_4
REMARK    3  A    between atoms: C_3  and  O_5
REMARK    4  A    between atoms: C_3  and  C_6
REMARK    5  A    between atoms: C_6  and  C_7
REMARK    6  A    between atoms: C_7  and  C_8
REMARK    7  A    between atoms: C_9  and  C_10
REMARK    8  A    between atoms: C_9  and  C_11
REMARK    9  A    between atoms: C_11  and  C_12
REMARK                            x       y       z     vdW  Elec       q    Type
REMARK                         _______ _______ _______ _____ _____    ______ ____
ROOT
ATOM      1  C   UNL     1       5.926   3.904  14.991  0.00  0.00    +0.000 C 
ENDROOT
BRANCH   1   2
ATOM      2  C   UNL     1       6.632   5.098  15.673  0.00  0.00    +0.000 C 
ATOM      3  C   UNL     1       5.673   6.267  15.938  0.00  0.00    +0.000 C 
BRANCH   2   5
ATOM      4  C   UNL     1       6.709   4.752  18.205  0.00  0.00    +0.000 C 
ATOM      5  C   UNL     1       7.255   4.660  16.983  0.00  0.00    +0.000 C 
ENDBRANCH   2   5
BRANCH   2   6
ATOM      6  O   UNL     1       7.653   5.568  14.790  0.00  0.00    +0.000 OA
ATOM      7  H   UNL     1       8.445   5.728  15.331  0.00  0.00    +0.000 HD
ENDBRANCH   2   6
ENDBRANCH   1   2
BRANCH   1   8
ATOM      8  C   UNL     1       6.179   3.873  13.478  0.00  0.00    +0.000 C 
BRANCH   8   9
ATOM      9  C   UNL     1       4.943   3.803  12.627  0.00  0.00    +0.000 C 
ATOM     10  C   UNL     1       4.763   2.883  11.655  0.00  0.00    +0.000 C 
ATOM     11  C   UNL     1       5.782   1.816  11.330  0.00  0.00    +0.000 C 
BRANCH  10  12
ATOM     12  C   UNL     1       3.525   2.894  10.785  0.00  0.00    +0.000 C 
ATOM     13  C   UNL     1       3.332   4.201  10.029  0.00  0.00    +0.000 C 
ENDBRANCH  10  12
ENDBRANCH   8   9
ENDBRANCH   1   8
TORSDOF 6
ENDMDL
MODEL 2
REMARK VINA RESULT:      -5.6      3.579      5.393
REMARK  Name = 
REMARK  9 active torsions:
REMARK  status: ('A' for Active; 'I' for Inactive)
REMARK    1  A    between atoms: C_2  and  C_3
REMARK    2  A    between atoms: C_3  and  C_4
REMARK    3  A    between atoms: C_3  and  O_5
REMARK    4  A    between atoms: C_3  and  C_6
REMARK    5  A    between atoms: C_6  and  C_7
REMARK    6  A    between atoms: C_7  and  C_8
REMARK    7  A    between atoms: C_9  and  C_10
REMARK    8  A    between atoms: C_9  and  C_11
REMARK    9  A    between atoms: C_11  and  C_12
REMARK                            x       y       z     vdW  Elec       q    Type
REMARK                         _______ _______ _______ _____ _____    ______ ____
ROOT
ATOM      1  C   UNL     1       5.785   4.348  17.664  0.00  0.00    +0.000 C 
ENDROOT
BRANCH   1   2
ATOM      2  C   UNL     1       7.008   4.847  16.859  0.00  0.00    +0.000 C 
ATOM      3  C   UNL     1       6.855   4.595  15.353  0.00  0.00    +0.000 C 
BRANCH   2   5
ATOM      4  C   UNL     1       7.761   6.900  18.184  0.00  0.00    +0.000 C 
ATOM      5  C   UNL     1       7.223   6.327  17.096  0.00  0.00    +0.000 C 
ENDBRANCH   2   5
BRANCH   2   6
ATOM      6  O   UNL     1       8.154   4.119  17.305  0.00  0.00    +0.000 OA
ATOM      7  H   UNL     1       8.224   3.327  16.744  0.00  0.00    +0.000 HD
ENDBRANCH   2   6
ENDBRANCH   1   2
BRANCH   1   8
ATOM      8  C   UNL     1       4.507   4.329  16.816  0.00  0.00    +0.000 C 
BRANCH   8   9
ATOM      9  C   UNL     1       3.231   4.534  17.583  0.00  0.00    +0.000 C 
ATOM     10  C   UNL     1       2.467   3.517  18.035  0.00  0.00    +0.000 C 
ATOM     11  C   UNL     1       2.821   2.063  17.829  0.00  0.00    +0.000 C 
BRANCH  10  12
ATOM     12  C   UNL     1       1.159   3.778  18.750  0.00  0.00    +0.000 C 
ATOM     13  C   UNL     1       1.149   3.282  20.190  0.00  0.00    +0.000 C 
ENDBRANCH  10  12
ENDBRANCH   8   9
ENDBRANCH   1   8
TORSDOF 6
ENDMDL
MODEL 3
REMARK VINA RESULT:      -5.4      1.572      2.348
REMARK  Name = 
REMARK  9 active torsions:
REMARK  status: ('A' for Active; 'I' for Inactive)
REMARK    1  A    between atoms: C_2  and  C_3
REMARK    2  A    between atoms: C_3  and  C_4
REMARK    3  A    between atoms: C_3  and  O_5
REMARK    4  A    between atoms: C_3  and  C_6
REMARK    5  A    between atoms: C_6  and  C_7
REMARK    6  A    between atoms: C_7  and  C_8
REMARK    7  A    between atoms: C_9  and  C_10
REMARK    8  A    between atoms: C_9  and  C_11
REMARK    9  A    between atoms: C_11  and  C_12
REMARK                            x       y       z     vdW  Elec       q    Type
REMARK                         _______ _______ _______ _____ _____    ______ ____
ROOT
ATOM      1  C   UNL     1       7.248   4.727  15.941  0.00  0.00    +0.000 C 
ENDROOT
BRANCH   1   2
ATOM      2  C   UNL     1       7.004   5.079  17.427  0.00  0.00    +0.000 C 
ATOM      3  C   UNL     1       7.357   6.539  17.744  0.00  0.00    +0.000 C 
BRANCH   2   5
ATOM      4  C   UNL     1       5.102   4.155  18.864  0.00  0.00    +0.000 C 
ATOM      5  C   UNL     1       5.557   4.827  17.794  0.00  0.00    +0.000 C 
ENDBRANCH   2   5
BRANCH   2   6
ATOM      6  O   UNL     1       7.853   4.248  18.221  0.00  0.00    +0.000 OA
ATOM      7  H   UNL     1       7.915   3.390  17.768  0.00  0.00    +0.000 HD
ENDBRANCH   2   6
ENDBRANCH   1   2
BRANCH   1   8
ATOM      8  C   UNL     1       6.074   5.150  15.049  0.00  0.00    +0.000 C 
BRANCH   8   9
ATOM      9  C   UNL     1       5.610   4.107  14.071  0.00  0.00    +0.000 C 
ATOM     10  C   UNL     1       6.209   3.890  12.880  0.00  0.00    +0.000 C 
ATOM     11  C   UNL     1       7.418   4.664  12.411  0.00  0.00    +0.000 C 
BRANCH  10  12
ATOM     12  C   UNL     1       5.665   2.869  11.905  0.00  0.00    +0.000 C 
ATOM     13  C   UNL     1       4.260   3.193  11.414  0.00  0.00    +0.000 C 
ENDBRANCH  10  12
ENDBRANCH   8   9
ENDBRANCH   1   8
TORSDOF 6
ENDMDL
MODEL 4
REMARK VINA RESULT:      -5.3      4.119      5.721
REMARK  Name = 
REMARK  9 active torsions:
REMARK  status: ('A' for Active; 'I' for Inactive)
REMARK    1  A    between atoms: C_2  and  C_3
REMARK    2  A    between atoms: C_3  and  C_4
REMARK    3  A    between atoms: C_3  and  O_5
REMARK    4  A    between atoms: C_3  and  C_6
REMARK    5  A    between atoms: C_6  and  C_7
REMARK    6  A    between atoms: C_7  and  C_8
REMARK    7  A    between atoms: C_9  and  C_10
REMARK    8  A    between atoms: C_9  and  C_11
REMARK    9  A    between atoms: C_11  and  C_12
REMARK                            x       y       z     vdW  Elec       q    Type
REMARK                         _______ _______ _______ _____ _____    ______ ____
ROOT
ATOM      1  C   UNL     1       5.868   4.434  17.939  0.00  0.00    +0.000 C 
ENDROOT
BRANCH   1   2
ATOM      2  C   UNL     1       7.205   4.985  17.392  0.00  0.00    +0.000 C 
ATOM      3  C   UNL     1       7.153   5.238  15.879  0.00  0.00    +0.000 C 
BRANCH   2   5
ATOM      4  C   UNL     1       7.649   7.498  17.554  0.00  0.00    +0.000 C 
ATOM      5  C   UNL     1       7.570   6.274  18.099  0.00  0.00    +0.000 C 
ENDBRANCH   2   5
BRANCH   2   6
ATOM      6  O   UNL     1       8.216   4.004  17.631  0.00  0.00    +0.000 OA
ATOM      7  H   UNL     1       8.730   4.307  18.398  0.00  0.00    +0.000 HD
ENDBRANCH   2   6
ENDBRANCH   1   2
BRANCH   1   8
ATOM      8  C   UNL     1       4.664   4.932  17.128  0.00  0.00    +0.000 C 
BRANCH   8   9
ATOM      9  C   UNL     1       4.031   6.195  17.640  0.00  0.00    +0.000 C 
ATOM     10  C   UNL     1       2.896   6.212  18.370  0.00  0.00    +0.000 C 
ATOM     11  C   UNL     1       2.148   4.959  18.763  0.00  0.00    +0.000 C 
BRANCH  10  12
ATOM     12  C   UNL     1       2.266   7.516  18.809  0.00  0.00    +0.000 C 
ATOM     13  C   UNL     1       2.312   8.598  17.739  0.00  0.00    +0.000 C 
ENDBRANCH  10  12
ENDBRANCH   8   9
ENDBRANCH   1   8
TORSDOF 6
ENDMDL
MODEL 5
REMARK VINA RESULT:      -5.3      3.971      6.337
REMARK  Name = 
REMARK  9 active torsions:
REMARK  status: ('A' for Active; 'I' for Inactive)
REMARK    1  A    between atoms: C_2  and  C_3
REMARK    2  A    between atoms: C_3  and  C_4
REMARK    3  A    between atoms: C_3  and  O_5
REMARK    4  A    between atoms: C_3  and  C_6
REMARK    5  A    between atoms: C_6  and  C_7
REMARK    6  A    between atoms: C_7  and  C_8
REMARK    7  A    between atoms: C_9  and  C_10
REMARK    8  A    between atoms: C_9  and  C_11
REMARK    9  A    between atoms: C_11  and  C_12
REMARK                            x       y       z     vdW  Elec       q    Type
REMARK                         _______ _______ _______ _____ _____    ______ ____
ROOT
ATOM      1  C   UNL     1       4.708   5.681  17.823  0.00  0.00    +0.000 C 
ENDROOT
BRANCH   1   2
ATOM      2  C   UNL     1       5.873   4.752  17.409  0.00  0.00    +0.000 C 
ATOM      3  C   UNL     1       5.555   3.953  16.138  0.00  0.00    +0.000 C 
BRANCH   2   5
ATOM      4  C   UNL     1       7.382   6.805  17.623  0.00  0.00    +0.000 C 
ATOM      5  C   UNL     1       7.134   5.561  17.184  0.00  0.00    +0.000 C 
ENDBRANCH   2   5
BRANCH   2   6
ATOM      6  O   UNL     1       6.087   3.815  18.466  0.00  0.00    +0.000 OA
ATOM      7  H   UNL     1       5.264   3.308  18.567  0.00  0.00    +0.000 HD
ENDBRANCH   2   6
ENDBRANCH   1   2
BRANCH   1   8
ATOM      8  C   UNL     1       3.339   5.058  17.520  0.00  0.00    +0.000 C 
BRANCH   8   9
ATOM      9  C   UNL     1       2.418   4.941  18.701  0.00  0.00    +0.000 C 
ATOM     10  C   UNL     1       1.996   3.757  19.197  0.00  0.00    +0.000 C 
ATOM     11  C   UNL     1       2.418   2.425  18.623  0.00  0.00    +0.000 C 
BRANCH  10  12
ATOM     12  C   UNL     1       1.019   3.695  20.351  0.00  0.00    +0.000 C 
ATOM     13  C   UNL     1       1.450   2.738  21.453  0.00  0.00    +0.000 C 
ENDBRANCH  10  12
ENDBRANCH   8   9
ENDBRANCH   1   8
TORSDOF 6
ENDMDL
MODEL 6
REMARK VINA RESULT:      -5.3      3.579      5.441
REMARK  Name = 
REMARK  9 active torsions:
REMARK  status: ('A' for Active; 'I' for Inactive)
REMARK    1  A    between atoms: C_2  and  C_3
REMARK    2  A    between atoms: C_3  and  C_4
REMARK    3  A    between atoms: C_3  and  O_5
REMARK    4  A    between atoms: C_3  and  C_6
REMARK    5  A    between atoms: C_6  and  C_7
REMARK    6  A    between atoms: C_7  and  C_8
REMARK    7  A    between atoms: C_9  and  C_10
REMARK    8  A    between atoms: C_9  and  C_11
REMARK    9  A    between atoms: C_11  and  C_12
REMARK                            x       y       z     vdW  Elec       q    Type
REMARK                         _______ _______ _______ _____ _____    ______ ____
ROOT
ATOM      1  C   UNL     1       5.763   4.332  17.648  0.00  0.00    +0.000 C 
ENDROOT
BRANCH   1   2
ATOM      2  C   UNL     1       7.006   4.814  16.864  0.00  0.00    +0.000 C 
ATOM      3  C   UNL     1       6.880   4.555  15.357  0.00  0.00    +0.000 C 
BRANCH   2   5
ATOM      4  C   UNL     1       6.291   7.227  17.314  0.00  0.00    +0.000 C 
ATOM      5  C   UNL     1       7.230   6.294  17.097  0.00  0.00    +0.000 C 
ENDBRANCH   2   5
BRANCH   2   6
ATOM      6  O   UNL     1       8.136   4.078  17.336  0.00  0.00    +0.000 OA
ATOM      7  H   UNL     1       7.895   3.710  18.203  0.00  0.00    +0.000 HD
ENDBRANCH   2   6
ENDBRANCH   1   2
BRANCH   1   8
ATOM      8  C   UNL     1       4.561   4.087  16.726  0.00  0.00    +0.000 C 
BRANCH   8   9
ATOM      9  C   UNL     1       3.453   3.270  17.329  0.00  0.00    +0.000 C 
ATOM     10  C   UNL     1       2.348   3.814  17.883  0.00  0.00    +0.000 C 
ATOM     11  C   UNL     1       2.103   5.303  17.942  0.00  0.00    +0.000 C 
BRANCH  10  12
ATOM     12  C   UNL     1       1.289   2.949  18.531  0.00  0.00    +0.000 C 
ATOM     13  C   UNL     1       1.532   2.710  20.015  0.00  0.00    +0.000 C 
ENDBRANCH  10  12
ENDBRANCH   8   9
ENDBRANCH   1   8
TORSDOF 6
ENDMDL
MODEL 7
REMARK VINA RESULT:      -5.3      3.880      6.452
REMARK  Name = 
REMARK  9 active torsions:
REMARK  status: ('A' for Active; 'I' for Inactive)
REMARK    1  A    between atoms: C_2  and  C_3
REMARK    2  A    between atoms: C_3  and  C_4
REMARK    3  A    between atoms: C_3  and  O_5
REMARK    4  A    between atoms: C_3  and  C_6
REMARK    5  A    between atoms: C_6  and  C_7
REMARK    6  A    between atoms: C_7  and  C_8
REMARK    7  A    between atoms: C_9  and  C_10
REMARK    8  A    between atoms: C_9  and  C_11
REMARK    9  A    between atoms: C_11  and  C_12
REMARK                            x       y       z     vdW  Elec       q    Type
REMARK                         _______ _______ _______ _____ _____    ______ ____
ROOT
ATOM      1  C   UNL     1       5.093   5.966  17.919  0.00  0.00    +0.000 C 
ENDROOT
BRANCH   1   2
ATOM      2  C   UNL     1       5.793   4.729  17.309  0.00  0.00    +0.000 C 
ATOM      3  C   UNL     1       4.811   3.810  16.572  0.00  0.00    +0.000 C 
BRANCH   2   5
ATOM      4  C   UNL     1       6.996   4.829  15.055  0.00  0.00    +0.000 C 
ATOM      5  C   UNL     1       6.882   5.164  16.350  0.00  0.00    +0.000 C 
ENDBRANCH   2   5
BRANCH   2   6
ATOM      6  O   UNL     1       6.369   3.978  18.379  0.00  0.00    +0.000 OA
ATOM      7  H   UNL     1       6.353   4.547  19.168  0.00  0.00    +0.000 HD
ENDBRANCH   2   6
ENDBRANCH   1   2
BRANCH   1   8
ATOM      8  C   UNL     1       3.565   5.868  17.824  0.00  0.00    +0.000 C 
BRANCH   8   9
ATOM      9  C   UNL     1       2.865   5.563  19.118  0.00  0.00    +0.000 C 
ATOM     10  C   UNL     1       1.910   4.617  19.239  0.00  0.00    +0.000 C 
ATOM     11  C   UNL     1       1.453   3.754  18.086  0.00  0.00    +0.000 C 
BRANCH  10  12
ATOM     12  C   UNL     1       1.192   4.391  20.552  0.00  0.00    +0.000 C 
ATOM     13  C   UNL     1       1.410   2.998  21.125  0.00  0.00    +0.000 C 
ENDBRANCH  10  12
ENDBRANCH   8   9
ENDBRANCH   1   8
TORSDOF 6
ENDMDL
MODEL 8
REMARK VINA RESULT:      -5.3      4.451      5.334
REMARK  Name = 
REMARK  9 active torsions:
REMARK  status: ('A' for Active; 'I' for Inactive)
REMARK    1  A    between atoms: C_2  and  C_3
REMARK    2  A    between atoms: C_3  and  C_4
REMARK    3  A    between atoms: C_3  and  O_5
REMARK    4  A    between atoms: C_3  and  C_6
REMARK    5  A    between atoms: C_6  and  C_7
REMARK    6  A    between atoms: C_7  and  C_8
REMARK    7  A    between atoms: C_9  and  C_10
REMARK    8  A    between atoms: C_9  and  C_11
REMARK    9  A    between atoms: C_11  and  C_12
REMARK                            x       y       z     vdW  Elec       q    Type
REMARK                         _______ _______ _______ _____ _____    ______ ____
ROOT
ATOM      1  C   UNL     1       6.585   4.594  17.518  0.00  0.00    +0.000 C 
ENDROOT
BRANCH   1   2
ATOM      2  C   UNL     1       6.743   6.002  16.899  0.00  0.00    +0.000 C 
ATOM      3  C   UNL     1       5.396   6.610  16.486  0.00  0.00    +0.000 C 
BRANCH   2   5
ATOM      4  C   UNL     1       7.876   8.173  17.636  0.00  0.00    +0.000 C 
ATOM      5  C   UNL     1       7.428   6.932  17.880  0.00  0.00    +0.000 C 
ENDBRANCH   2   5
BRANCH   2   6
ATOM      6  O   UNL     1       7.541   5.878  15.720  0.00  0.00    +0.000 OA
ATOM      7  H   UNL     1       6.931   5.859  14.964  0.00  0.00    +0.000 HD
ENDBRANCH   2   6
ENDBRANCH   1   2
BRANCH   1   8
ATOM      8  C   UNL     1       5.441   4.538  18.538  0.00  0.00    +0.000 C 
BRANCH   8   9
ATOM      9  C   UNL     1       4.486   3.391  18.361  0.00  0.00    +0.000 C 
ATOM     10  C   UNL     1       3.160   3.554  18.168  0.00  0.00    +0.000 C 
ATOM     11  C   UNL     1       2.497   4.909  18.094  0.00  0.00    +0.000 C 
BRANCH  10  12
ATOM     12  C   UNL     1       2.233   2.363  18.056  0.00  0.00    +0.000 C 
ATOM     13  C   UNL     1       0.897   2.572  18.757  0.00  0.00    +0.000 C 
ENDBRANCH  10  12
ENDBRANCH   8   9
ENDBRANCH   1   8
TORSDOF 6
ENDMDL
MODEL 9
REMARK VINA RESULT:      -5.3      4.053      5.725
REMARK  Name = 
REMARK  9 active torsions:
REMARK  status: ('A' for Active; 'I' for Inactive)
REMARK    1  A    between atoms: C_2  and  C_3
REMARK    2  A    between atoms: C_3  and  C_4
REMARK    3  A    between atoms: C_3  and  O_5
REMARK    4  A    between atoms: C_3  and  C_6
REMARK    5  A    between atoms: C_6  and  C_7
REMARK    6  A    between atoms: C_7  and  C_8
REMARK    7  A    between atoms: C_9  and  C_10
REMARK    8  A    between atoms: C_9  and  C_11
REMARK    9  A    between atoms: C_11  and  C_12
REMARK                            x       y       z     vdW  Elec       q    Type
REMARK                         _______ _______ _______ _____ _____    ______ ____
ROOT
ATOM      1  C   UNL     1       3.233   4.530  18.548  0.00  0.00    +0.000 C 
ENDROOT
BRANCH   1   2
ATOM      2  C   UNL     1       1.956   3.665  18.433  0.00  0.00    +0.000 C 
ATOM      3  C   UNL     1       2.277   2.181  18.215  0.00  0.00    +0.000 C 
BRANCH   2   5
ATOM      4  C   UNL     1       1.365   3.294  20.893  0.00  0.00    +0.000 C 
ATOM      5  C   UNL     1       1.110   3.812  19.682  0.00  0.00    +0.000 C 
ENDBRANCH   2   5
BRANCH   2   6
ATOM      6  O   UNL     1       1.218   4.120  17.298  0.00  0.00    +0.000 OA
ATOM      7  H   UNL     1       1.734   3.884  16.509  0.00  0.00    +0.000 HD
ENDBRANCH   2   6
ENDBRANCH   1   2
BRANCH   1   8
ATOM      8  C   UNL     1       4.496   3.744  18.175  0.00  0.00    +0.000 C 
BRANCH   8   9
ATOM      9  C   UNL     1       5.014   3.994  16.786  0.00  0.00    +0.000 C 
ATOM     10  C   UNL     1       6.278   4.390  16.527  0.00  0.00    +0.000 C 
ATOM     11  C   UNL     1       7.312   4.610  17.606  0.00  0.00    +0.000 C 
BRANCH  10  12
ATOM     12  C   UNL     1       6.732   4.686  15.114  0.00  0.00    +0.000 C 
ATOM     13  C   UNL     1       5.789   4.141  14.051  0.00  0.00    +0.000 C 
ENDBRANCH  10  12
ENDBRANCH   8   9
ENDBRANCH   1   8
TORSDOF 6
ENDMDL
