MODEL 1
REMARK VINA RESULT:      -9.3      0.000      0.000
REMARK  Name = 
REMARK  4 active torsions:
REMARK  status: ('A' for Active; 'I' for Inactive)
REMARK    1  A    between atoms: C_2  and  C_5
REMARK    2  A    between atoms: N_3  and  O_4
REMARK    3  A    between atoms: N_9  and  S_10
REMARK    4  A    between atoms: S_10  and  C_13
REMARK                            x       y       z     vdW  Elec       q    Type
REMARK                         _______ _______ _______ _____ _____    ______ ____
ROOT
ATOM      1  C   UNL     1       5.219   5.619  18.073  0.00  0.00    +0.000 C 
ATOM      2  C   UNL     1       3.774   5.178  18.301  0.00  0.00    +0.000 C 
ATOM      3  C   UNL     1       3.693   3.781  17.674  0.00  0.00    +0.000 C 
ATOM      4  C   UNL     1       4.724   3.856  16.508  0.00  0.00    +0.000 C 
ATOM      5  N   UNL     1       5.515   5.103  16.721  0.00  0.00    +0.000 NA
ATOM      6  O   UNL     1       2.409   3.512  17.113  0.00  0.00    +0.000 OA
ATOM      7  C   UNL     1       1.398   3.309  18.092  0.00  0.00    +0.000 C 
ATOM      8  C   UNL     1       1.796   2.187  19.030  0.00  0.00    +0.000 C 
ATOM      9  C   UNL     1       3.168   2.476  19.607  0.00  0.00    +0.000 C 
ATOM     10  O   UNL     1       4.106   2.751  18.570  0.00  0.00    +0.000 OA
ENDROOT
BRANCH   1  12
ATOM     11  O   UNL     1       5.781   4.362  20.053  0.00  0.00    +0.000 OA
ATOM     12  C   UNL     1       6.115   5.237  19.250  0.00  0.00    +0.000 C 
ATOM     13  N   UNL     1       7.353   5.828  19.329  0.00  0.00    +0.000 N 
ATOM     14  H   UNL     1       7.518   6.768  18.966  0.00  0.00    +0.000 HD
BRANCH  13  15
ATOM     15  O   UNL     1       8.099   5.498  20.491  0.00  0.00    +0.000 OA
ATOM     16  H   UNL     1       7.709   4.638  20.758  0.00  0.00    +0.000 HD
ENDBRANCH  13  15
ENDBRANCH   1  12
BRANCH   5  17
ATOM     17  S   UNL     1       7.103   5.182  16.177  0.00  0.00    +0.000 S 
ATOM     18  O   UNL     1       7.527   6.561  16.268  0.00  0.00    +0.000 OA
ATOM     19  O   UNL     1       7.814   4.127  16.866  0.00  0.00    +0.000 OA
BRANCH  17  20
ATOM     20  C   UNL     1       6.966   4.767  14.462  0.00  0.00    +0.000 A 
ATOM     21  C   UNL     1       7.809   5.399  13.541  0.00  0.00    +0.000 A 
ATOM     22  C   UNL     1       7.719   5.069  12.189  0.00  0.00    +0.000 A 
ATOM     23  C   UNL     1       6.801   4.107  11.764  0.00  0.00    +0.000 A 
ATOM     24  C   UNL     1       5.977   3.464  12.690  0.00  0.00    +0.000 A 
ATOM     25  C   UNL     1       6.058   3.791  14.045  0.00  0.00    +0.000 A 
ENDBRANCH  17  20
ENDBRANCH   5  17
TORSDOF 4
ENDMDL
MODEL 2
REMARK VINA RESULT:      -9.3      0.036      1.012
REMARK  Name = 
REMARK  4 active torsions:
REMARK  status: ('A' for Active; 'I' for Inactive)
REMARK    1  A    between atoms: C_2  and  C_5
REMARK    2  A    between atoms: N_3  and  O_4
REMARK    3  A    between atoms: N_9  and  S_10
REMARK    4  A    between atoms: S_10  and  C_13
REMARK                            x       y       z     vdW  Elec       q    Type
REMARK                         _______ _______ _______ _____ _____    ______ ____
ROOT
ATOM      1  C   UNL     1       5.205   5.617  18.054  0.00  0.00    +0.000 C 
ATOM      2  C   UNL     1       3.760   5.171  18.272  0.00  0.00    +0.000 C 
ATOM      3  C   UNL     1       3.691   3.770  17.652  0.00  0.00    +0.000 C 
ATOM      4  C   UNL     1       4.730   3.845  16.494  0.00  0.00    +0.000 C 
ATOM      5  N   UNL     1       5.514   5.096  16.707  0.00  0.00    +0.000 NA
ATOM      6  O   UNL     1       2.412   3.493  17.082  0.00  0.00    +0.000 OA
ATOM      7  C   UNL     1       1.395   3.290  18.054  0.00  0.00    +0.000 C 
ATOM      8  C   UNL     1       1.789   2.174  19.001  0.00  0.00    +0.000 C 
ATOM      9  C   UNL     1       3.156   2.472  19.587  0.00  0.00    +0.000 C 
ATOM     10  O   UNL     1       4.101   2.747  18.556  0.00  0.00    +0.000 OA
ENDROOT
BRANCH   1  12
ATOM     11  O   UNL     1       5.747   4.387  20.056  0.00  0.00    +0.000 OA
ATOM     12  C   UNL     1       6.092   5.245  19.240  0.00  0.00    +0.000 C 
ATOM     13  N   UNL     1       7.337   5.823  19.313  0.00  0.00    +0.000 N 
ATOM     14  H   UNL     1       7.514   6.755  18.935  0.00  0.00    +0.000 HD
BRANCH  13  15
ATOM     15  O   UNL     1       8.076   5.504  20.482  0.00  0.00    +0.000 OA
ATOM     16  H   UNL     1       7.413   5.035  21.032  0.00  0.00    +0.000 HD
ENDBRANCH  13  15
ENDBRANCH   1  12
BRANCH   5  17
ATOM     17  S   UNL     1       7.106   5.179  16.176  0.00  0.00    +0.000 S 
ATOM     18  O   UNL     1       7.518   6.563  16.251  0.00  0.00    +0.000 OA
ATOM     19  O   UNL     1       7.819   4.139  16.884  0.00  0.00    +0.000 OA
BRANCH  17  20
ATOM     20  C   UNL     1       6.986   4.740  14.465  0.00  0.00    +0.000 A 
ATOM     21  C   UNL     1       6.043   3.784  14.074  0.00  0.00    +0.000 A 
ATOM     22  C   UNL     1       5.930   3.441  12.726  0.00  0.00    +0.000 A 
ATOM     23  C   UNL     1       6.747   4.058  11.778  0.00  0.00    +0.000 A 
ATOM     24  C   UNL     1       7.672   5.027  12.171  0.00  0.00    +0.000 A 
ATOM     25  C   UNL     1       7.794   5.375  13.518  0.00  0.00    +0.000 A 
ENDBRANCH  17  20
ENDBRANCH   5  17
TORSDOF 4
ENDMDL
MODEL 3
REMARK VINA RESULT:      -8.3      2.004      5.858
REMARK  Name = 
REMARK  4 active torsions:
REMARK  status: ('A' for Active; 'I' for Inactive)
REMARK    1  A    between atoms: C_2  and  C_5
REMARK    2  A    between atoms: N_3  and  O_4
REMARK    3  A    between atoms: N_9  and  S_10
REMARK    4  A    between atoms: S_10  and  C_13
REMARK                            x       y       z     vdW  Elec       q    Type
REMARK                         _______ _______ _______ _____ _____    ______ ____
ROOT
ATOM      1  C   UNL     1       6.057   4.131  17.261  0.00  0.00    +0.000 C 
ATOM      2  C   UNL     1       6.363   3.601  15.861  0.00  0.00    +0.000 C 
ATOM      3  C   UNL     1       5.769   4.650  14.913  0.00  0.00    +0.000 C 
ATOM      4  C   UNL     1       4.553   5.203  15.715  0.00  0.00    +0.000 C 
ATOM      5  N   UNL     1       4.702   4.702  17.112  0.00  0.00    +0.000 NA
ATOM      6  O   UNL     1       5.275   4.070  13.705  0.00  0.00    +0.000 OA
ATOM      7  C   UNL     1       6.305   3.628  12.832  0.00  0.00    +0.000 C 
ATOM      8  C   UNL     1       7.245   4.771  12.508  0.00  0.00    +0.000 C 
ATOM      9  C   UNL     1       7.750   5.389  13.798  0.00  0.00    +0.000 C 
ATOM     10  O   UNL     1       6.664   5.729  14.656  0.00  0.00    +0.000 OA
ENDROOT
BRANCH   1  12
ATOM     11  O   UNL     1       8.196   4.493  18.314  0.00  0.00    +0.000 OA
ATOM     12  C   UNL     1       7.197   4.996  17.795  0.00  0.00    +0.000 C 
ATOM     13  N   UNL     1       7.122   6.352  17.586  0.00  0.00    +0.000 N 
ATOM     14  H   UNL     1       6.223   6.833  17.531  0.00  0.00    +0.000 HD
BRANCH  13  15
ATOM     15  O   UNL     1       8.165   7.107  18.182  0.00  0.00    +0.000 OA
ATOM     16  H   UNL     1       8.358   7.782  17.498  0.00  0.00    +0.000 HD
ENDBRANCH  13  15
ENDBRANCH   1  12
BRANCH   5  17
ATOM     17  S   UNL     1       4.082   5.602  18.388  0.00  0.00    +0.000 S 
ATOM     18  O   UNL     1       5.088   5.638  19.426  0.00  0.00    +0.000 OA
ATOM     19  O   UNL     1       3.557   6.816  17.804  0.00  0.00    +0.000 OA
BRANCH  17  20
ATOM     20  C   UNL     1       2.737   4.608  18.969  0.00  0.00    +0.000 A 
ATOM     21  C   UNL     1       2.113   3.725  18.082  0.00  0.00    +0.000 A 
ATOM     22  C   UNL     1       1.061   2.926  18.533  0.00  0.00    +0.000 A 
ATOM     23  C   UNL     1       0.647   3.004  19.864  0.00  0.00    +0.000 A 
ATOM     24  C   UNL     1       1.288   3.872  20.751  0.00  0.00    +0.000 A 
ATOM     25  C   UNL     1       2.339   4.676  20.307  0.00  0.00    +0.000 A 
ENDBRANCH  17  20
ENDBRANCH   5  17
TORSDOF 4
ENDMDL
MODEL 4
REMARK VINA RESULT:      -8.3      1.996      5.852
REMARK  Name = 
REMARK  4 active torsions:
REMARK  status: ('A' for Active; 'I' for Inactive)
REMARK    1  A    between atoms: C_2  and  C_5
REMARK    2  A    between atoms: N_3  and  O_4
REMARK    3  A    between atoms: N_9  and  S_10
REMARK    4  A    between atoms: S_10  and  C_13
REMARK                            x       y       z     vdW  Elec       q    Type
REMARK                         _______ _______ _______ _____ _____    ______ ____
ROOT
ATOM      1  C   UNL     1       6.076   4.082  17.228  0.00  0.00    +0.000 C 
ATOM      2  C   UNL     1       6.382   3.562  15.824  0.00  0.00    +0.000 C 
ATOM      3  C   UNL     1       5.775   4.609  14.883  0.00  0.00    +0.000 C 
ATOM      4  C   UNL     1       4.556   5.146  15.692  0.00  0.00    +0.000 C 
ATOM      5  N   UNL     1       4.715   4.640  17.086  0.00  0.00    +0.000 NA
ATOM      6  O   UNL     1       5.283   4.030  13.675  0.00  0.00    +0.000 OA
ATOM      7  C   UNL     1       6.315   3.602  12.796  0.00  0.00    +0.000 C 
ATOM      8  C   UNL     1       7.243   4.757  12.474  0.00  0.00    +0.000 C 
ATOM      9  C   UNL     1       7.745   5.374  13.766  0.00  0.00    +0.000 C 
ATOM     10  O   UNL     1       6.658   5.699  14.629  0.00  0.00    +0.000 OA
ENDROOT
BRANCH   1  12
ATOM     11  O   UNL     1       8.204   4.462  18.298  0.00  0.00    +0.000 OA
ATOM     12  C   UNL     1       7.209   4.956  17.762  0.00  0.00    +0.000 C 
ATOM     13  N   UNL     1       7.133   6.310  17.535  0.00  0.00    +0.000 N 
ATOM     14  H   UNL     1       6.234   6.788  17.465  0.00  0.00    +0.000 HD
BRANCH  13  15
ATOM     15  O   UNL     1       8.169   7.074  18.132  0.00  0.00    +0.000 OA
ATOM     16  H   UNL     1       7.759   7.372  18.972  0.00  0.00    +0.000 HD
ENDBRANCH  13  15
ENDBRANCH   1  12
BRANCH   5  17
ATOM     17  S   UNL     1       4.090   5.528  18.369  0.00  0.00    +0.000 S 
ATOM     18  O   UNL     1       5.096   5.563  19.406  0.00  0.00    +0.000 OA
ATOM     19  O   UNL     1       3.558   6.743  17.792  0.00  0.00    +0.000 OA
BRANCH  17  20
ATOM     20  C   UNL     1       2.752   4.522  18.943  0.00  0.00    +0.000 A 
ATOM     21  C   UNL     1       2.313   4.666  20.264  0.00  0.00    +0.000 A 
ATOM     22  C   UNL     1       1.249   3.888  20.723  0.00  0.00    +0.000 A 
ATOM     23  C   UNL     1       0.624   2.984  19.864  0.00  0.00    +0.000 A 
ATOM     24  C   UNL     1       1.052   2.859  18.541  0.00  0.00    +0.000 A 
ATOM     25  C   UNL     1       2.117   3.631  18.074  0.00  0.00    +0.000 A 
ENDBRANCH  17  20
ENDBRANCH   5  17
TORSDOF 4
ENDMDL
MODEL 5
REMARK VINA RESULT:      -7.9      3.019      6.310
REMARK  Name = 
REMARK  4 active torsions:
REMARK  status: ('A' for Active; 'I' for Inactive)
REMARK    1  A    between atoms: C_2  and  C_5
REMARK    2  A    between atoms: N_3  and  O_4
REMARK    3  A    between atoms: N_9  and  S_10
REMARK    4  A    between atoms: S_10  and  C_13
REMARK                            x       y       z     vdW  Elec       q    Type
REMARK                         _______ _______ _______ _____ _____    ______ ____
ROOT
ATOM      1  C   UNL     1       3.205   3.949  17.445  0.00  0.00    +0.000 C 
ATOM      2  C   UNL     1       4.023   4.174  16.175  0.00  0.00    +0.000 C 
ATOM      3  C   UNL     1       5.063   5.231  16.566  0.00  0.00    +0.000 C 
ATOM      4  C   UNL     1       4.318   6.076  17.644  0.00  0.00    +0.000 C 
ATOM      5  N   UNL     1       3.094   5.308  18.014  0.00  0.00    +0.000 NA
ATOM      6  O   UNL     1       5.393   6.094  15.479  0.00  0.00    +0.000 OA
ATOM      7  C   UNL     1       6.177   5.461  14.477  0.00  0.00    +0.000 C 
ATOM      8  C   UNL     1       7.442   4.889  15.084  0.00  0.00    +0.000 C 
ATOM      9  C   UNL     1       7.079   3.987  16.249  0.00  0.00    +0.000 C 
ATOM     10  O   UNL     1       6.225   4.665  17.167  0.00  0.00    +0.000 OA
ENDROOT
BRANCH   1  12
ATOM     11  O   UNL     1       3.372   1.654  18.167  0.00  0.00    +0.000 OA
ATOM     12  C   UNL     1       3.779   2.812  18.289  0.00  0.00    +0.000 C 
ATOM     13  N   UNL     1       4.836   3.102  19.117  0.00  0.00    +0.000 N 
ATOM     14  H   UNL     1       4.949   4.028  19.532  0.00  0.00    +0.000 HD
BRANCH  13  15
ATOM     15  O   UNL     1       5.265   2.025  19.937  0.00  0.00    +0.000 OA
ATOM     16  H   UNL     1       4.679   1.292  19.651  0.00  0.00    +0.000 HD
ENDBRANCH  13  15
ENDBRANCH   1  12
BRANCH   5  17
ATOM     17  S   UNL     1       2.450   5.466  19.558  0.00  0.00    +0.000 S 
ATOM     18  O   UNL     1       1.274   4.628  19.627  0.00  0.00    +0.000 OA
ATOM     19  O   UNL     1       3.556   5.291  20.473  0.00  0.00    +0.000 OA
BRANCH  17  20
ATOM     20  C   UNL     1       1.918   7.154  19.605  0.00  0.00    +0.000 A 
ATOM     21  C   UNL     1       1.961   7.912  18.429  0.00  0.00    +0.000 A 
ATOM     22  C   UNL     1       1.530   9.239  18.451  0.00  0.00    +0.000 A 
ATOM     23  C   UNL     1       1.051   9.797  19.637  0.00  0.00    +0.000 A 
ATOM     24  C   UNL     1       0.991   9.030  20.803  0.00  0.00    +0.000 A 
ATOM     25  C   UNL     1       1.422   7.702  20.790  0.00  0.00    +0.000 A 
ENDBRANCH  17  20
ENDBRANCH   5  17
TORSDOF 4
ENDMDL
MODEL 6
REMARK VINA RESULT:      -7.8      3.028      6.357
REMARK  Name = 
REMARK  4 active torsions:
REMARK  status: ('A' for Active; 'I' for Inactive)
REMARK    1  A    between atoms: C_2  and  C_5
REMARK    2  A    between atoms: N_3  and  O_4
REMARK    3  A    between atoms: N_9  and  S_10
REMARK    4  A    between atoms: S_10  and  C_13
REMARK                            x       y       z     vdW  Elec       q    Type
REMARK                         _______ _______ _______ _____ _____    ______ ____
ROOT
ATOM      1  C   UNL     1       3.194   3.928  17.454  0.00  0.00    +0.000 C 
ATOM      2  C   UNL     1       4.021   4.157  16.190  0.00  0.00    +0.000 C 
ATOM      3  C   UNL     1       5.050   5.222  16.589  0.00  0.00    +0.000 C 
ATOM      4  C   UNL     1       4.291   6.062  17.660  0.00  0.00    +0.000 C 
ATOM      5  N   UNL     1       3.069   5.286  18.021  0.00  0.00    +0.000 NA
ATOM      6  O   UNL     1       5.383   6.086  15.504  0.00  0.00    +0.000 OA
ATOM      7  C   UNL     1       6.180   5.457  14.509  0.00  0.00    +0.000 C 
ATOM      8  C   UNL     1       7.444   4.895  15.127  0.00  0.00    +0.000 C 
ATOM      9  C   UNL     1       7.077   3.992  16.289  0.00  0.00    +0.000 C 
ATOM     10  O   UNL     1       6.211   4.664  17.200  0.00  0.00    +0.000 OA
ENDROOT
BRANCH   1  12
ATOM     11  O   UNL     1       3.352   1.639  18.199  0.00  0.00    +0.000 OA
ATOM     12  C   UNL     1       3.769   2.796  18.304  0.00  0.00    +0.000 C 
ATOM     13  N   UNL     1       4.838   3.086  19.116  0.00  0.00    +0.000 N 
ATOM     14  H   UNL     1       4.963   4.015  19.519  0.00  0.00    +0.000 HD
BRANCH  13  15
ATOM     15  O   UNL     1       5.268   2.015  19.943  0.00  0.00    +0.000 OA
ATOM     16  H   UNL     1       4.508   1.897  20.552  0.00  0.00    +0.000 HD
ENDBRANCH  13  15
ENDBRANCH   1  12
BRANCH   5  17
ATOM     17  S   UNL     1       2.411   5.441  19.559  0.00  0.00    +0.000 S 
ATOM     18  O   UNL     1       1.236   4.601  19.618  0.00  0.00    +0.000 OA
ATOM     19  O   UNL     1       3.510   5.267  20.483  0.00  0.00    +0.000 OA
BRANCH  17  20
ATOM     20  C   UNL     1       1.875   7.128  19.603  0.00  0.00    +0.000 A 
ATOM     21  C   UNL     1       1.411   7.661  20.810  0.00  0.00    +0.000 A 
ATOM     22  C   UNL     1       1.000   8.993  20.860  0.00  0.00    +0.000 A 
ATOM     23  C   UNL     1       1.064   9.787  19.713  0.00  0.00    +0.000 A 
ATOM     24  C   UNL     1       1.547   9.255  18.516  0.00  0.00    +0.000 A 
ATOM     25  C   UNL     1       1.958   7.922  18.457  0.00  0.00    +0.000 A 
ENDBRANCH  17  20
ENDBRANCH   5  17
TORSDOF 4
ENDMDL
MODEL 7
REMARK VINA RESULT:      -7.7      2.115      2.524
REMARK  Name = 
REMARK  4 active torsions:
REMARK  status: ('A' for Active; 'I' for Inactive)
REMARK    1  A    between atoms: C_2  and  C_5
REMARK    2  A    between atoms: N_3  and  O_4
REMARK    3  A    between atoms: N_9  and  S_10
REMARK    4  A    between atoms: S_10  and  C_13
REMARK                            x       y       z     vdW  Elec       q    Type
REMARK                         _______ _______ _______ _____ _____    ______ ____
ROOT
ATOM      1  C   UNL     1       6.418   6.341  17.710  0.00  0.00    +0.000 C 
ATOM      2  C   UNL     1       5.356   7.417  17.932  0.00  0.00    +0.000 C 
ATOM      3  C   UNL     1       4.026   6.714  17.632  0.00  0.00    +0.000 C 
ATOM      4  C   UNL     1       4.418   5.662  16.552  0.00  0.00    +0.000 C 
ATOM      5  N   UNL     1       5.909   5.609  16.532  0.00  0.00    +0.000 NA
ATOM      6  O   UNL     1       3.064   7.599  17.058  0.00  0.00    +0.000 OA
ATOM      7  C   UNL     1       2.542   8.541  17.987  0.00  0.00    +0.000 C 
ATOM      8  C   UNL     1       1.939   7.825  19.178  0.00  0.00    +0.000 C 
ATOM      9  C   UNL     1       2.966   6.876  19.768  0.00  0.00    +0.000 C 
ATOM     10  O   UNL     1       3.502   6.021  18.762  0.00  0.00    +0.000 OA
ENDROOT
BRANCH   1  12
ATOM     11  O   UNL     1       5.963   4.734  19.450  0.00  0.00    +0.000 OA
ATOM     12  C   UNL     1       6.732   5.588  19.001  0.00  0.00    +0.000 C 
ATOM     13  N   UNL     1       7.949   5.818  19.595  0.00  0.00    +0.000 N 
ATOM     14  H   UNL     1       8.419   6.721  19.513  0.00  0.00    +0.000 HD
BRANCH  13  15
ATOM     15  O   UNL     1       8.143   5.156  20.836  0.00  0.00    +0.000 OA
ATOM     16  H   UNL     1       8.303   4.229  20.560  0.00  0.00    +0.000 HD
ENDBRANCH  13  15
ENDBRANCH   1  12
BRANCH   5  17
ATOM     17  S   UNL     1       6.684   4.184  16.095  0.00  0.00    +0.000 S 
ATOM     18  O   UNL     1       8.010   4.215  16.670  0.00  0.00    +0.000 OA
ATOM     19  O   UNL     1       5.756   3.116  16.396  0.00  0.00    +0.000 OA
BRANCH  17  20
ATOM     20  C   UNL     1       6.849   4.334  14.339  0.00  0.00    +0.000 A 
ATOM     21  C   UNL     1       7.740   5.279  13.819  0.00  0.00    +0.000 A 
ATOM     22  C   UNL     1       7.889   5.396  12.437  0.00  0.00    +0.000 A 
ATOM     23  C   UNL     1       7.160   4.566  11.584  0.00  0.00    +0.000 A 
ATOM     24  C   UNL     1       6.288   3.610  12.108  0.00  0.00    +0.000 A 
ATOM     25  C   UNL     1       6.131   3.488  13.490  0.00  0.00    +0.000 A 
ENDBRANCH  17  20
ENDBRANCH   5  17
TORSDOF 4
ENDMDL
MODEL 8
REMARK VINA RESULT:      -7.5      1.803      2.572
REMARK  Name = 
REMARK  4 active torsions:
REMARK  status: ('A' for Active; 'I' for Inactive)
REMARK    1  A    between atoms: C_2  and  C_5
REMARK    2  A    between atoms: N_3  and  O_4
REMARK    3  A    between atoms: N_9  and  S_10
REMARK    4  A    between atoms: S_10  and  C_13
REMARK                            x       y       z     vdW  Elec       q    Type
REMARK                         _______ _______ _______ _____ _____    ______ ____
ROOT
ATOM      1  C   UNL     1       4.332   4.878  16.818  0.00  0.00    +0.000 C 
ATOM      2  C   UNL     1       3.315   4.163  17.706  0.00  0.00    +0.000 C 
ATOM      3  C   UNL     1       4.003   4.056  19.072  0.00  0.00    +0.000 C 
ATOM      4  C   UNL     1       5.512   3.948  18.700  0.00  0.00    +0.000 C 
ATOM      5  N   UNL     1       5.619   4.299  17.254  0.00  0.00    +0.000 NA
ATOM      6  O   UNL     1       3.634   2.869  19.773  0.00  0.00    +0.000 OA
ATOM      7  C   UNL     1       2.301   2.898  20.266  0.00  0.00    +0.000 C 
ATOM      8  C   UNL     1       2.098   4.107  21.157  0.00  0.00    +0.000 C 
ATOM      9  C   UNL     1       2.509   5.359  20.408  0.00  0.00    +0.000 C 
ATOM     10  O   UNL     1       3.823   5.222  19.873  0.00  0.00    +0.000 OA
ENDROOT
BRANCH   1  12
ATOM     11  O   UNL     1       4.657   7.122  15.995  0.00  0.00    +0.000 OA
ATOM     12  C   UNL     1       4.128   6.391  16.837  0.00  0.00    +0.000 C 
ATOM     13  N   UNL     1       3.253   6.907  17.763  0.00  0.00    +0.000 N 
ATOM     14  H   UNL     1       3.106   6.454  18.666  0.00  0.00    +0.000 HD
BRANCH  13  15
ATOM     15  O   UNL     1       3.176   8.324  17.788  0.00  0.00    +0.000 OA
ATOM     16  H   UNL     1       3.507   8.540  18.685  0.00  0.00    +0.000 HD
ENDBRANCH  13  15
ENDBRANCH   1  12
BRANCH   5  17
ATOM     17  S   UNL     1       7.033   4.994  16.670  0.00  0.00    +0.000 S 
ATOM     18  O   UNL     1       6.938   6.421  16.885  0.00  0.00    +0.000 OA
ATOM     19  O   UNL     1       8.119   4.218  17.227  0.00  0.00    +0.000 OA
BRANCH  17  20
ATOM     20  C   UNL     1       6.941   4.699  14.927  0.00  0.00    +0.000 A 
ATOM     21  C   UNL     1       7.800   5.400  14.074  0.00  0.00    +0.000 A 
ATOM     22  C   UNL     1       7.746   5.164  12.700  0.00  0.00    +0.000 A 
ATOM     23  C   UNL     1       6.847   4.228  12.187  0.00  0.00    +0.000 A 
ATOM     24  C   UNL     1       6.006   3.517  13.045  0.00  0.00    +0.000 A 
ATOM     25  C   UNL     1       6.052   3.748  14.421  0.00  0.00    +0.000 A 
ENDBRANCH  17  20
ENDBRANCH   5  17
TORSDOF 4
ENDMDL
MODEL 9
REMARK VINA RESULT:      -7.4      1.785      2.758
REMARK  Name = 
REMARK  4 active torsions:
REMARK  status: ('A' for Active; 'I' for Inactive)
REMARK    1  A    between atoms: C_2  and  C_5
REMARK    2  A    between atoms: N_3  and  O_4
REMARK    3  A    between atoms: N_9  and  S_10
REMARK    4  A    between atoms: S_10  and  C_13
REMARK                            x       y       z     vdW  Elec       q    Type
REMARK                         _______ _______ _______ _____ _____    ______ ____
ROOT
ATOM      1  C   UNL     1       4.370   4.891  16.786  0.00  0.00    +0.000 C 
ATOM      2  C   UNL     1       3.344   4.186  17.671  0.00  0.00    +0.000 C 
ATOM      3  C   UNL     1       4.023   4.083  19.042  0.00  0.00    +0.000 C 
ATOM      4  C   UNL     1       5.534   3.966  18.680  0.00  0.00    +0.000 C 
ATOM      5  N   UNL     1       5.652   4.310  17.233  0.00  0.00    +0.000 NA
ATOM      6  O   UNL     1       3.645   2.900  19.746  0.00  0.00    +0.000 OA
ATOM      7  C   UNL     1       2.309   2.938  20.230  0.00  0.00    +0.000 C 
ATOM      8  C   UNL     1       2.105   4.152  21.114  0.00  0.00    +0.000 C 
ATOM      9  C   UNL     1       2.526   5.399  20.361  0.00  0.00    +0.000 C 
ATOM     10  O   UNL     1       3.843   5.253  19.835  0.00  0.00    +0.000 OA
ENDROOT
BRANCH   1  12
ATOM     11  O   UNL     1       4.685   7.126  15.935  0.00  0.00    +0.000 OA
ATOM     12  C   UNL     1       4.173   6.406  16.796  0.00  0.00    +0.000 C 
ATOM     13  N   UNL     1       3.323   6.933  17.738  0.00  0.00    +0.000 N 
ATOM     14  H   UNL     1       3.196   6.489  18.648  0.00  0.00    +0.000 HD
BRANCH  13  15
ATOM     15  O   UNL     1       3.252   8.351  17.751  0.00  0.00    +0.000 OA
ATOM     16  H   UNL     1       2.289   8.517  17.665  0.00  0.00    +0.000 HD
ENDBRANCH  13  15
ENDBRANCH   1  12
BRANCH   5  17
ATOM     17  S   UNL     1       7.073   4.996  16.656  0.00  0.00    +0.000 S 
ATOM     18  O   UNL     1       6.981   6.424  16.858  0.00  0.00    +0.000 OA
ATOM     19  O   UNL     1       8.153   4.221  17.227  0.00  0.00    +0.000 OA
BRANCH  17  20
ATOM     20  C   UNL     1       6.994   4.687  14.914  0.00  0.00    +0.000 A 
ATOM     21  C   UNL     1       6.074   3.749  14.432  0.00  0.00    +0.000 A 
ATOM     22  C   UNL     1       5.993   3.509  13.060  0.00  0.00    +0.000 A 
ATOM     23  C   UNL     1       6.818   4.209  12.179  0.00  0.00    +0.000 A 
ATOM     24  C   UNL     1       7.720   5.159  12.664  0.00  0.00    +0.000 A 
ATOM     25  C   UNL     1       7.810   5.403  14.035  0.00  0.00    +0.000 A 
ENDBRANCH  17  20
ENDBRANCH   5  17
TORSDOF 4
ENDMDL
