MODEL 1
REMARK VINA RESULT:      -8.8      0.000      0.000
REMARK  Name = 
REMARK  9 active torsions:
REMARK  status: ('A' for Active; 'I' for Inactive)
REMARK    1  A    between atoms: C_1  and  O_2
REMARK    2  A    between atoms: O_2  and  C_3
REMARK    3  A    between atoms: C_6  and  C_7
REMARK    4  A    between atoms: C_7  and  C_8
REMARK    5  A    between atoms: N_10  and  C_11
REMARK    6  A    between atoms: C_19  and  C_20
REMARK    7  A    between atoms: N_22  and  S_23
REMARK    8  A    between atoms: S_23  and  C_26
REMARK    9  A    between atoms: C_29  and  N_30
REMARK                            x       y       z     vdW  Elec       q    Type
REMARK                         _______ _______ _______ _____ _____    ______ ____
ROOT
ATOM      1  C   UNL     1       3.016   4.688  19.274  0.00  0.00    +0.000 A 
ATOM      2  C   UNL     1       1.894   4.586  20.116  0.00  0.00    +0.000 A 
ATOM      3  C   UNL     1       1.249   5.724  20.632  0.00  0.00    +0.000 A 
ATOM      4  C   UNL     1       1.668   7.019  20.357  0.00  0.00    +0.000 A 
ATOM      5  C   UNL     1       2.776   7.121  19.450  0.00  0.00    +0.000 A 
ATOM      6  C   UNL     1       3.447   5.968  18.880  0.00  0.00    +0.000 A 
ENDROOT
BRANCH   6   7
ATOM      7  C   UNL     1       4.597   6.179  17.933  0.00  0.00    +0.000 C 
ATOM      8  O   UNL     1       4.516   7.017  17.041  0.00  0.00    +0.000 OA
ATOM      9  N   UNL     1       5.779   5.417  18.068  0.00  0.00    +0.000 N 
ATOM     10  H   UNL     1       5.875   4.778  18.858  0.00  0.00    +0.000 HD
BRANCH   9  11
ATOM     11  S   UNL     1       7.123   5.411  17.065  0.00  0.00    +0.000 S 
ATOM     12  O   UNL     1       7.475   6.800  16.839  0.00  0.00    +0.000 OA
ATOM     13  O   UNL     1       8.101   4.491  17.608  0.00  0.00    +0.000 OA
BRANCH  11  14
ATOM     14  C   UNL     1       6.552   4.782  15.502  0.00  0.00    +0.000 A 
ATOM     15  C   UNL     1       5.352   4.064  15.441  0.00  0.00    +0.000 A 
ATOM     16  C   UNL     1       4.956   3.484  14.230  0.00  0.00    +0.000 A 
ATOM     17  C   UNL     1       5.752   3.651  13.085  0.00  0.00    +0.000 A 
ATOM     18  C   UNL     1       6.909   4.442  13.130  0.00  0.00    +0.000 A 
ATOM     19  C   UNL     1       7.302   5.017  14.341  0.00  0.00    +0.000 A 
BRANCH  17  20
ATOM     20  N   UNL     1       5.391   2.967  11.835  0.00  0.00    +0.000 N 
ATOM     21  O   UNL     1       6.098   2.015  11.477  0.00  0.00    +0.000 OA
ATOM     22  O   UNL     1       4.414   3.393  11.203  0.00  0.00    +0.000 OA
ENDBRANCH  17  20
ENDBRANCH  11  14
ENDBRANCH   9  11
ENDBRANCH   6   7
BRANCH   1  24
ATOM     23  C   UNL     1       4.083   2.606  19.797  0.00  0.00    +0.000 C 
ATOM     24  O   UNL     1       3.695   3.582  18.820  0.00  0.00    +0.000 OA
ENDBRANCH   1  24
BRANCH   4  25
ATOM     25  C   UNL     1       1.094   8.158  21.229  0.00  0.00    +0.000 C 
BRANCH  25  26
ATOM     26  C   UNL     1       0.749   9.475  20.529  0.00  0.00    +0.000 A 
ATOM     27  C   UNL     1       1.231  10.670  21.073  0.00  0.00    +0.000 A 
ATOM     28  N   UNL     1       0.128  11.491  21.037  0.00  0.00    +0.000 N 
ATOM     29  C   UNL     1      -0.807  11.665  22.144  0.00  0.00    +0.000 C 
ATOM     30  C   UNL     1      -0.360  11.366  19.755  0.00  0.00    +0.000 A 
ATOM     31  C   UNL     1      -1.096  12.306  19.019  0.00  0.00    +0.000 A 
ATOM     32  C   UNL     1      -1.726  11.871  17.869  0.00  0.00    +0.000 A 
ATOM     33  C   UNL     1      -1.684  10.515  17.554  0.00  0.00    +0.000 A 
ATOM     34  C   UNL     1      -0.962   9.561  18.351  0.00  0.00    +0.000 A 
ATOM     35  C   UNL     1      -0.186   9.992  19.465  0.00  0.00    +0.000 A 
ENDBRANCH  25  26
ENDBRANCH   4  25
TORSDOF 7
ENDMDL
MODEL 2
REMARK VINA RESULT:      -8.8      1.024      1.728
REMARK  Name = 
REMARK  9 active torsions:
REMARK  status: ('A' for Active; 'I' for Inactive)
REMARK    1  A    between atoms: C_1  and  O_2
REMARK    2  A    between atoms: O_2  and  C_3
REMARK    3  A    between atoms: C_6  and  C_7
REMARK    4  A    between atoms: C_7  and  C_8
REMARK    5  A    between atoms: N_10  and  C_11
REMARK    6  A    between atoms: C_19  and  C_20
REMARK    7  A    between atoms: N_22  and  S_23
REMARK    8  A    between atoms: S_23  and  C_26
REMARK    9  A    between atoms: C_29  and  N_30
REMARK                            x       y       z     vdW  Elec       q    Type
REMARK                         _______ _______ _______ _____ _____    ______ ____
ROOT
ATOM      1  C   UNL     1       2.882   4.769  18.979  0.00  0.00    +0.000 A 
ATOM      2  C   UNL     1       1.789   4.729  19.863  0.00  0.00    +0.000 A 
ATOM      3  C   UNL     1       1.344   5.876  20.545  0.00  0.00    +0.000 A 
ATOM      4  C   UNL     1       1.945   7.119  20.403  0.00  0.00    +0.000 A 
ATOM      5  C   UNL     1       3.022   7.170  19.455  0.00  0.00    +0.000 A 
ATOM      6  C   UNL     1       3.488   6.011  18.717  0.00  0.00    +0.000 A 
ENDROOT
BRANCH   6   7
ATOM      7  C   UNL     1       4.622   6.168  17.740  0.00  0.00    +0.000 C 
ATOM      8  O   UNL     1       4.526   6.955  16.804  0.00  0.00    +0.000 OA
ATOM      9  N   UNL     1       5.807   5.415  17.899  0.00  0.00    +0.000 N 
ATOM     10  H   UNL     1       5.916   4.821  18.721  0.00  0.00    +0.000 HD
BRANCH   9  11
ATOM     11  S   UNL     1       7.134   5.352  16.875  0.00  0.00    +0.000 S 
ATOM     12  O   UNL     1       7.522   6.726  16.618  0.00  0.00    +0.000 OA
ATOM     13  O   UNL     1       8.094   4.414  17.419  0.00  0.00    +0.000 OA
BRANCH  11  14
ATOM     14  C   UNL     1       6.521   4.712  15.332  0.00  0.00    +0.000 A 
ATOM     15  C   UNL     1       5.290   4.046  15.300  0.00  0.00    +0.000 A 
ATOM     16  C   UNL     1       4.857   3.455  14.107  0.00  0.00    +0.000 A 
ATOM     17  C   UNL     1       5.648   3.560  12.951  0.00  0.00    +0.000 A 
ATOM     18  C   UNL     1       6.838   4.302  12.966  0.00  0.00    +0.000 A 
ATOM     19  C   UNL     1       7.268   4.888  14.160  0.00  0.00    +0.000 A 
BRANCH  17  20
ATOM     20  N   UNL     1       5.244   2.864  11.721  0.00  0.00    +0.000 N 
ATOM     21  O   UNL     1       5.958   1.930  11.330  0.00  0.00    +0.000 OA
ATOM     22  O   UNL     1       4.226   3.262  11.138  0.00  0.00    +0.000 OA
ENDBRANCH  17  20
ENDBRANCH  11  14
ENDBRANCH   9  11
ENDBRANCH   6   7
BRANCH   1  24
ATOM     23  C   UNL     1       3.880   2.602  19.206  0.00  0.00    +0.000 C 
ATOM     24  O   UNL     1       3.367   3.641  18.361  0.00  0.00    +0.000 OA
ENDBRANCH   1  24
BRANCH   4  25
ATOM     25  C   UNL     1       1.583   8.212  21.433  0.00  0.00    +0.000 C 
BRANCH  25  26
ATOM     26  C   UNL     1       0.486   9.208  21.048  0.00  0.00    +0.000 A 
ATOM     27  C   UNL     1       0.295   9.505  19.694  0.00  0.00    +0.000 A 
ATOM     28  N   UNL     1       0.185  10.876  19.693  0.00  0.00    +0.000 N 
ATOM     29  C   UNL     1       1.299  11.792  19.472  0.00  0.00    +0.000 C 
ATOM     30  C   UNL     1      -0.731  11.155  20.684  0.00  0.00    +0.000 A 
ATOM     31  C   UNL     1      -1.589  12.260  20.775  0.00  0.00    +0.000 A 
ATOM     32  C   UNL     1      -2.217  12.487  21.985  0.00  0.00    +0.000 A 
ATOM     33  C   UNL     1      -1.894  11.677  23.070  0.00  0.00    +0.000 A 
ATOM     34  C   UNL     1      -0.974  10.578  22.964  0.00  0.00    +0.000 A 
ATOM     35  C   UNL     1      -0.413  10.226  21.703  0.00  0.00    +0.000 A 
ENDBRANCH  25  26
ENDBRANCH   4  25
TORSDOF 7
ENDMDL
MODEL 3
REMARK VINA RESULT:      -8.5      5.333     11.011
REMARK  Name = 
REMARK  9 active torsions:
REMARK  status: ('A' for Active; 'I' for Inactive)
REMARK    1  A    between atoms: C_1  and  O_2
REMARK    2  A    between atoms: O_2  and  C_3
REMARK    3  A    between atoms: C_6  and  C_7
REMARK    4  A    between atoms: C_7  and  C_8
REMARK    5  A    between atoms: N_10  and  C_11
REMARK    6  A    between atoms: C_19  and  C_20
REMARK    7  A    between atoms: N_22  and  S_23
REMARK    8  A    between atoms: S_23  and  C_26
REMARK    9  A    between atoms: C_29  and  N_30
REMARK                            x       y       z     vdW  Elec       q    Type
REMARK                         _______ _______ _______ _____ _____    ______ ____
ROOT
ATOM      1  C   UNL     1       1.393  10.298  18.895  0.00  0.00    +0.000 A 
ATOM      2  C   UNL     1       1.847   9.486  17.840  0.00  0.00    +0.000 A 
ATOM      3  C   UNL     1       2.160   8.129  18.031  0.00  0.00    +0.000 A 
ATOM      4  C   UNL     1       2.051   7.495  19.262  0.00  0.00    +0.000 A 
ATOM      5  C   UNL     1       1.531   8.310  20.323  0.00  0.00    +0.000 A 
ATOM      6  C   UNL     1       1.174   9.706  20.153  0.00  0.00    +0.000 A 
ENDROOT
BRANCH   6   7
ATOM      7  C   UNL     1       0.631  10.476  21.326  0.00  0.00    +0.000 C 
ATOM      8  O   UNL     1       1.053  10.256  22.457  0.00  0.00    +0.000 OA
ATOM      9  N   UNL     1      -0.363  11.460  21.132  0.00  0.00    +0.000 N 
ATOM     10  H   UNL     1      -0.655  11.698  20.184  0.00  0.00    +0.000 HD
BRANCH   9  11
ATOM     11  S   UNL     1      -1.178  12.347  22.299  0.00  0.00    +0.000 S 
ATOM     12  O   UNL     1      -1.294  11.490  23.463  0.00  0.00    +0.000 OA
ATOM     13  O   UNL     1      -0.552  13.649  22.412  0.00  0.00    +0.000 OA
BRANCH  11  14
ATOM     14  C   UNL     1      -2.830  12.561  21.673  0.00  0.00    +0.000 A 
ATOM     15  C   UNL     1      -3.887  12.771  22.566  0.00  0.00    +0.000 A 
ATOM     16  C   UNL     1      -5.198  12.838  22.080  0.00  0.00    +0.000 A 
ATOM     17  C   UNL     1      -5.435  12.722  20.700  0.00  0.00    +0.000 A 
ATOM     18  C   UNL     1      -4.367  12.599  19.801  0.00  0.00    +0.000 A 
ATOM     19  C   UNL     1      -3.060  12.530  20.291  0.00  0.00    +0.000 A 
BRANCH  17  20
ATOM     20  N   UNL     1      -6.815  12.698  20.193  0.00  0.00    +0.000 N 
ATOM     21  O   UNL     1      -7.731  12.677  21.027  0.00  0.00    +0.000 OA
ATOM     22  O   UNL     1      -6.981  12.681  18.966  0.00  0.00    +0.000 OA
ENDBRANCH  17  20
ENDBRANCH  11  14
ENDBRANCH   9  11
ENDBRANCH   6   7
BRANCH   1  24
ATOM     23  C   UNL     1       2.242  12.453  18.278  0.00  0.00    +0.000 C 
ATOM     24  O   UNL     1       1.151  11.642  18.735  0.00  0.00    +0.000 OA
ENDBRANCH   1  24
BRANCH   4  25
ATOM     25  C   UNL     1       2.723   6.113  19.418  0.00  0.00    +0.000 C 
BRANCH  25  26
ATOM     26  C   UNL     1       3.340   5.484  18.166  0.00  0.00    +0.000 A 
ATOM     27  C   UNL     1       2.633   4.473  17.506  0.00  0.00    +0.000 A 
ATOM     28  N   UNL     1       3.601   3.524  17.271  0.00  0.00    +0.000 N 
ATOM     29  C   UNL     1       3.881   2.397  18.154  0.00  0.00    +0.000 C 
ATOM     30  C   UNL     1       4.650   4.224  16.718  0.00  0.00    +0.000 A 
ATOM     31  C   UNL     1       5.633   3.747  15.838  0.00  0.00    +0.000 A 
ATOM     32  C   UNL     1       6.749   4.536  15.632  0.00  0.00    +0.000 A 
ATOM     33  C   UNL     1       6.889   5.704  16.375  0.00  0.00    +0.000 A 
ATOM     34  C   UNL     1       5.889   6.150  17.308  0.00  0.00    +0.000 A 
ATOM     35  C   UNL     1       4.663   5.437  17.445  0.00  0.00    +0.000 A 
ENDBRANCH  25  26
ENDBRANCH   4  25
TORSDOF 7
ENDMDL
MODEL 4
REMARK VINA RESULT:      -8.5      5.399     10.999
REMARK  Name = 
REMARK  9 active torsions:
REMARK  status: ('A' for Active; 'I' for Inactive)
REMARK    1  A    between atoms: C_1  and  O_2
REMARK    2  A    between atoms: O_2  and  C_3
REMARK    3  A    between atoms: C_6  and  C_7
REMARK    4  A    between atoms: C_7  and  C_8
REMARK    5  A    between atoms: N_10  and  C_11
REMARK    6  A    between atoms: C_19  and  C_20
REMARK    7  A    between atoms: N_22  and  S_23
REMARK    8  A    between atoms: S_23  and  C_26
REMARK    9  A    between atoms: C_29  and  N_30
REMARK                            x       y       z     vdW  Elec       q    Type
REMARK                         _______ _______ _______ _____ _____    ______ ____
ROOT
ATOM      1  C   UNL     1       1.130  10.764  18.892  0.00  0.00    +0.000 A 
ATOM      2  C   UNL     1       1.755   9.906  17.969  0.00  0.00    +0.000 A 
ATOM      3  C   UNL     1       2.065   8.573  18.289  0.00  0.00    +0.000 A 
ATOM      4  C   UNL     1       1.787   8.009  19.528  0.00  0.00    +0.000 A 
ATOM      5  C   UNL     1       1.096   8.869  20.447  0.00  0.00    +0.000 A 
ATOM      6  C   UNL     1       0.738  10.241  20.138  0.00  0.00    +0.000 A 
ENDROOT
BRANCH   6   7
ATOM      7  C   UNL     1       0.008  11.060  21.167  0.00  0.00    +0.000 C 
ATOM      8  O   UNL     1      -0.625  10.507  22.060  0.00  0.00    +0.000 OA
ATOM      9  N   UNL     1       0.053  12.471  21.114  0.00  0.00    +0.000 N 
ATOM     10  H   UNL     1       0.644  12.928  20.420  0.00  0.00    +0.000 HD
BRANCH   9  11
ATOM     11  S   UNL     1      -0.769  13.566  22.083  0.00  0.00    +0.000 S 
ATOM     12  O   UNL     1      -0.519  13.171  23.456  0.00  0.00    +0.000 OA
ATOM     13  O   UNL     1      -0.449  14.907  21.641  0.00  0.00    +0.000 OA
BRANCH  11  14
ATOM     14  C   UNL     1      -2.498  13.265  21.787  0.00  0.00    +0.000 A 
ATOM     15  C   UNL     1      -3.389  13.228  22.866  0.00  0.00    +0.000 A 
ATOM     16  C   UNL     1      -4.729  12.892  22.643  0.00  0.00    +0.000 A 
ATOM     17  C   UNL     1      -5.171  12.623  21.336  0.00  0.00    +0.000 A 
ATOM     18  C   UNL     1      -4.295  12.746  20.248  0.00  0.00    +0.000 A 
ATOM     19  C   UNL     1      -2.957  13.080  20.476  0.00  0.00    +0.000 A 
BRANCH  17  20
ATOM     20  N   UNL     1      -6.553  12.179  21.107  0.00  0.00    +0.000 N 
ATOM     21  O   UNL     1      -7.090  12.506  20.039  0.00  0.00    +0.000 OA
ATOM     22  O   UNL     1      -7.107  11.523  21.999  0.00  0.00    +0.000 OA
ENDBRANCH  17  20
ENDBRANCH  11  14
ENDBRANCH   9  11
ENDBRANCH   6   7
BRANCH   1  24
ATOM     23  C   UNL     1       2.015  12.907  18.284  0.00  0.00    +0.000 C 
ATOM     24  O   UNL     1       0.884  12.088  18.613  0.00  0.00    +0.000 OA
ENDBRANCH   1  24
BRANCH   4  25
ATOM     25  C   UNL     1       2.459   6.660  19.868  0.00  0.00    +0.000 C 
BRANCH  25  26
ATOM     26  C   UNL     1       2.854   5.755  18.699  0.00  0.00    +0.000 A 
ATOM     27  C   UNL     1       2.352   4.450  18.662  0.00  0.00    +0.000 A 
ATOM     28  N   UNL     1       3.463   3.703  18.344  0.00  0.00    +0.000 N 
ATOM     29  C   UNL     1       4.334   3.064  19.324  0.00  0.00    +0.000 C 
ATOM     30  C   UNL     1       4.021   4.348  17.263  0.00  0.00    +0.000 A 
ATOM     31  C   UNL     1       4.805   3.793  16.241  0.00  0.00    +0.000 A 
ATOM     32  C   UNL     1       5.495   4.662  15.417  0.00  0.00    +0.000 A 
ATOM     33  C   UNL     1       5.460   6.024  15.701  0.00  0.00    +0.000 A 
ATOM     34  C   UNL     1       4.686   6.567  16.785  0.00  0.00    +0.000 A 
ATOM     35  C   UNL     1       3.852   5.719  17.569  0.00  0.00    +0.000 A 
ENDBRANCH  25  26
ENDBRANCH   4  25
TORSDOF 7
ENDMDL
MODEL 5
REMARK VINA RESULT:      -8.5      5.383     10.356
REMARK  Name = 
REMARK  9 active torsions:
REMARK  status: ('A' for Active; 'I' for Inactive)
REMARK    1  A    between atoms: C_1  and  O_2
REMARK    2  A    between atoms: O_2  and  C_3
REMARK    3  A    between atoms: C_6  and  C_7
REMARK    4  A    between atoms: C_7  and  C_8
REMARK    5  A    between atoms: N_10  and  C_11
REMARK    6  A    between atoms: C_19  and  C_20
REMARK    7  A    between atoms: N_22  and  S_23
REMARK    8  A    between atoms: S_23  and  C_26
REMARK    9  A    between atoms: C_29  and  N_30
REMARK                            x       y       z     vdW  Elec       q    Type
REMARK                         _______ _______ _______ _____ _____    ______ ____
ROOT
ATOM      1  C   UNL     1       0.271   9.281  21.148  0.00  0.00    +0.000 A 
ATOM      2  C   UNL     1       1.069   8.122  21.162  0.00  0.00    +0.000 A 
ATOM      3  C   UNL     1       1.921   7.796  20.092  0.00  0.00    +0.000 A 
ATOM      4  C   UNL     1       2.035   8.580  18.952  0.00  0.00    +0.000 A 
ATOM      5  C   UNL     1       1.266   9.792  18.966  0.00  0.00    +0.000 A 
ATOM      6  C   UNL     1       0.397  10.170  20.066  0.00  0.00    +0.000 A 
ENDROOT
BRANCH   6   7
ATOM      7  C   UNL     1      -0.365  11.466  19.989  0.00  0.00    +0.000 C 
ATOM      8  O   UNL     1      -0.982  11.759  18.971  0.00  0.00    +0.000 OA
ATOM      9  N   UNL     1      -0.379  12.348  21.093  0.00  0.00    +0.000 N 
ATOM     10  H   UNL     1       0.067  12.066  21.965  0.00  0.00    +0.000 HD
BRANCH   9  11
ATOM     11  S   UNL     1      -1.064  13.876  21.181  0.00  0.00    +0.000 S 
ATOM     12  O   UNL     1      -2.403  13.761  20.636  0.00  0.00    +0.000 OA
ATOM     13  O   UNL     1      -0.864  14.396  22.518  0.00  0.00    +0.000 OA
BRANCH  11  14
ATOM     14  C   UNL     1      -0.146  14.881  20.035  0.00  0.00    +0.000 A 
ATOM     15  C   UNL     1       1.241  14.722  19.932  0.00  0.00    +0.000 A 
ATOM     16  C   UNL     1       1.975  15.580  19.105  0.00  0.00    +0.000 A 
ATOM     17  C   UNL     1       1.309  16.574  18.368  0.00  0.00    +0.000 A 
ATOM     18  C   UNL     1      -0.089  16.674  18.407  0.00  0.00    +0.000 A 
ATOM     19  C   UNL     1      -0.817  15.817  19.236  0.00  0.00    +0.000 A 
BRANCH  17  20
ATOM     20  N   UNL     1       2.082  17.537  17.571  0.00  0.00    +0.000 N 
ATOM     21  O   UNL     1       1.508  18.574  17.210  0.00  0.00    +0.000 OA
ATOM     22  O   UNL     1       3.254  17.249  17.290  0.00  0.00    +0.000 OA
ENDBRANCH  17  20
ENDBRANCH  11  14
ENDBRANCH   9  11
ENDBRANCH   6   7
BRANCH   1  24
ATOM     23  C   UNL     1      -0.090   9.639  23.491  0.00  0.00    +0.000 C 
ATOM     24  O   UNL     1      -0.615   9.573  22.157  0.00  0.00    +0.000 OA
ENDBRANCH   1  24
BRANCH   4  25
ATOM     25  C   UNL     1       2.742   7.962  17.725  0.00  0.00    +0.000 C 
BRANCH  25  26
ATOM     26  C   UNL     1       3.337   6.561  17.886  0.00  0.00    +0.000 A 
ATOM     27  C   UNL     1       4.727   6.415  17.858  0.00  0.00    +0.000 A 
ATOM     28  N   UNL     1       4.906   5.333  17.027  0.00  0.00    +0.000 N 
ATOM     29  C   UNL     1       5.145   5.429  15.591  0.00  0.00    +0.000 C 
ATOM     30  C   UNL     1       4.037   4.378  17.504  0.00  0.00    +0.000 A 
ATOM     31  C   UNL     1       4.154   2.983  17.405  0.00  0.00    +0.000 A 
ATOM     32  C   UNL     1       3.038   2.223  17.698  0.00  0.00    +0.000 A 
ATOM     33  C   UNL     1       1.839   2.873  17.975  0.00  0.00    +0.000 A 
ATOM     34  C   UNL     1       1.731   4.306  18.024  0.00  0.00    +0.000 A 
ATOM     35  C   UNL     1       2.889   5.121  17.865  0.00  0.00    +0.000 A 
ENDBRANCH  25  26
ENDBRANCH   4  25
TORSDOF 7
ENDMDL
MODEL 6
REMARK VINA RESULT:      -8.4      5.614     11.381
REMARK  Name = 
REMARK  9 active torsions:
REMARK  status: ('A' for Active; 'I' for Inactive)
REMARK    1  A    between atoms: C_1  and  O_2
REMARK    2  A    between atoms: O_2  and  C_3
REMARK    3  A    between atoms: C_6  and  C_7
REMARK    4  A    between atoms: C_7  and  C_8
REMARK    5  A    between atoms: N_10  and  C_11
REMARK    6  A    between atoms: C_19  and  C_20
REMARK    7  A    between atoms: N_22  and  S_23
REMARK    8  A    between atoms: S_23  and  C_26
REMARK    9  A    between atoms: C_29  and  N_30
REMARK                            x       y       z     vdW  Elec       q    Type
REMARK                         _______ _______ _______ _____ _____    ______ ____
ROOT
ATOM      1  C   UNL     1       0.322   9.263  21.122  0.00  0.00    +0.000 A 
ATOM      2  C   UNL     1       1.077   8.077  21.161  0.00  0.00    +0.000 A 
ATOM      3  C   UNL     1       1.917   7.698  20.100  0.00  0.00    +0.000 A 
ATOM      4  C   UNL     1       2.059   8.452  18.942  0.00  0.00    +0.000 A 
ATOM      5  C   UNL     1       1.333   9.690  18.930  0.00  0.00    +0.000 A 
ATOM      6  C   UNL     1       0.479  10.123  20.020  0.00  0.00    +0.000 A 
ENDROOT
BRANCH   6   7
ATOM      7  C   UNL     1      -0.237  11.443  19.914  0.00  0.00    +0.000 C 
ATOM      8  O   UNL     1      -0.795  11.760  18.869  0.00  0.00    +0.000 OA
ATOM      9  N   UNL     1      -0.274  12.321  21.020  0.00  0.00    +0.000 N 
ATOM     10  H   UNL     1       0.121  12.022  21.911  0.00  0.00    +0.000 HD
BRANCH   9  11
ATOM     11  S   UNL     1      -0.913  13.871  21.084  0.00  0.00    +0.000 S 
ATOM     12  O   UNL     1      -0.026  14.649  21.927  0.00  0.00    +0.000 OA
ATOM     13  O   UNL     1      -1.206  14.307  19.735  0.00  0.00    +0.000 OA
BRANCH  11  14
ATOM     14  C   UNL     1      -2.444  13.722  21.980  0.00  0.00    +0.000 A 
ATOM     15  C   UNL     1      -2.572  12.744  22.974  0.00  0.00    +0.000 A 
ATOM     16  C   UNL     1      -3.807  12.561  23.607  0.00  0.00    +0.000 A 
ATOM     17  C   UNL     1      -4.895  13.378  23.257  0.00  0.00    +0.000 A 
ATOM     18  C   UNL     1      -4.740  14.413  22.324  0.00  0.00    +0.000 A 
ATOM     19  C   UNL     1      -3.506  14.590  21.693  0.00  0.00    +0.000 A 
BRANCH  17  20
ATOM     20  N   UNL     1      -6.218  13.130  23.850  0.00  0.00    +0.000 N 
ATOM     21  O   UNL     1      -6.507  11.960  24.137  0.00  0.00    +0.000 OA
ATOM     22  O   UNL     1      -6.972  14.100  24.011  0.00  0.00    +0.000 OA
ENDBRANCH  17  20
ENDBRANCH  11  14
ENDBRANCH   9  11
ENDBRANCH   6   7
BRANCH   1  24
ATOM     23  C   UNL     1      -0.061   9.555  23.470  0.00  0.00    +0.000 C 
ATOM     24  O   UNL     1      -0.554   9.609  22.124  0.00  0.00    +0.000 OA
ENDBRANCH   1  24
BRANCH   4  25
ATOM     25  C   UNL     1       2.743   7.782  17.730  0.00  0.00    +0.000 C 
BRANCH  25  26
ATOM     26  C   UNL     1       3.299   6.369  17.926  0.00  0.00    +0.000 A 
ATOM     27  C   UNL     1       4.685   6.184  17.900  0.00  0.00    +0.000 A 
ATOM     28  N   UNL     1       4.832   5.077  17.096  0.00  0.00    +0.000 N 
ATOM     29  C   UNL     1       5.071   5.130  15.658  0.00  0.00    +0.000 C 
ATOM     30  C   UNL     1       3.937   4.158  17.598  0.00  0.00    +0.000 A 
ATOM     31  C   UNL     1       4.015   2.759  17.535  0.00  0.00    +0.000 A 
ATOM     32  C   UNL     1       2.879   2.038  17.848  0.00  0.00    +0.000 A 
ATOM     33  C   UNL     1       1.699   2.728  18.110  0.00  0.00    +0.000 A 
ATOM     34  C   UNL     1       1.631   4.164  18.122  0.00  0.00    +0.000 A 
ATOM     35  C   UNL     1       2.811   4.942  17.942  0.00  0.00    +0.000 A 
ENDBRANCH  25  26
ENDBRANCH   4  25
TORSDOF 7
ENDMDL
MODEL 7
REMARK VINA RESULT:      -8.4      6.014     11.705
REMARK  Name = 
REMARK  9 active torsions:
REMARK  status: ('A' for Active; 'I' for Inactive)
REMARK    1  A    between atoms: C_1  and  O_2
REMARK    2  A    between atoms: O_2  and  C_3
REMARK    3  A    between atoms: C_6  and  C_7
REMARK    4  A    between atoms: C_7  and  C_8
REMARK    5  A    between atoms: N_10  and  C_11
REMARK    6  A    between atoms: C_19  and  C_20
REMARK    7  A    between atoms: N_22  and  S_23
REMARK    8  A    between atoms: S_23  and  C_26
REMARK    9  A    between atoms: C_29  and  N_30
REMARK                            x       y       z     vdW  Elec       q    Type
REMARK                         _______ _______ _______ _____ _____    ______ ____
ROOT
ATOM      1  C   UNL     1       0.260  11.180  19.522  0.00  0.00    +0.000 A 
ATOM      2  C   UNL     1       0.723  10.263  18.562  0.00  0.00    +0.000 A 
ATOM      3  C   UNL     1       1.152   8.972  18.916  0.00  0.00    +0.000 A 
ATOM      4  C   UNL     1       1.156   8.510  20.226  0.00  0.00    +0.000 A 
ATOM      5  C   UNL     1       0.628   9.426  21.196  0.00  0.00    +0.000 A 
ATOM      6  C   UNL     1       0.153  10.755  20.860  0.00  0.00    +0.000 A 
ENDROOT
BRANCH   6   7
ATOM      7  C   UNL     1      -0.389  11.641  21.949  0.00  0.00    +0.000 C 
ATOM      8  O   UNL     1      -0.472  11.223  23.099  0.00  0.00    +0.000 OA
ATOM      9  N   UNL     1      -0.801  12.960  21.654  0.00  0.00    +0.000 N 
ATOM     10  H   UNL     1      -0.657  13.331  20.715  0.00  0.00    +0.000 HD
BRANCH   9  11
ATOM     11  S   UNL     1      -1.530  14.067  22.682  0.00  0.00    +0.000 S 
ATOM     12  O   UNL     1      -0.812  13.997  23.940  0.00  0.00    +0.000 OA
ATOM     13  O   UNL     1      -1.659  15.330  21.985  0.00  0.00    +0.000 OA
BRANCH  11  14
ATOM     14  C   UNL     1      -3.158  13.423  23.003  0.00  0.00    +0.000 A 
ATOM     15  C   UNL     1      -4.088  13.341  21.959  0.00  0.00    +0.000 A 
ATOM     16  C   UNL     1      -5.397  12.930  22.234  0.00  0.00    +0.000 A 
ATOM     17  C   UNL     1      -5.756  12.579  23.546  0.00  0.00    +0.000 A 
ATOM     18  C   UNL     1      -4.800  12.580  24.571  0.00  0.00    +0.000 A 
ATOM     19  C   UNL     1      -3.494  12.993  24.294  0.00  0.00    +0.000 A 
BRANCH  17  20
ATOM     20  N   UNL     1      -7.151  12.237  23.857  0.00  0.00    +0.000 N 
ATOM     21  O   UNL     1      -7.559  11.120  23.508  0.00  0.00    +0.000 OA
ATOM     22  O   UNL     1      -7.843  13.089  24.431  0.00  0.00    +0.000 OA
ENDBRANCH  17  20
ENDBRANCH  11  14
ENDBRANCH   9  11
ENDBRANCH   6   7
BRANCH   1  24
ATOM     23  C   UNL     1      -1.119  12.631  18.204  0.00  0.00    +0.000 C 
ATOM     24  O   UNL     1      -0.096  12.467  19.196  0.00  0.00    +0.000 OA
ENDBRANCH   1  24
BRANCH   4  25
ATOM     25  C   UNL     1       1.944   7.215  20.526  0.00  0.00    +0.000 C 
BRANCH  25  26
ATOM     26  C   UNL     1       2.336   6.337  19.336  0.00  0.00    +0.000 A 
ATOM     27  C   UNL     1       1.811   5.043  19.255  0.00  0.00    +0.000 A 
ATOM     28  N   UNL     1       2.911   4.285  18.928  0.00  0.00    +0.000 N 
ATOM     29  C   UNL     1       3.759   3.602  19.900  0.00  0.00    +0.000 C 
ATOM     30  C   UNL     1       3.495   4.951  17.874  0.00  0.00    +0.000 A 
ATOM     31  C   UNL     1       4.282   4.411  16.845  0.00  0.00    +0.000 A 
ATOM     32  C   UNL     1       4.999   5.290  16.056  0.00  0.00    +0.000 A 
ATOM     33  C   UNL     1       4.985   6.644  16.379  0.00  0.00    +0.000 A 
ATOM     34  C   UNL     1       4.208   7.169  17.469  0.00  0.00    +0.000 A 
ATOM     35  C   UNL     1       3.348   6.315  18.218  0.00  0.00    +0.000 A 
ENDBRANCH  25  26
ENDBRANCH   4  25
TORSDOF 7
ENDMDL
MODEL 8
REMARK VINA RESULT:      -8.4      1.958      2.851
REMARK  Name = 
REMARK  9 active torsions:
REMARK  status: ('A' for Active; 'I' for Inactive)
REMARK    1  A    between atoms: C_1  and  O_2
REMARK    2  A    between atoms: O_2  and  C_3
REMARK    3  A    between atoms: C_6  and  C_7
REMARK    4  A    between atoms: C_7  and  C_8
REMARK    5  A    between atoms: N_10  and  C_11
REMARK    6  A    between atoms: C_19  and  C_20
REMARK    7  A    between atoms: N_22  and  S_23
REMARK    8  A    between atoms: S_23  and  C_26
REMARK    9  A    between atoms: C_29  and  N_30
REMARK                            x       y       z     vdW  Elec       q    Type
REMARK                         _______ _______ _______ _____ _____    ______ ____
ROOT
ATOM      1  C   UNL     1       1.835   6.556  20.550  0.00  0.00    +0.000 A 
ATOM      2  C   UNL     1       1.204   7.640  21.185  0.00  0.00    +0.000 A 
ATOM      3  C   UNL     1       0.968   8.855  20.518  0.00  0.00    +0.000 A 
ATOM      4  C   UNL     1       1.340   9.077  19.199  0.00  0.00    +0.000 A 
ATOM      5  C   UNL     1       1.930   7.949  18.535  0.00  0.00    +0.000 A 
ATOM      6  C   UNL     1       2.163   6.674  19.187  0.00  0.00    +0.000 A 
ENDROOT
BRANCH   6   7
ATOM      7  C   UNL     1       2.783   5.549  18.403  0.00  0.00    +0.000 C 
ATOM      8  O   UNL     1       2.333   5.242  17.304  0.00  0.00    +0.000 OA
ATOM      9  N   UNL     1       3.891   4.845  18.925  0.00  0.00    +0.000 N 
ATOM     10  H   UNL     1       4.313   5.153  19.801  0.00  0.00    +0.000 HD
BRANCH   9  11
ATOM     11  S   UNL     1       4.657   3.501  18.277  0.00  0.00    +0.000 S 
ATOM     12  O   UNL     1       5.689   3.119  19.221  0.00  0.00    +0.000 OA
ATOM     13  O   UNL     1       3.648   2.544  17.872  0.00  0.00    +0.000 OA
BRANCH  11  14
ATOM     14  C   UNL     1       5.504   4.086  16.824  0.00  0.00    +0.000 A 
ATOM     15  C   UNL     1       4.979   3.806  15.557  0.00  0.00    +0.000 A 
ATOM     16  C   UNL     1       5.697   4.178  14.415  0.00  0.00    +0.000 A 
ATOM     17  C   UNL     1       6.922   4.852  14.553  0.00  0.00    +0.000 A 
ATOM     18  C   UNL     1       7.402   5.207  15.822  0.00  0.00    +0.000 A 
ATOM     19  C   UNL     1       6.683   4.831  16.959  0.00  0.00    +0.000 A 
BRANCH  17  20
ATOM     20  N   UNL     1       7.725   5.163  13.362  0.00  0.00    +0.000 N 
ATOM     21  O   UNL     1       8.674   5.947  13.499  0.00  0.00    +0.000 OA
ATOM     22  O   UNL     1       7.396   4.639  12.288  0.00  0.00    +0.000 OA
ENDBRANCH  17  20
ENDBRANCH  11  14
ENDBRANCH   9  11
ENDBRANCH   6   7
BRANCH   1  24
ATOM     23  C   UNL     1       1.323   4.243  20.914  0.00  0.00    +0.000 C 
ATOM     24  O   UNL     1       2.133   5.389  21.213  0.00  0.00    +0.000 OA
ENDBRANCH   1  24
BRANCH   4  25
ATOM     25  C   UNL     1       1.325  10.534  18.685  0.00  0.00    +0.000 C 
BRANCH  25  26
ATOM     26  C   UNL     1      -0.040  11.205  18.509  0.00  0.00    +0.000 A 
ATOM     27  C   UNL     1      -0.240  12.474  19.063  0.00  0.00    +0.000 A 
ATOM     28  N   UNL     1      -1.468  12.354  19.671  0.00  0.00    +0.000 N 
ATOM     29  C   UNL     1      -1.660  11.995  21.072  0.00  0.00    +0.000 C 
ATOM     30  C   UNL     1      -2.280  11.790  18.713  0.00  0.00    +0.000 A 
ATOM     31  C   UNL     1      -3.670  11.919  18.580  0.00  0.00    +0.000 A 
ATOM     32  C   UNL     1      -4.318  11.047  17.726  0.00  0.00    +0.000 A 
ATOM     33  C   UNL     1      -3.582  10.031  17.123  0.00  0.00    +0.000 A 
ATOM     34  C   UNL     1      -2.164   9.889  17.311  0.00  0.00    +0.000 A 
ATOM     35  C   UNL     1      -1.439  10.850  18.073  0.00  0.00    +0.000 A 
ENDBRANCH  25  26
ENDBRANCH   4  25
TORSDOF 7
ENDMDL
MODEL 9
REMARK VINA RESULT:      -8.4      1.126      1.500
REMARK  Name = 
REMARK  9 active torsions:
REMARK  status: ('A' for Active; 'I' for Inactive)
REMARK    1  A    between atoms: C_1  and  O_2
REMARK    2  A    between atoms: O_2  and  C_3
REMARK    3  A    between atoms: C_6  and  C_7
REMARK    4  A    between atoms: C_7  and  C_8
REMARK    5  A    between atoms: N_10  and  C_11
REMARK    6  A    between atoms: C_19  and  C_20
REMARK    7  A    between atoms: N_22  and  S_23
REMARK    8  A    between atoms: S_23  and  C_26
REMARK    9  A    between atoms: C_29  and  N_30
REMARK                            x       y       z     vdW  Elec       q    Type
REMARK                         _______ _______ _______ _____ _____    ______ ____
ROOT
ATOM      1  C   UNL     1       3.228   4.170  19.447  0.00  0.00    +0.000 A 
ATOM      2  C   UNL     1       2.140   3.831  20.272  0.00  0.00    +0.000 A 
ATOM      3  C   UNL     1       1.256   4.803  20.771  0.00  0.00    +0.000 A 
ATOM      4  C   UNL     1       1.390   6.158  20.495  0.00  0.00    +0.000 A 
ATOM      5  C   UNL     1       2.465   6.495  19.605  0.00  0.00    +0.000 A 
ATOM      6  C   UNL     1       3.379   5.512  19.052  0.00  0.00    +0.000 A 
ENDROOT
BRANCH   6   7
ATOM      7  C   UNL     1       4.472   5.964  18.122  0.00  0.00    +0.000 C 
ATOM      8  O   UNL     1       4.225   6.756  17.219  0.00  0.00    +0.000 OA
ATOM      9  N   UNL     1       5.790   5.484  18.288  0.00  0.00    +0.000 N 
ATOM     10  H   UNL     1       6.010   4.890  19.087  0.00  0.00    +0.000 HD
BRANCH   9  11
ATOM     11  S   UNL     1       7.122   5.768  17.308  0.00  0.00    +0.000 S 
ATOM     12  O   UNL     1       7.110   7.184  16.996  0.00  0.00    +0.000 OA
ATOM     13  O   UNL     1       8.286   5.167  17.925  0.00  0.00    +0.000 OA
BRANCH  11  14
ATOM     14  C   UNL     1       6.783   4.919  15.781  0.00  0.00    +0.000 A 
ATOM     15  C   UNL     1       7.419   5.333  14.604  0.00  0.00    +0.000 A 
ATOM     16  C   UNL     1       7.076   4.732  13.388  0.00  0.00    +0.000 A 
ATOM     17  C   UNL     1       6.120   3.703  13.365  0.00  0.00    +0.000 A 
ATOM     18  C   UNL     1       5.550   3.232  14.557  0.00  0.00    +0.000 A 
ATOM     19  C   UNL     1       5.893   3.837  15.769  0.00  0.00    +0.000 A 
BRANCH  17  20
ATOM     20  N   UNL     1       5.688   3.131  12.081  0.00  0.00    +0.000 N 
ATOM     21  O   UNL     1       6.477   2.377  11.495  0.00  0.00    +0.000 OA
ATOM     22  O   UNL     1       4.572   3.451  11.651  0.00  0.00    +0.000 OA
ENDBRANCH  17  20
ENDBRANCH  11  14
ENDBRANCH   9  11
ENDBRANCH   6   7
BRANCH   1  24
ATOM     23  C   UNL     1       3.613   2.052  18.393  0.00  0.00    +0.000 C 
ATOM     24  O   UNL     1       4.137   3.236  19.010  0.00  0.00    +0.000 OA
ENDBRANCH   1  24
BRANCH   4  25
ATOM     25  C   UNL     1       0.569   7.148  21.350  0.00  0.00    +0.000 C 
BRANCH  25  26
ATOM     26  C   UNL     1       0.943   8.630  21.266  0.00  0.00    +0.000 A 
ATOM     27  C   UNL     1       1.211   9.323  22.452  0.00  0.00    +0.000 A 
ATOM     28  N   UNL     1       0.508  10.494  22.288  0.00  0.00    +0.000 N 
ATOM     29  C   UNL     1      -0.851  10.713  22.771  0.00  0.00    +0.000 C 
ATOM     30  C   UNL     1       0.859  10.941  21.034  0.00  0.00    +0.000 A 
ATOM     31  C   UNL     1       0.880  12.264  20.567  0.00  0.00    +0.000 A 
ATOM     32  C   UNL     1       0.987  12.462  19.204  0.00  0.00    +0.000 A 
ATOM     33  C   UNL     1       0.968  11.354  18.362  0.00  0.00    +0.000 A 
ATOM     34  C   UNL     1       0.898  10.007  18.862  0.00  0.00    +0.000 A 
ATOM     35  C   UNL     1       0.926   9.757  20.264  0.00  0.00    +0.000 A 
ENDBRANCH  25  26
ENDBRANCH   4  25
TORSDOF 7
ENDMDL
