MODEL 1
REMARK VINA RESULT:      -7.5      0.000      0.000
REMARK  Name = 
REMARK  9 active torsions:
REMARK  status: ('A' for Active; 'I' for Inactive)
REMARK    1  A    between atoms: C_1  and  C_2
REMARK    2  A    between atoms: C_2  and  C_3
REMARK    3  A    between atoms: C_4  and  C_5
REMARK    4  A    between atoms: C_5  and  C_6
REMARK    5  A    between atoms: C_6  and  C_7
REMARK    6  A    between atoms: C_7  and  C_8
REMARK    7  A    between atoms: C_7  and  N_9
REMARK    8  A    between atoms: C_7  and  C_10
REMARK    9  A    between atoms: C_13  and  C_14
REMARK                            x       y       z     vdW  Elec       q    Type
REMARK                         _______ _______ _______ _____ _____    ______ ____
ROOT
ATOM      1  C   UNL     1       4.060   4.019  17.931  0.00  0.00    +0.000 C 
ATOM      2  C   UNL     1       4.868   4.445  19.188  0.00  0.00    +0.000 C 
ENDROOT
BRANCH   1   3
ATOM      3  C   UNL     1       2.612   4.718  17.985  0.00  0.00    +0.000 C 
ATOM      4  C   UNL     1       1.315   3.864  17.950  0.00  0.00    +0.000 C 
ATOM      5  C   UNL     1       1.135   3.045  19.190  0.00  0.00    +0.000 C 
ATOM      6  C   UNL     1       1.524   3.510  20.383  0.00  0.00    +0.000 C 
ATOM      7  C   UNL     1       1.468   2.665  21.623  0.00  0.00    +0.000 C 
ATOM      8  C   UNL     1       2.130   4.895  20.531  0.00  0.00    +0.000 C 
ATOM      9  C   UNL     1       2.374   5.643  19.205  0.00  0.00    +0.000 C 
ENDBRANCH   1   3
BRANCH   1  10
ATOM     10  N   UNL     1       4.032   2.551  17.960  0.00  0.00    +0.000 NA
ATOM     11  H   UNL     1       4.970   2.173  17.853  0.00  0.00    +0.000 HD
ATOM     12  H   UNL     1       3.495   2.188  17.174  0.00  0.00    +0.000 HD
ENDBRANCH   1  10
BRANCH   1  13
ATOM     13  C   UNL     1       4.933   4.432  16.694  0.00  0.00    +0.000 C 
BRANCH  13  14
ATOM     14  C   UNL     1       6.418   4.620  16.992  0.00  0.00    +0.000 C 
BRANCH  14  18
ATOM     15  C   UNL     1       7.782   8.186  17.631  0.00  0.00    +0.000 C 
ATOM     16  C   UNL     1       7.588   6.700  17.781  0.00  0.00    +0.000 C 
ATOM     17  C   UNL     1       8.004   6.100  19.099  0.00  0.00    +0.000 C 
ATOM     18  C   UNL     1       7.002   5.991  16.799  0.00  0.00    +0.000 C 
ENDBRANCH  14  18
ENDBRANCH  13  14
ENDBRANCH   1  13
TORSDOF 5
ENDMDL
MODEL 2
REMARK VINA RESULT:      -7.3      1.929      2.924
REMARK  Name = 
REMARK  9 active torsions:
REMARK  status: ('A' for Active; 'I' for Inactive)
REMARK    1  A    between atoms: C_1  and  C_2
REMARK    2  A    between atoms: C_2  and  C_3
REMARK    3  A    between atoms: C_4  and  C_5
REMARK    4  A    between atoms: C_5  and  C_6
REMARK    5  A    between atoms: C_6  and  C_7
REMARK    6  A    between atoms: C_7  and  C_8
REMARK    7  A    between atoms: C_7  and  N_9
REMARK    8  A    between atoms: C_7  and  C_10
REMARK    9  A    between atoms: C_13  and  C_14
REMARK                            x       y       z     vdW  Elec       q    Type
REMARK                         _______ _______ _______ _____ _____    ______ ____
ROOT
ATOM      1  C   UNL     1       4.647   4.112  18.327  0.00  0.00    +0.000 C 
ATOM      2  C   UNL     1       4.535   5.360  19.246  0.00  0.00    +0.000 C 
ENDROOT
BRANCH   1   3
ATOM      3  C   UNL     1       3.210   3.829  17.663  0.00  0.00    +0.000 C 
ATOM      4  C   UNL     1       2.556   2.422  17.753  0.00  0.00    +0.000 C 
ATOM      5  C   UNL     1       2.152   2.066  19.149  0.00  0.00    +0.000 C 
ATOM      6  C   UNL     1       1.699   3.001  19.993  0.00  0.00    +0.000 C 
ATOM      7  C   UNL     1       1.401   2.697  21.433  0.00  0.00    +0.000 C 
ATOM      8  C   UNL     1       1.545   4.449  19.557  0.00  0.00    +0.000 C 
ATOM      9  C   UNL     1       2.069   4.762  18.142  0.00  0.00    +0.000 C 
ENDBRANCH   1   3
BRANCH   1  10
ATOM     10  N   UNL     1       5.148   3.033  19.188  0.00  0.00    +0.000 NA
ATOM     11  H   UNL     1       4.487   2.261  19.216  0.00  0.00    +0.000 HD
ATOM     12  H   UNL     1       5.239   3.357  20.150  0.00  0.00    +0.000 HD
ENDBRANCH   1  10
BRANCH   1  13
ATOM     13  C   UNL     1       5.785   4.435  17.295  0.00  0.00    +0.000 C 
BRANCH  13  14
ATOM     14  C   UNL     1       5.296   4.927  15.935  0.00  0.00    +0.000 C 
BRANCH  14  18
ATOM     15  C   UNL     1       6.018   3.378  12.461  0.00  0.00    +0.000 C 
ATOM     16  C   UNL     1       6.249   4.110  13.757  0.00  0.00    +0.000 C 
ATOM     17  C   UNL     1       7.434   5.040  13.799  0.00  0.00    +0.000 C 
ATOM     18  C   UNL     1       5.380   3.975  14.776  0.00  0.00    +0.000 C 
ENDBRANCH  14  18
ENDBRANCH  13  14
ENDBRANCH   1  13
TORSDOF 5
ENDMDL
MODEL 3
REMARK VINA RESULT:      -7.2      1.212      5.819
REMARK  Name = 
REMARK  9 active torsions:
REMARK  status: ('A' for Active; 'I' for Inactive)
REMARK    1  A    between atoms: C_1  and  C_2
REMARK    2  A    between atoms: C_2  and  C_3
REMARK    3  A    between atoms: C_4  and  C_5
REMARK    4  A    between atoms: C_5  and  C_6
REMARK    5  A    between atoms: C_6  and  C_7
REMARK    6  A    between atoms: C_7  and  C_8
REMARK    7  A    between atoms: C_7  and  N_9
REMARK    8  A    between atoms: C_7  and  C_10
REMARK    9  A    between atoms: C_13  and  C_14
REMARK                            x       y       z     vdW  Elec       q    Type
REMARK                         _______ _______ _______ _____ _____    ______ ____
ROOT
ATOM      1  C   UNL     1       3.954   4.527  17.463  0.00  0.00    +0.000 C 
ATOM      2  C   UNL     1       4.786   3.856  18.591  0.00  0.00    +0.000 C 
ENDROOT
BRANCH   1   3
ATOM      3  C   UNL     1       4.905   4.758  16.187  0.00  0.00    +0.000 C 
ATOM      4  C   UNL     1       5.297   6.193  15.737  0.00  0.00    +0.000 C 
ATOM      5  C   UNL     1       6.193   6.877  16.721  0.00  0.00    +0.000 C 
ATOM      6  C   UNL     1       7.107   6.187  17.414  0.00  0.00    +0.000 C 
ATOM      7  C   UNL     1       7.936   6.823  18.492  0.00  0.00    +0.000 C 
ATOM      8  C   UNL     1       7.294   4.693  17.204  0.00  0.00    +0.000 C 
ATOM      9  C   UNL     1       6.276   4.039  16.250  0.00  0.00    +0.000 C 
ENDBRANCH   1   3
BRANCH   1  10
ATOM     10  N   UNL     1       3.411   5.758  18.054  0.00  0.00    +0.000 NA
ATOM     11  H   UNL     1       2.519   5.575  18.506  0.00  0.00    +0.000 HD
ATOM     12  H   UNL     1       3.220   6.448  17.328  0.00  0.00    +0.000 HD
ENDBRANCH   1  10
BRANCH   1  13
ATOM     13  C   UNL     1       2.734   3.575  17.199  0.00  0.00    +0.000 C 
BRANCH  13  14
ATOM     14  C   UNL     1       1.464   3.931  17.968  0.00  0.00    +0.000 C 
BRANCH  14  18
ATOM     15  C   UNL     1       1.386   2.651  21.620  0.00  0.00    +0.000 C 
ATOM     16  C   UNL     1       1.331   3.605  20.457  0.00  0.00    +0.000 C 
ATOM     17  C   UNL     1       1.570   5.060  20.771  0.00  0.00    +0.000 C 
ATOM     18  C   UNL     1       1.153   3.140  19.206  0.00  0.00    +0.000 C 
ENDBRANCH  14  18
ENDBRANCH  13  14
ENDBRANCH   1  13
TORSDOF 5
ENDMDL
MODEL 4
REMARK VINA RESULT:      -7.2      2.567      4.196
REMARK  Name = 
REMARK  9 active torsions:
REMARK  status: ('A' for Active; 'I' for Inactive)
REMARK    1  A    between atoms: C_1  and  C_2
REMARK    2  A    between atoms: C_2  and  C_3
REMARK    3  A    between atoms: C_4  and  C_5
REMARK    4  A    between atoms: C_5  and  C_6
REMARK    5  A    between atoms: C_6  and  C_7
REMARK    6  A    between atoms: C_7  and  C_8
REMARK    7  A    between atoms: C_7  and  N_9
REMARK    8  A    between atoms: C_7  and  C_10
REMARK    9  A    between atoms: C_13  and  C_14
REMARK                            x       y       z     vdW  Elec       q    Type
REMARK                         _______ _______ _______ _____ _____    ______ ____
ROOT
ATOM      1  C   UNL     1       6.369   5.565  17.345  0.00  0.00    +0.000 C 
ATOM      2  C   UNL     1       7.441   6.629  17.708  0.00  0.00    +0.000 C 
ENDROOT
BRANCH   1   3
ATOM      3  C   UNL     1       5.014   5.904  18.144  0.00  0.00    +0.000 C 
ATOM      4  C   UNL     1       3.625   5.672  17.486  0.00  0.00    +0.000 C 
ATOM      5  C   UNL     1       3.322   4.221  17.283  0.00  0.00    +0.000 C 
ATOM      6  C   UNL     1       3.739   3.302  18.162  0.00  0.00    +0.000 C 
ATOM      7  C   UNL     1       3.556   1.831  17.924  0.00  0.00    +0.000 C 
ATOM      8  C   UNL     1       4.503   3.698  19.415  0.00  0.00    +0.000 C 
ATOM      9  C   UNL     1       4.862   5.194  19.512  0.00  0.00    +0.000 C 
ENDBRANCH   1   3
BRANCH   1  10
ATOM     10  N   UNL     1       6.971   4.268  17.683  0.00  0.00    +0.000 NA
ATOM     11  H   UNL     1       6.379   3.757  18.332  0.00  0.00    +0.000 HD
ATOM     12  H   UNL     1       7.860   4.402  18.163  0.00  0.00    +0.000 HD
ENDBRANCH   1  10
BRANCH   1  13
ATOM     13  C   UNL     1       6.228   5.606  15.783  0.00  0.00    +0.000 C 
BRANCH  13  14
ATOM     14  C   UNL     1       6.672   4.334  15.065  0.00  0.00    +0.000 C 
BRANCH  14  18
ATOM     15  C   UNL     1       4.691   3.357  11.886  0.00  0.00    +0.000 C 
ATOM     16  C   UNL     1       5.862   3.648  12.786  0.00  0.00    +0.000 C 
ATOM     17  C   UNL     1       7.168   3.967  12.105  0.00  0.00    +0.000 C 
ATOM     18  C   UNL     1       5.698   3.688  14.121  0.00  0.00    +0.000 C 
ENDBRANCH  14  18
ENDBRANCH  13  14
ENDBRANCH   1  13
TORSDOF 5
ENDMDL
MODEL 5
REMARK VINA RESULT:      -7.1      1.197      2.335
REMARK  Name = 
REMARK  9 active torsions:
REMARK  status: ('A' for Active; 'I' for Inactive)
REMARK    1  A    between atoms: C_1  and  C_2
REMARK    2  A    between atoms: C_2  and  C_3
REMARK    3  A    between atoms: C_4  and  C_5
REMARK    4  A    between atoms: C_5  and  C_6
REMARK    5  A    between atoms: C_6  and  C_7
REMARK    6  A    between atoms: C_7  and  C_8
REMARK    7  A    between atoms: C_7  and  N_9
REMARK    8  A    between atoms: C_7  and  C_10
REMARK    9  A    between atoms: C_13  and  C_14
REMARK                            x       y       z     vdW  Elec       q    Type
REMARK                         _______ _______ _______ _____ _____    ______ ____
ROOT
ATOM      1  C   UNL     1       3.680   2.178  18.977  0.00  0.00    +0.000 C 
ATOM      2  C   UNL     1       4.478   2.283  20.306  0.00  0.00    +0.000 C 
ENDROOT
BRANCH   1   3
ATOM      3  C   UNL     1       2.121   2.423  19.290  0.00  0.00    +0.000 C 
ATOM      4  C   UNL     1       1.675   3.138  20.596  0.00  0.00    +0.000 C 
ATOM      5  C   UNL     1       2.065   4.583  20.620  0.00  0.00    +0.000 C 
ATOM      6  C   UNL     1       2.065   5.312  19.497  0.00  0.00    +0.000 C 
ATOM      7  C   UNL     1       2.565   6.728  19.469  0.00  0.00    +0.000 C 
ATOM      8  C   UNL     1       1.639   4.714  18.167  0.00  0.00    +0.000 C 
ATOM      9  C   UNL     1       1.345   3.202  18.198  0.00  0.00    +0.000 C 
ENDBRANCH   1   3
BRANCH   1  10
ATOM     10  N   UNL     1       3.994   0.851  18.433  0.00  0.00    +0.000 NA
ATOM     11  H   UNL     1       4.481   0.286  19.124  0.00  0.00    +0.000 HD
ATOM     12  H   UNL     1       4.631   0.931  17.641  0.00  0.00    +0.000 HD
ENDBRANCH   1  10
BRANCH   1  13
ATOM     13  C   UNL     1       4.318   3.230  18.003  0.00  0.00    +0.000 C 
BRANCH  13  14
ATOM     14  C   UNL     1       5.344   4.160  18.647  0.00  0.00    +0.000 C 
BRANCH  14  18
ATOM     15  C   UNL     1       7.244   7.324  17.479  0.00  0.00    +0.000 C 
ATOM     16  C   UNL     1       6.976   6.010  18.165  0.00  0.00    +0.000 C 
ATOM     17  C   UNL     1       7.890   5.651  19.307  0.00  0.00    +0.000 C 
ATOM     18  C   UNL     1       5.920   5.259  17.800  0.00  0.00    +0.000 C 
ENDBRANCH  14  18
ENDBRANCH  13  14
ENDBRANCH   1  13
TORSDOF 5
ENDMDL
MODEL 6
REMARK VINA RESULT:      -7.0      1.667      2.825
REMARK  Name = 
REMARK  9 active torsions:
REMARK  status: ('A' for Active; 'I' for Inactive)
REMARK    1  A    between atoms: C_1  and  C_2
REMARK    2  A    between atoms: C_2  and  C_3
REMARK    3  A    between atoms: C_4  and  C_5
REMARK    4  A    between atoms: C_5  and  C_6
REMARK    5  A    between atoms: C_6  and  C_7
REMARK    6  A    between atoms: C_7  and  C_8
REMARK    7  A    between atoms: C_7  and  N_9
REMARK    8  A    between atoms: C_7  and  C_10
REMARK    9  A    between atoms: C_13  and  C_14
REMARK                            x       y       z     vdW  Elec       q    Type
REMARK                         _______ _______ _______ _____ _____    ______ ____
ROOT
ATOM      1  C   UNL     1       3.428   2.115  18.901  0.00  0.00    +0.000 C 
ATOM      2  C   UNL     1       4.563   2.776  19.732  0.00  0.00    +0.000 C 
ENDROOT
BRANCH   1   3
ATOM      3  C   UNL     1       2.115   1.998  19.822  0.00  0.00    +0.000 C 
ATOM      4  C   UNL     1       2.129   2.496  21.294  0.00  0.00    +0.000 C 
ATOM      5  C   UNL     1       2.253   3.984  21.393  0.00  0.00    +0.000 C 
ATOM      6  C   UNL     1       1.677   4.783  20.487  0.00  0.00    +0.000 C 
ATOM      7  C   UNL     1       1.883   6.271  20.492  0.00  0.00    +0.000 C 
ATOM      8  C   UNL     1       0.851   4.215  19.345  0.00  0.00    +0.000 C 
ATOM      9  C   UNL     1       0.846   2.677  19.249  0.00  0.00    +0.000 C 
ENDBRANCH   1   3
BRANCH   1  10
ATOM     10  N   UNL     1       3.972   0.830  18.443  0.00  0.00    +0.000 NA
ATOM     11  H   UNL     1       3.529   0.542  17.575  0.00  0.00    +0.000 HD
ATOM     12  H   UNL     1       3.766   0.094  19.118  0.00  0.00    +0.000 HD
ENDBRANCH   1  10
BRANCH   1  13
ATOM     13  C   UNL     1       3.247   3.011  17.625  0.00  0.00    +0.000 C 
BRANCH  13  14
ATOM     14  C   UNL     1       4.309   4.093  17.446  0.00  0.00    +0.000 C 
BRANCH  14  18
ATOM     15  C   UNL     1       6.983   4.828  14.744  0.00  0.00    +0.000 C 
ATOM     16  C   UNL     1       6.385   4.467  16.079  0.00  0.00    +0.000 C 
ATOM     17  C   UNL     1       7.280   4.628  17.280  0.00  0.00    +0.000 C 
ATOM     18  C   UNL     1       5.094   4.096  16.165  0.00  0.00    +0.000 C 
ENDBRANCH  14  18
ENDBRANCH  13  14
ENDBRANCH   1  13
TORSDOF 5
ENDMDL
MODEL 7
REMARK VINA RESULT:      -7.0      2.806      4.444
REMARK  Name = 
REMARK  9 active torsions:
REMARK  status: ('A' for Active; 'I' for Inactive)
REMARK    1  A    between atoms: C_1  and  C_2
REMARK    2  A    between atoms: C_2  and  C_3
REMARK    3  A    between atoms: C_4  and  C_5
REMARK    4  A    between atoms: C_5  and  C_6
REMARK    5  A    between atoms: C_6  and  C_7
REMARK    6  A    between atoms: C_7  and  C_8
REMARK    7  A    between atoms: C_7  and  N_9
REMARK    8  A    between atoms: C_7  and  C_10
REMARK    9  A    between atoms: C_13  and  C_14
REMARK                            x       y       z     vdW  Elec       q    Type
REMARK                         _______ _______ _______ _____ _____    ______ ____
ROOT
ATOM      1  C   UNL     1       5.896   4.830  16.815  0.00  0.00    +0.000 C 
ATOM      2  C   UNL     1       7.424   4.616  16.999  0.00  0.00    +0.000 C 
ENDROOT
BRANCH   1   3
ATOM      3  C   UNL     1       5.371   5.821  17.968  0.00  0.00    +0.000 C 
ATOM      4  C   UNL     1       4.120   6.715  17.738  0.00  0.00    +0.000 C 
ATOM      5  C   UNL     1       2.858   5.919  17.635  0.00  0.00    +0.000 C 
ATOM      6  C   UNL     1       2.685   4.808  18.361  0.00  0.00    +0.000 C 
ATOM      7  C   UNL     1       1.483   3.924  18.190  0.00  0.00    +0.000 C 
ATOM      8  C   UNL     1       3.745   4.332  19.340  0.00  0.00    +0.000 C 
ATOM      9  C   UNL     1       5.055   5.144  19.325  0.00  0.00    +0.000 C 
ENDBRANCH   1   3
BRANCH   1  10
ATOM     10  N   UNL     1       5.305   3.486  16.846  0.00  0.00    +0.000 NA
ATOM     11  H   UNL     1       4.337   3.527  17.152  0.00  0.00    +0.000 HD
ATOM     12  H   UNL     1       5.786   2.900  17.527  0.00  0.00    +0.000 HD
ENDBRANCH   1  10
BRANCH   1  13
ATOM     13  C   UNL     1       5.707   5.375  15.355  0.00  0.00    +0.000 C 
BRANCH  13  14
ATOM     14  C   UNL     1       5.213   4.342  14.345  0.00  0.00    +0.000 C 
BRANCH  14  18
ATOM     15  C   UNL     1       6.858   2.343  11.467  0.00  0.00    +0.000 C 
ATOM     16  C   UNL     1       5.865   3.207  12.199  0.00  0.00    +0.000 C 
ATOM     17  C   UNL     1       4.482   3.288  11.607  0.00  0.00    +0.000 C 
ATOM     18  C   UNL     1       6.207   3.798  13.359  0.00  0.00    +0.000 C 
ENDBRANCH  14  18
ENDBRANCH  13  14
ENDBRANCH   1  13
TORSDOF 5
ENDMDL
MODEL 8
REMARK VINA RESULT:      -7.0      1.763      2.777
REMARK  Name = 
REMARK  9 active torsions:
REMARK  status: ('A' for Active; 'I' for Inactive)
REMARK    1  A    between atoms: C_1  and  C_2
REMARK    2  A    between atoms: C_2  and  C_3
REMARK    3  A    between atoms: C_4  and  C_5
REMARK    4  A    between atoms: C_5  and  C_6
REMARK    5  A    between atoms: C_6  and  C_7
REMARK    6  A    between atoms: C_7  and  C_8
REMARK    7  A    between atoms: C_7  and  N_9
REMARK    8  A    between atoms: C_7  and  C_10
REMARK    9  A    between atoms: C_13  and  C_14
REMARK                            x       y       z     vdW  Elec       q    Type
REMARK                         _______ _______ _______ _____ _____    ______ ____
ROOT
ATOM      1  C   UNL     1       4.148   4.708  17.981  0.00  0.00    +0.000 C 
ATOM      2  C   UNL     1       4.903   5.279  19.214  0.00  0.00    +0.000 C 
ENDROOT
BRANCH   1   3
ATOM      3  C   UNL     1       2.616   5.196  18.044  0.00  0.00    +0.000 C 
ATOM      4  C   UNL     1       1.451   4.176  17.905  0.00  0.00    +0.000 C 
ATOM      5  C   UNL     1       1.362   3.246  19.074  0.00  0.00    +0.000 C 
ATOM      6  C   UNL     1       1.659   3.665  20.310  0.00  0.00    +0.000 C 
ATOM      7  C   UNL     1       1.696   2.727  21.482  0.00  0.00    +0.000 C 
ATOM      8  C   UNL     1       2.063   5.105  20.579  0.00  0.00    +0.000 C 
ATOM      9  C   UNL     1       2.227   5.981  19.321  0.00  0.00    +0.000 C 
ENDBRANCH   1   3
BRANCH   1  10
ATOM     10  N   UNL     1       4.330   3.252  18.048  0.00  0.00    +0.000 NA
ATOM     11  H   UNL     1       4.047   2.815  17.175  0.00  0.00    +0.000 HD
ATOM     12  H   UNL     1       3.730   2.849  18.767  0.00  0.00    +0.000 HD
ENDBRANCH   1  10
BRANCH   1  13
ATOM     13  C   UNL     1       4.936   5.207  16.720  0.00  0.00    +0.000 C 
BRANCH  13  14
ATOM     14  C   UNL     1       6.053   4.277  16.252  0.00  0.00    +0.000 C 
BRANCH  14  18
ATOM     15  C   UNL     1       5.804   3.452  12.478  0.00  0.00    +0.000 C 
ATOM     16  C   UNL     1       6.357   3.984  13.774  0.00  0.00    +0.000 C 
ATOM     17  C   UNL     1       7.408   5.058  13.665  0.00  0.00    +0.000 C 
ATOM     18  C   UNL     1       5.861   3.554  14.949  0.00  0.00    +0.000 C 
ENDBRANCH  14  18
ENDBRANCH  13  14
ENDBRANCH   1  13
TORSDOF 5
ENDMDL
MODEL 9
REMARK VINA RESULT:      -6.9      1.831      2.655
REMARK  Name = 
REMARK  9 active torsions:
REMARK  status: ('A' for Active; 'I' for Inactive)
REMARK    1  A    between atoms: C_1  and  C_2
REMARK    2  A    between atoms: C_2  and  C_3
REMARK    3  A    between atoms: C_4  and  C_5
REMARK    4  A    between atoms: C_5  and  C_6
REMARK    5  A    between atoms: C_6  and  C_7
REMARK    6  A    between atoms: C_7  and  C_8
REMARK    7  A    between atoms: C_7  and  N_9
REMARK    8  A    between atoms: C_7  and  C_10
REMARK    9  A    between atoms: C_13  and  C_14
REMARK                            x       y       z     vdW  Elec       q    Type
REMARK                         _______ _______ _______ _____ _____    ______ ____
ROOT
ATOM      1  C   UNL     1       3.462   5.814  18.607  0.00  0.00    +0.000 C 
ATOM      2  C   UNL     1       2.288   6.371  19.460  0.00  0.00    +0.000 C 
ENDROOT
BRANCH   1   3
ATOM      3  C   UNL     1       2.984   4.452  17.897  0.00  0.00    +0.000 C 
ATOM      4  C   UNL     1       3.655   3.095  18.248  0.00  0.00    +0.000 C 
ATOM      5  C   UNL     1       3.354   2.652  19.646  0.00  0.00    +0.000 C 
ATOM      6  C   UNL     1       2.164   2.905  20.205  0.00  0.00    +0.000 C 
ATOM      7  C   UNL     1       1.876   2.581  21.642  0.00  0.00    +0.000 C 
ATOM      8  C   UNL     1       1.066   3.619  19.435  0.00  0.00    +0.000 C 
ATOM      9  C   UNL     1       1.476   4.130  18.040  0.00  0.00    +0.000 C 
ENDBRANCH   1   3
BRANCH   1  10
ATOM     10  N   UNL     1       4.586   5.658  19.539  0.00  0.00    +0.000 NA
ATOM     11  H   UNL     1       4.458   4.833  20.120  0.00  0.00    +0.000 HD
ATOM     12  H   UNL     1       4.629   6.447  20.183  0.00  0.00    +0.000 HD
ENDBRANCH   1  10
BRANCH   1  13
ATOM     13  C   UNL     1       3.856   6.961  17.610  0.00  0.00    +0.000 C 
BRANCH  13  14
ATOM     14  C   UNL     1       5.221   6.794  16.947  0.00  0.00    +0.000 C 
BRANCH  14  18
ATOM     15  C   UNL     1       6.536   4.347  14.251  0.00  0.00    +0.000 C 
ATOM     16  C   UNL     1       6.259   4.937  15.609  0.00  0.00    +0.000 C 
ATOM     17  C   UNL     1       7.147   4.472  16.735  0.00  0.00    +0.000 C 
ATOM     18  C   UNL     1       5.312   5.881  15.757  0.00  0.00    +0.000 C 
ENDBRANCH  14  18
ENDBRANCH  13  14
ENDBRANCH   1  13
TORSDOF 5
ENDMDL
