MODEL 1
REMARK VINA RESULT:      -8.4      0.000      0.000
REMARK  Name = 
REMARK  4 active torsions:
REMARK  status: ('A' for Active; 'I' for Inactive)
REMARK    1  A    between atoms: N_4  and  C_5
REMARK    2  A    between atoms: C_5  and  C_6
REMARK    3  A    between atoms: N_9  and  C_10
REMARK    4  A    between atoms: C_12  and  C_13
REMARK                            x       y       z     vdW  Elec       q    Type
REMARK                         _______ _______ _______ _____ _____    ______ ____
ROOT
ATOM      1  C   UNL     1       3.455   5.849  19.010  0.00  0.00    +0.000 A 
ATOM      2  N   UNL     1       4.700   6.251  18.675  0.00  0.00    +0.000 NA
ATOM      3  C   UNL     1       5.713   5.369  18.680  0.00  0.00    +0.000 A 
ATOM      4  N   UNL     1       5.555   4.085  19.028  0.00  0.00    +0.000 NA
ATOM      5  C   UNL     1       4.310   3.671  19.329  0.00  0.00    +0.000 A 
ATOM      6  C   UNL     1       3.197   4.508  19.294  0.00  0.00    +0.000 A 
ATOM      7  C   UNL     1       1.827   3.909  19.493  0.00  0.00    +0.000 C 
ATOM      8  C   UNL     1       1.453   2.848  18.446  0.00  0.00    +0.000 C 
ATOM      9  N   UNL     1       1.974   1.510  18.727  0.00  0.00    +0.000 NA
ATOM     10  C   UNL     1       3.433   1.429  18.604  0.00  0.00    +0.000 C 
ATOM     11  C   UNL     1       4.186   2.211  19.679  0.00  0.00    +0.000 C 
ATOM     12  H   UNL     1       1.560   0.861  18.055  0.00  0.00    +0.000 HD
ENDROOT
BRANCH   1  16
ATOM     13  C   UNL     1       1.062   9.305  19.246  0.00  0.00    +0.000 C 
ATOM     14  C   UNL     1       2.080   9.094  18.114  0.00  0.00    +0.000 C 
ATOM     15  C   UNL     1       2.221   7.598  17.831  0.00  0.00    +0.000 C 
ATOM     16  N   UNL     1       2.509   6.855  19.062  0.00  0.00    +0.000 N 
ATOM     17  C   UNL     1       1.749   7.158  20.271  0.00  0.00    +0.000 C 
ATOM     18  C   UNL     1       1.643   8.659  20.503  0.00  0.00    +0.000 C 
BRANCH  13  19
ATOM     19  C   UNL     1       0.684  10.768  19.478  0.00  0.00    +0.000 C 
BRANCH  19  23
ATOM     20  C   UNL     1      -2.615  10.891  18.040  0.00  0.00    +0.000 A 
ATOM     21  C   UNL     1      -2.596  11.889  19.033  0.00  0.00    +0.000 A 
ATOM     22  N   UNL     1      -1.393  12.010  19.601  0.00  0.00    +0.000 NA
ATOM     23  N   UNL     1      -0.656  11.057  18.995  0.00  0.00    +0.000 N 
ATOM     24  C   UNL     1      -1.340  10.381  18.029  0.00  0.00    +0.000 A 
ENDBRANCH  19  23
ENDBRANCH  13  19
ENDBRANCH   1  16
BRANCH   3  25
ATOM     25  C   UNL     1       7.095   5.842  18.299  0.00  0.00    +0.000 C 
ATOM     26  C   UNL     1       7.448   6.046  16.841  0.00  0.00    +0.000 C 
ATOM     27  C   UNL     1       7.310   7.233  17.745  0.00  0.00    +0.000 C 
ENDBRANCH   3  25
TORSDOF 4
ENDMDL
MODEL 2
REMARK VINA RESULT:      -8.3      1.806      4.170
REMARK  Name = 
REMARK  4 active torsions:
REMARK  status: ('A' for Active; 'I' for Inactive)
REMARK    1  A    between atoms: N_4  and  C_5
REMARK    2  A    between atoms: C_5  and  C_6
REMARK    3  A    between atoms: N_9  and  C_10
REMARK    4  A    between atoms: C_12  and  C_13
REMARK                            x       y       z     vdW  Elec       q    Type
REMARK                         _______ _______ _______ _____ _____    ______ ____
ROOT
ATOM      1  C   UNL     1       3.136   6.080  17.993  0.00  0.00    +0.000 A 
ATOM      2  N   UNL     1       2.412   4.981  18.297  0.00  0.00    +0.000 NA
ATOM      3  C   UNL     1       2.739   3.794  17.759  0.00  0.00    +0.000 A 
ATOM      4  N   UNL     1       3.756   3.642  16.902  0.00  0.00    +0.000 NA
ATOM      5  C   UNL     1       4.502   4.727  16.623  0.00  0.00    +0.000 A 
ATOM      6  C   UNL     1       4.265   5.981  17.180  0.00  0.00    +0.000 A 
ATOM      7  C   UNL     1       5.254   7.091  16.926  0.00  0.00    +0.000 C 
ATOM      8  C   UNL     1       6.673   6.789  17.431  0.00  0.00    +0.000 C 
ATOM      9  N   UNL     1       7.484   5.986  16.515  0.00  0.00    +0.000 NA
ATOM     10  C   UNL     1       7.003   4.607  16.387  0.00  0.00    +0.000 C 
ATOM     11  C   UNL     1       5.653   4.489  15.680  0.00  0.00    +0.000 C 
ATOM     12  H   UNL     1       8.439   5.958  16.878  0.00  0.00    +0.000 HD
ENDROOT
BRANCH   1  16
ATOM     13  C   UNL     1       1.109   9.409  19.586  0.00  0.00    +0.000 C 
ATOM     14  C   UNL     1       1.147   8.054  20.310  0.00  0.00    +0.000 C 
ATOM     15  C   UNL     1       2.455   7.336  19.975  0.00  0.00    +0.000 C 
ATOM     16  N   UNL     1       2.658   7.263  18.525  0.00  0.00    +0.000 N 
ATOM     17  C   UNL     1       2.409   8.448  17.711  0.00  0.00    +0.000 C 
ATOM     18  C   UNL     1       1.095   9.120  18.085  0.00  0.00    +0.000 C 
BRANCH  13  19
ATOM     19  C   UNL     1      -0.055  10.307  20.005  0.00  0.00    +0.000 C 
BRANCH  19  23
ATOM     20  C   UNL     1       0.954  13.552  18.816  0.00  0.00    +0.000 A 
ATOM     21  C   UNL     1      -0.333  13.338  18.289  0.00  0.00    +0.000 A 
ATOM     22  N   UNL     1      -0.868  12.193  18.719  0.00  0.00    +0.000 NA
ATOM     23  N   UNL     1       0.100  11.657  19.490  0.00  0.00    +0.000 N 
ATOM     24  C   UNL     1       1.200  12.454  19.602  0.00  0.00    +0.000 A 
ENDBRANCH  19  23
ENDBRANCH  13  19
ENDBRANCH   1  16
BRANCH   3  25
ATOM     25  C   UNL     1       1.916   2.580  18.117  0.00  0.00    +0.000 C 
ATOM     26  C   UNL     1       1.920   2.056  19.538  0.00  0.00    +0.000 C 
ATOM     27  C   UNL     1       0.688   2.709  18.990  0.00  0.00    +0.000 C 
ENDBRANCH   3  25
TORSDOF 4
ENDMDL
MODEL 3
REMARK VINA RESULT:      -8.1      1.909      4.068
REMARK  Name = 
REMARK  4 active torsions:
REMARK  status: ('A' for Active; 'I' for Inactive)
REMARK    1  A    between atoms: N_4  and  C_5
REMARK    2  A    between atoms: C_5  and  C_6
REMARK    3  A    between atoms: N_9  and  C_10
REMARK    4  A    between atoms: C_12  and  C_13
REMARK                            x       y       z     vdW  Elec       q    Type
REMARK                         _______ _______ _______ _____ _____    ______ ____
ROOT
ATOM      1  C   UNL     1       3.023   6.205  18.554  0.00  0.00    +0.000 A 
ATOM      2  N   UNL     1       2.473   5.201  19.271  0.00  0.00    +0.000 NA
ATOM      3  C   UNL     1       2.831   3.929  19.028  0.00  0.00    +0.000 A 
ATOM      4  N   UNL     1       3.710   3.593  18.076  0.00  0.00    +0.000 NA
ATOM      5  C   UNL     1       4.287   4.591  17.381  0.00  0.00    +0.000 A 
ATOM      6  C   UNL     1       4.013   5.938  17.608  0.00  0.00    +0.000 A 
ATOM      7  C   UNL     1       4.831   6.980  16.886  0.00  0.00    +0.000 C 
ATOM      8  C   UNL     1       6.335   6.912  17.190  0.00  0.00    +0.000 C 
ATOM      9  N   UNL     1       7.069   5.926  16.397  0.00  0.00    +0.000 NA
ATOM     10  C   UNL     1       6.718   4.544  16.739  0.00  0.00    +0.000 C 
ATOM     11  C   UNL     1       5.293   4.156  16.347  0.00  0.00    +0.000 C 
ATOM     12  H   UNL     1       8.067   6.055  16.574  0.00  0.00    +0.000 HD
ENDROOT
BRANCH   1  16
ATOM     13  C   UNL     1       0.908   9.766  19.309  0.00  0.00    +0.000 C 
ATOM     14  C   UNL     1       0.812   8.548  20.240  0.00  0.00    +0.000 C 
ATOM     15  C   UNL     1       2.130   7.773  20.200  0.00  0.00    +0.000 C 
ATOM     16  N   UNL     1       2.516   7.462  18.820  0.00  0.00    +0.000 N 
ATOM     17  C   UNL     1       2.410   8.501  17.800  0.00  0.00    +0.000 C 
ATOM     18  C   UNL     1       1.079   9.236  17.885  0.00  0.00    +0.000 C 
BRANCH  13  19
ATOM     19  C   UNL     1      -0.272  10.730  19.420  0.00  0.00    +0.000 C 
BRANCH  19  23
ATOM     20  C   UNL     1       0.105  14.231  18.664  0.00  0.00    +0.000 A 
ATOM     21  C   UNL     1       1.255  13.874  19.392  0.00  0.00    +0.000 A 
ATOM     22  N   UNL     1       1.287  12.568  19.673  0.00  0.00    +0.000 NA
ATOM     23  N   UNL     1       0.131  12.102  19.158  0.00  0.00    +0.000 N 
ATOM     24  C   UNL     1      -0.596  13.059  18.515  0.00  0.00    +0.000 A 
ENDBRANCH  19  23
ENDBRANCH  13  19
ENDBRANCH   1  16
BRANCH   3  25
ATOM     25  C   UNL     1       2.204   2.826  19.846  0.00  0.00    +0.000 C 
ATOM     26  C   UNL     1       2.518   2.709  21.323  0.00  0.00    +0.000 C 
ATOM     27  C   UNL     1       1.151   3.138  20.885  0.00  0.00    +0.000 C 
ENDBRANCH   3  25
TORSDOF 4
ENDMDL
MODEL 4
REMARK VINA RESULT:      -8.0      0.635      1.069
REMARK  Name = 
REMARK  4 active torsions:
REMARK  status: ('A' for Active; 'I' for Inactive)
REMARK    1  A    between atoms: N_4  and  C_5
REMARK    2  A    between atoms: C_5  and  C_6
REMARK    3  A    between atoms: N_9  and  C_10
REMARK    4  A    between atoms: C_12  and  C_13
REMARK                            x       y       z     vdW  Elec       q    Type
REMARK                         _______ _______ _______ _____ _____    ______ ____
ROOT
ATOM      1  C   UNL     1       3.257   5.866  19.112  0.00  0.00    +0.000 A 
ATOM      2  N   UNL     1       4.496   6.247  18.733  0.00  0.00    +0.000 NA
ATOM      3  C   UNL     1       5.486   5.341  18.668  0.00  0.00    +0.000 A 
ATOM      4  N   UNL     1       5.311   4.052  18.988  0.00  0.00    +0.000 NA
ATOM      5  C   UNL     1       4.070   3.660  19.333  0.00  0.00    +0.000 A 
ATOM      6  C   UNL     1       2.978   4.524  19.371  0.00  0.00    +0.000 A 
ATOM      7  C   UNL     1       1.604   3.953  19.615  0.00  0.00    +0.000 C 
ATOM      8  C   UNL     1       1.157   2.932  18.558  0.00  0.00    +0.000 C 
ATOM      9  N   UNL     1       1.655   1.574  18.778  0.00  0.00    +0.000 NA
ATOM     10  C   UNL     1       3.105   1.461  18.587  0.00  0.00    +0.000 C 
ATOM     11  C   UNL     1       3.925   2.194  19.648  0.00  0.00    +0.000 C 
ATOM     12  H   UNL     1       1.196   0.955  18.108  0.00  0.00    +0.000 HD
ENDROOT
BRANCH   1  16
ATOM     13  C   UNL     1       0.966   9.368  19.575  0.00  0.00    +0.000 C 
ATOM     14  C   UNL     1       1.959   9.190  18.416  0.00  0.00    +0.000 C 
ATOM     15  C   UNL     1       2.054   7.708  18.051  0.00  0.00    +0.000 C 
ATOM     16  N   UNL     1       2.340   6.893  19.235  0.00  0.00    +0.000 N 
ATOM     17  C   UNL     1       1.609   7.151  20.471  0.00  0.00    +0.000 C 
ATOM     18  C   UNL     1       1.548   8.640  20.786  0.00  0.00    +0.000 C 
BRANCH  13  19
ATOM     19  C   UNL     1       0.632  10.825  19.891  0.00  0.00    +0.000 C 
BRANCH  19  23
ATOM     20  C   UNL     1      -2.674  12.159  19.384  0.00  0.00    +0.000 A 
ATOM     21  C   UNL     1      -2.518  11.152  18.412  0.00  0.00    +0.000 A 
ATOM     22  N   UNL     1      -1.353  10.511  18.537  0.00  0.00    +0.000 NA
ATOM     23  N   UNL     1      -0.749  11.140  19.565  0.00  0.00    +0.000 N 
ATOM     24  C   UNL     1      -1.519  12.116  20.124  0.00  0.00    +0.000 A 
ENDBRANCH  19  23
ENDBRANCH  13  19
ENDBRANCH   1  16
BRANCH   3  25
ATOM     25  C   UNL     1       6.861   5.791  18.238  0.00  0.00    +0.000 C 
ATOM     26  C   UNL     1       7.982   5.872  19.253  0.00  0.00    +0.000 C 
ATOM     27  C   UNL     1       8.014   4.815  18.191  0.00  0.00    +0.000 C 
ENDBRANCH   3  25
TORSDOF 4
ENDMDL
MODEL 5
REMARK VINA RESULT:      -8.0      1.568      3.960
REMARK  Name = 
REMARK  4 active torsions:
REMARK  status: ('A' for Active; 'I' for Inactive)
REMARK    1  A    between atoms: N_4  and  C_5
REMARK    2  A    between atoms: C_5  and  C_6
REMARK    3  A    between atoms: N_9  and  C_10
REMARK    4  A    between atoms: C_12  and  C_13
REMARK                            x       y       z     vdW  Elec       q    Type
REMARK                         _______ _______ _______ _____ _____    ______ ____
ROOT
ATOM      1  C   UNL     1       3.028   6.187  18.064  0.00  0.00    +0.000 A 
ATOM      2  N   UNL     1       2.229   5.139  18.362  0.00  0.00    +0.000 NA
ATOM      3  C   UNL     1       2.511   3.921  17.870  0.00  0.00    +0.000 A 
ATOM      4  N   UNL     1       3.554   3.688  17.065  0.00  0.00    +0.000 NA
ATOM      5  C   UNL     1       4.373   4.721  16.792  0.00  0.00    +0.000 A 
ATOM      6  C   UNL     1       4.184   6.001  17.306  0.00  0.00    +0.000 A 
ATOM      7  C   UNL     1       5.245   7.047  17.069  0.00  0.00    +0.000 C 
ATOM      8  C   UNL     1       6.620   6.680  17.646  0.00  0.00    +0.000 C 
ATOM      9  N   UNL     1       7.424   5.808  16.789  0.00  0.00    +0.000 NA
ATOM     10  C   UNL     1       6.871   4.455  16.674  0.00  0.00    +0.000 C 
ATOM     11  C   UNL     1       5.549   4.393  15.910  0.00  0.00    +0.000 C 
ATOM     12  H   UNL     1       8.359   5.737  17.195  0.00  0.00    +0.000 HD
ENDROOT
BRANCH   1  16
ATOM     13  C   UNL     1       1.125   9.669  19.471  0.00  0.00    +0.000 C 
ATOM     14  C   UNL     1       1.040   8.333  20.224  0.00  0.00    +0.000 C 
ATOM     15  C   UNL     1       2.318   7.529  19.978  0.00  0.00    +0.000 C 
ATOM     16  N   UNL     1       2.594   7.408  18.543  0.00  0.00    +0.000 N 
ATOM     17  C   UNL     1       2.464   8.586  17.691  0.00  0.00    +0.000 C 
ATOM     18  C   UNL     1       1.176   9.345  17.978  0.00  0.00    +0.000 C 
BRANCH  13  19
ATOM     19  C   UNL     1      -0.002  10.646  19.805  0.00  0.00    +0.000 C 
BRANCH  19  23
ATOM     20  C   UNL     1      -2.736  10.297  17.488  0.00  0.00    +0.000 A 
ATOM     21  C   UNL     1      -2.237  11.598  17.292  0.00  0.00    +0.000 A 
ATOM     22  N   UNL     1      -1.156  11.839  18.040  0.00  0.00    +0.000 NA
ATOM     23  N   UNL     1      -0.994  10.700  18.744  0.00  0.00    +0.000 N 
ATOM     24  C   UNL     1      -1.901   9.736  18.422  0.00  0.00    +0.000 A 
ENDBRANCH  19  23
ENDBRANCH  13  19
ENDBRANCH   1  16
BRANCH   3  25
ATOM     25  C   UNL     1       1.605   2.765  18.221  0.00  0.00    +0.000 C 
ATOM     26  C   UNL     1       1.872   1.946  19.466  0.00  0.00    +0.000 C 
ATOM     27  C   UNL     1       0.675   2.846  19.411  0.00  0.00    +0.000 C 
ENDBRANCH   3  25
TORSDOF 4
ENDMDL
MODEL 6
REMARK VINA RESULT:      -7.9      1.924      4.120
REMARK  Name = 
REMARK  4 active torsions:
REMARK  status: ('A' for Active; 'I' for Inactive)
REMARK    1  A    between atoms: N_4  and  C_5
REMARK    2  A    between atoms: C_5  and  C_6
REMARK    3  A    between atoms: N_9  and  C_10
REMARK    4  A    between atoms: C_12  and  C_13
REMARK                            x       y       z     vdW  Elec       q    Type
REMARK                         _______ _______ _______ _____ _____    ______ ____
ROOT
ATOM      1  C   UNL     1       3.008   6.237  18.557  0.00  0.00    +0.000 A 
ATOM      2  N   UNL     1       2.451   5.239  19.277  0.00  0.00    +0.000 NA
ATOM      3  C   UNL     1       2.807   3.965  19.043  0.00  0.00    +0.000 A 
ATOM      4  N   UNL     1       3.689   3.620  18.097  0.00  0.00    +0.000 NA
ATOM      5  C   UNL     1       4.273   4.613  17.399  0.00  0.00    +0.000 A 
ATOM      6  C   UNL     1       4.002   5.962  17.618  0.00  0.00    +0.000 A 
ATOM      7  C   UNL     1       4.826   6.998  16.894  0.00  0.00    +0.000 C 
ATOM      8  C   UNL     1       6.328   6.927  17.205  0.00  0.00    +0.000 C 
ATOM      9  N   UNL     1       7.063   5.934  16.421  0.00  0.00    +0.000 NA
ATOM     10  C   UNL     1       6.706   4.555  16.769  0.00  0.00    +0.000 C 
ATOM     11  C   UNL     1       5.282   4.169  16.373  0.00  0.00    +0.000 C 
ATOM     12  H   UNL     1       8.061   6.061  16.602  0.00  0.00    +0.000 HD
ENDROOT
BRANCH   1  16
ATOM     13  C   UNL     1       0.901   9.816  19.248  0.00  0.00    +0.000 C 
ATOM     14  C   UNL     1       0.737   8.585  20.153  0.00  0.00    +0.000 C 
ATOM     15  C   UNL     1       2.045   7.793  20.175  0.00  0.00    +0.000 C 
ATOM     16  N   UNL     1       2.503   7.497  18.814  0.00  0.00    +0.000 N 
ATOM     17  C   UNL     1       2.468   8.552  17.806  0.00  0.00    +0.000 C 
ATOM     18  C   UNL     1       1.145   9.304  17.828  0.00  0.00    +0.000 C 
BRANCH  13  19
ATOM     19  C   UNL     1      -0.271  10.795  19.308  0.00  0.00    +0.000 C 
BRANCH  19  23
ATOM     20  C   UNL     1       0.025  13.330  21.848  0.00  0.00    +0.000 A 
ATOM     21  C   UNL     1      -0.753  12.307  22.422  0.00  0.00    +0.000 A 
ATOM     22  N   UNL     1      -0.877  11.254  21.609  0.00  0.00    +0.000 NA
ATOM     23  N   UNL     1      -0.211  11.628  20.498  0.00  0.00    +0.000 N 
ATOM     24  C   UNL     1       0.373  12.854  20.609  0.00  0.00    +0.000 A 
ENDBRANCH  19  23
ENDBRANCH  13  19
ENDBRANCH   1  16
BRANCH   3  25
ATOM     25  C   UNL     1       2.173   2.868  19.864  0.00  0.00    +0.000 C 
ATOM     26  C   UNL     1       2.513   2.731  21.333  0.00  0.00    +0.000 C 
ATOM     27  C   UNL     1       1.146   3.192  20.926  0.00  0.00    +0.000 C 
ENDBRANCH   3  25
TORSDOF 4
ENDMDL
MODEL 7
REMARK VINA RESULT:      -7.8      1.375      1.663
REMARK  Name = 
REMARK  4 active torsions:
REMARK  status: ('A' for Active; 'I' for Inactive)
REMARK    1  A    between atoms: N_4  and  C_5
REMARK    2  A    between atoms: C_5  and  C_6
REMARK    3  A    between atoms: N_9  and  C_10
REMARK    4  A    between atoms: C_12  and  C_13
REMARK                            x       y       z     vdW  Elec       q    Type
REMARK                         _______ _______ _______ _____ _____    ______ ____
ROOT
ATOM      1  C   UNL     1       3.400   5.828  19.138  0.00  0.00    +0.000 A 
ATOM      2  N   UNL     1       4.633   6.240  18.771  0.00  0.00    +0.000 NA
ATOM      3  C   UNL     1       5.638   5.353  18.686  0.00  0.00    +0.000 A 
ATOM      4  N   UNL     1       5.485   4.054  18.972  0.00  0.00    +0.000 NA
ATOM      5  C   UNL     1       4.251   3.632  19.305  0.00  0.00    +0.000 A 
ATOM      6  C   UNL     1       3.144   4.475  19.362  0.00  0.00    +0.000 A 
ATOM      7  C   UNL     1       1.780   3.874  19.589  0.00  0.00    +0.000 C 
ATOM      8  C   UNL     1       1.352   2.872  18.506  0.00  0.00    +0.000 C 
ATOM      9  N   UNL     1       1.874   1.518  18.692  0.00  0.00    +0.000 NA
ATOM     10  C   UNL     1       3.326   1.435  18.502  0.00  0.00    +0.000 C 
ATOM     11  C   UNL     1       4.131   2.156  19.582  0.00  0.00    +0.000 C 
ATOM     12  H   UNL     1       1.427   0.908  18.006  0.00  0.00    +0.000 HD
ENDROOT
BRANCH   1  16
ATOM     13  C   UNL     1       1.048   9.285  19.628  0.00  0.00    +0.000 C 
ATOM     14  C   UNL     1       1.971   9.092  18.414  0.00  0.00    +0.000 C 
ATOM     15  C   UNL     1       2.083   7.600  18.094  0.00  0.00    +0.000 C 
ATOM     16  N   UNL     1       2.465   6.835  19.284  0.00  0.00    +0.000 N 
ATOM     17  C   UNL     1       1.806   7.118  20.555  0.00  0.00    +0.000 C 
ATOM     18  C   UNL     1       1.725   8.615  20.823  0.00  0.00    +0.000 C 
BRANCH  13  19
ATOM     19  C   UNL     1       0.695  10.744  19.916  0.00  0.00    +0.000 C 
BRANCH  19  23
ATOM     20  C   UNL     1      -1.003  10.498  23.082  0.00  0.00    +0.000 A 
ATOM     21  C   UNL     1      -1.017  11.866  22.749  0.00  0.00    +0.000 A 
ATOM     22  N   UNL     1      -0.484  12.095  21.545  0.00  0.00    +0.000 NA
ATOM     23  N   UNL     1      -0.092  10.873  21.131  0.00  0.00    +0.000 N 
ATOM     24  C   UNL     1      -0.412   9.880  22.008  0.00  0.00    +0.000 A 
ENDBRANCH  19  23
ENDBRANCH  13  19
ENDBRANCH   1  16
BRANCH   3  25
ATOM     25  C   UNL     1       7.006   5.838  18.270  0.00  0.00    +0.000 C 
ATOM     26  C   UNL     1       7.351   5.958  16.800  0.00  0.00    +0.000 C 
ATOM     27  C   UNL     1       7.182   7.196  17.628  0.00  0.00    +0.000 C 
ENDBRANCH   3  25
TORSDOF 4
ENDMDL
MODEL 8
REMARK VINA RESULT:      -7.7      2.021      4.316
REMARK  Name = 
REMARK  4 active torsions:
REMARK  status: ('A' for Active; 'I' for Inactive)
REMARK    1  A    between atoms: N_4  and  C_5
REMARK    2  A    between atoms: C_5  and  C_6
REMARK    3  A    between atoms: N_9  and  C_10
REMARK    4  A    between atoms: C_12  and  C_13
REMARK                            x       y       z     vdW  Elec       q    Type
REMARK                         _______ _______ _______ _____ _____    ______ ____
ROOT
ATOM      1  C   UNL     1       3.118   6.124  17.983  0.00  0.00    +0.000 A 
ATOM      2  N   UNL     1       2.377   5.036  18.287  0.00  0.00    +0.000 NA
ATOM      3  C   UNL     1       2.698   3.840  17.765  0.00  0.00    +0.000 A 
ATOM      4  N   UNL     1       3.725   3.668  16.923  0.00  0.00    +0.000 NA
ATOM      5  C   UNL     1       4.487   4.742  16.645  0.00  0.00    +0.000 A 
ATOM      6  C   UNL     1       4.257   6.004  17.187  0.00  0.00    +0.000 A 
ATOM      7  C   UNL     1       5.262   7.100  16.937  0.00  0.00    +0.000 C 
ATOM      8  C   UNL     1       6.670   6.786  17.464  0.00  0.00    +0.000 C 
ATOM      9  N   UNL     1       7.485   5.966  16.567  0.00  0.00    +0.000 NA
ATOM     10  C   UNL     1       6.990   4.591  16.445  0.00  0.00    +0.000 C 
ATOM     11  C   UNL     1       5.648   4.482  15.721  0.00  0.00    +0.000 C 
ATOM     12  H   UNL     1       8.434   5.931  16.943  0.00  0.00    +0.000 HD
ENDROOT
BRANCH   1  16
ATOM     13  C   UNL     1       1.104   9.525  19.433  0.00  0.00    +0.000 C 
ATOM     14  C   UNL     1       0.952   8.145  20.092  0.00  0.00    +0.000 C 
ATOM     15  C   UNL     1       2.246   7.350  19.908  0.00  0.00    +0.000 C 
ATOM     16  N   UNL     1       2.646   7.316  18.498  0.00  0.00    +0.000 N 
ATOM     17  C   UNL     1       2.591   8.545  17.712  0.00  0.00    +0.000 C 
ATOM     18  C   UNL     1       1.283   9.293  17.933  0.00  0.00    +0.000 C 
BRANCH  13  19
ATOM     19  C   UNL     1      -0.048  10.486  19.728  0.00  0.00    +0.000 C 
BRANCH  19  23
ATOM     20  C   UNL     1      -0.471  10.024  23.274  0.00  0.00    +0.000 A 
ATOM     21  C   UNL     1      -1.148  11.218  22.963  0.00  0.00    +0.000 A 
ATOM     22  N   UNL     1      -1.141  11.473  21.652  0.00  0.00    +0.000 NA
ATOM     23  N   UNL     1      -0.420  10.459  21.132  0.00  0.00    +0.000 N 
ATOM     24  C   UNL     1      -0.024   9.548  22.066  0.00  0.00    +0.000 A 
ENDBRANCH  19  23
ENDBRANCH  13  19
ENDBRANCH   1  16
BRANCH   3  25
ATOM     25  C   UNL     1       1.856   2.639  18.122  0.00  0.00    +0.000 C 
ATOM     26  C   UNL     1       2.050   1.949  19.456  0.00  0.00    +0.000 C 
ATOM     27  C   UNL     1       0.797   2.730  19.198  0.00  0.00    +0.000 C 
ENDBRANCH   3  25
TORSDOF 4
ENDMDL
MODEL 9
REMARK VINA RESULT:      -7.6      1.041      1.293
REMARK  Name = 
REMARK  4 active torsions:
REMARK  status: ('A' for Active; 'I' for Inactive)
REMARK    1  A    between atoms: N_4  and  C_5
REMARK    2  A    between atoms: C_5  and  C_6
REMARK    3  A    between atoms: N_9  and  C_10
REMARK    4  A    between atoms: C_12  and  C_13
REMARK                            x       y       z     vdW  Elec       q    Type
REMARK                         _______ _______ _______ _____ _____    ______ ____
ROOT
ATOM      1  C   UNL     1       2.996   6.161  18.896  0.00  0.00    +0.000 A 
ATOM      2  N   UNL     1       4.038   6.626  18.174  0.00  0.00    +0.000 NA
ATOM      3  C   UNL     1       5.029   5.792  17.814  0.00  0.00    +0.000 A 
ATOM      4  N   UNL     1       5.049   4.499  18.159  0.00  0.00    +0.000 NA
ATOM      5  C   UNL     1       3.996   4.022  18.848  0.00  0.00    +0.000 A 
ATOM      6  C   UNL     1       2.903   4.805  19.212  0.00  0.00    +0.000 A 
ATOM      7  C   UNL     1       1.706   4.139  19.842  0.00  0.00    +0.000 C 
ATOM      8  C   UNL     1       1.045   3.076  18.953  0.00  0.00    +0.000 C 
ATOM      9  N   UNL     1       1.683   1.760  19.004  0.00  0.00    +0.000 NA
ATOM     10  C   UNL     1       3.018   1.750  18.397  0.00  0.00    +0.000 C 
ATOM     11  C   UNL     1       4.056   2.553  19.178  0.00  0.00    +0.000 C 
ATOM     12  H   UNL     1       1.094   1.101  18.492  0.00  0.00    +0.000 HD
ENDROOT
BRANCH   1  16
ATOM     13  C   UNL     1       0.716   9.455  20.190  0.00  0.00    +0.000 C 
ATOM     14  C   UNL     1       1.568   9.505  18.912  0.00  0.00    +0.000 C 
ATOM     15  C   UNL     1       1.644   8.106  18.298  0.00  0.00    +0.000 C 
ATOM     16  N   UNL     1       2.082   7.120  19.290  0.00  0.00    +0.000 N 
ATOM     17  C   UNL     1       1.498   7.147  20.628  0.00  0.00    +0.000 C 
ATOM     18  C   UNL     1       1.450   8.561  21.189  0.00  0.00    +0.000 C 
BRANCH  13  19
ATOM     19  C   UNL     1       0.397  10.828  20.780  0.00  0.00    +0.000 C 
BRANCH  19  23
ATOM     20  C   UNL     1      -0.528  13.239  18.271  0.00  0.00    +0.000 A 
ATOM     21  C   UNL     1      -1.541  12.263  18.251  0.00  0.00    +0.000 A 
ATOM     22  N   UNL     1      -1.366  11.338  19.198  0.00  0.00    +0.000 NA
ATOM     23  N   UNL     1      -0.214  11.705  19.795  0.00  0.00    +0.000 N 
ATOM     24  C   UNL     1       0.308  12.858  19.291  0.00  0.00    +0.000 A 
ENDBRANCH  19  23
ENDBRANCH  13  19
ENDBRANCH   1  16
BRANCH   3  25
ATOM     25  C   UNL     1       6.182   6.336  17.005  0.00  0.00    +0.000 C 
ATOM     26  C   UNL     1       7.460   6.758  17.698  0.00  0.00    +0.000 C 
ATOM     27  C   UNL     1       7.452   5.534  16.834  0.00  0.00    +0.000 C 
ENDBRANCH   3  25
TORSDOF 4
ENDMDL
