MODEL 1
REMARK VINA RESULT:      -7.0      0.000      0.000
REMARK  Name = 
REMARK  7 active torsions:
REMARK  status: ('A' for Active; 'I' for Inactive)
REMARK    1  A    between atoms: C_1  and  C_2
REMARK    2  A    between atoms: C_2  and  O_3
REMARK    3  A    between atoms: O_3  and  C_4
REMARK    4  A    between atoms: C_4  and  C_6
REMARK    5  A    between atoms: C_9  and  N_10
REMARK    6  A    between atoms: C_12  and  C_13
REMARK    7  A    between atoms: C_15  and  C_16
REMARK                            x       y       z     vdW  Elec       q    Type
REMARK                         _______ _______ _______ _____ _____    ______ ____
ROOT
ATOM      1  C   UNL     1       5.955   4.721  16.131  0.00  0.00    +0.000 A 
ATOM      2  C   UNL     1       4.650   4.267  15.915  0.00  0.00    +0.000 A 
ATOM      3  C   UNL     1       3.738   4.210  16.970  0.00  0.00    +0.000 A 
ATOM      4  C   UNL     1       4.113   4.650  18.247  0.00  0.00    +0.000 A 
ATOM      5  C   UNL     1       5.419   5.110  18.463  0.00  0.00    +0.000 A 
ATOM      6  C   UNL     1       6.335   5.145  17.410  0.00  0.00    +0.000 A 
ENDROOT
BRANCH   4   7
ATOM      7  N   UNL     1       3.178   4.566  19.314  0.00  0.00    +0.000 N 
ATOM      8  N   UNL     1       2.864   3.351  19.837  0.00  0.00    +0.000 NA
ATOM      9  C   UNL     1       2.154   3.622  20.935  0.00  0.00    +0.000 A 
ATOM     10  C   UNL     1       1.717   2.536  21.846  0.00  0.00    +0.000 C 
ATOM     11  C   UNL     1       1.877   4.996  21.049  0.00  0.00    +0.000 A 
ATOM     12  C   UNL     1       2.497   5.585  19.966  0.00  0.00    +0.000 A 
ATOM     13  C   UNL     1       2.396   6.985  19.484  0.00  0.00    +0.000 C 
ENDBRANCH   4   7
BRANCH   1  14
ATOM     14  C   UNL     1       6.918   4.637  15.003  0.00  0.00    +0.000 C 
ATOM     15  O   UNL     1       7.818   5.442  14.823  0.00  0.00    +0.000 OA
BRANCH  14  16
ATOM     16  O   UNL     1       6.557   3.638  14.160  0.00  0.00    +0.000 OA
BRANCH  16  18
ATOM     17  C   UNL     1       5.620   3.081  12.039  0.00  0.00    +0.000 C 
ATOM     18  C   UNL     1       6.615   3.968  12.766  0.00  0.00    +0.000 C 
ENDBRANCH  16  18
ENDBRANCH  14  16
ENDBRANCH   1  14
TORSDOF 4
ENDMDL
MODEL 2
REMARK VINA RESULT:      -6.8      3.461      6.580
REMARK  Name = 
REMARK  7 active torsions:
REMARK  status: ('A' for Active; 'I' for Inactive)
REMARK    1  A    between atoms: C_1  and  C_2
REMARK    2  A    between atoms: C_2  and  O_3
REMARK    3  A    between atoms: O_3  and  C_4
REMARK    4  A    between atoms: C_4  and  C_6
REMARK    5  A    between atoms: C_9  and  N_10
REMARK    6  A    between atoms: C_12  and  C_13
REMARK    7  A    between atoms: C_15  and  C_16
REMARK                            x       y       z     vdW  Elec       q    Type
REMARK                         _______ _______ _______ _____ _____    ______ ____
ROOT
ATOM      1  C   UNL     1       2.007   3.356  18.386  0.00  0.00    +0.000 A 
ATOM      2  C   UNL     1       1.978   4.739  18.180  0.00  0.00    +0.000 A 
ATOM      3  C   UNL     1       3.114   5.411  17.724  0.00  0.00    +0.000 A 
ATOM      4  C   UNL     1       4.281   4.693  17.429  0.00  0.00    +0.000 A 
ATOM      5  C   UNL     1       4.310   3.307  17.629  0.00  0.00    +0.000 A 
ATOM      6  C   UNL     1       3.178   2.642  18.107  0.00  0.00    +0.000 A 
ENDROOT
BRANCH   4   7
ATOM      7  N   UNL     1       5.434   5.396  16.984  0.00  0.00    +0.000 N 
ATOM      8  N   UNL     1       5.831   6.518  17.640  0.00  0.00    +0.000 NA
ATOM      9  C   UNL     1       7.033   6.807  17.136  0.00  0.00    +0.000 A 
ATOM     10  C   UNL     1       7.843   7.920  17.686  0.00  0.00    +0.000 C 
ATOM     11  C   UNL     1       7.356   5.968  16.053  0.00  0.00    +0.000 A 
ATOM     12  C   UNL     1       6.291   5.100  15.932  0.00  0.00    +0.000 A 
ATOM     13  C   UNL     1       6.010   4.116  14.857  0.00  0.00    +0.000 C 
ENDBRANCH   4   7
BRANCH   1  14
ATOM     14  C   UNL     1       0.813   2.717  18.996  0.00  0.00    +0.000 C 
ATOM     15  O   UNL     1       0.102   1.917  18.407  0.00  0.00    +0.000 OA
BRANCH  14  16
ATOM     16  O   UNL     1       0.571   3.256  20.216  0.00  0.00    +0.000 OA
BRANCH  16  18
ATOM     17  C   UNL     1       2.327   3.706  21.765  0.00  0.00    +0.000 C 
ATOM     18  C   UNL     1       1.313   2.677  21.296  0.00  0.00    +0.000 C 
ENDBRANCH  16  18
ENDBRANCH  14  16
ENDBRANCH   1  14
TORSDOF 4
ENDMDL
MODEL 3
REMARK VINA RESULT:      -6.8      0.653      1.249
REMARK  Name = 
REMARK  7 active torsions:
REMARK  status: ('A' for Active; 'I' for Inactive)
REMARK    1  A    between atoms: C_1  and  C_2
REMARK    2  A    between atoms: C_2  and  O_3
REMARK    3  A    between atoms: O_3  and  C_4
REMARK    4  A    between atoms: C_4  and  C_6
REMARK    5  A    between atoms: C_9  and  N_10
REMARK    6  A    between atoms: C_12  and  C_13
REMARK    7  A    between atoms: C_15  and  C_16
REMARK                            x       y       z     vdW  Elec       q    Type
REMARK                         _______ _______ _______ _____ _____    ______ ____
ROOT
ATOM      1  C   UNL     1       6.054   4.629  15.692  0.00  0.00    +0.000 A 
ATOM      2  C   UNL     1       6.217   5.592  16.693  0.00  0.00    +0.000 A 
ATOM      3  C   UNL     1       5.308   5.676  17.749  0.00  0.00    +0.000 A 
ATOM      4  C   UNL     1       4.248   4.763  17.836  0.00  0.00    +0.000 A 
ATOM      5  C   UNL     1       4.086   3.794  16.837  0.00  0.00    +0.000 A 
ATOM      6  C   UNL     1       4.985   3.728  15.770  0.00  0.00    +0.000 A 
ENDROOT
BRANCH   4   7
ATOM      7  N   UNL     1       3.320   4.875  18.908  0.00  0.00    +0.000 N 
ATOM      8  N   UNL     1       3.038   3.783  19.667  0.00  0.00    +0.000 NA
ATOM      9  C   UNL     1       2.328   4.253  20.696  0.00  0.00    +0.000 A 
ATOM     10  C   UNL     1       1.922   3.364  21.811  0.00  0.00    +0.000 C 
ATOM     11  C   UNL     1       2.019   5.616  20.534  0.00  0.00    +0.000 A 
ATOM     12  C   UNL     1       2.618   5.989  19.349  0.00  0.00    +0.000 A 
ATOM     13  C   UNL     1       2.482   7.261  18.597  0.00  0.00    +0.000 C 
ENDBRANCH   4   7
BRANCH   1  14
ATOM     14  C   UNL     1       6.974   4.672  14.528  0.00  0.00    +0.000 C 
ATOM     15  O   UNL     1       7.734   5.600  14.303  0.00  0.00    +0.000 OA
BRANCH  14  16
ATOM     16  O   UNL     1       6.735   3.617  13.709  0.00  0.00    +0.000 OA
BRANCH  16  18
ATOM     17  C   UNL     1       5.252   3.194  11.890  0.00  0.00    +0.000 C 
ATOM     18  C   UNL     1       6.489   3.954  12.338  0.00  0.00    +0.000 C 
ENDBRANCH  16  18
ENDBRANCH  14  16
ENDBRANCH   1  14
TORSDOF 4
ENDMDL
MODEL 4
REMARK VINA RESULT:      -6.7      3.425      6.813
REMARK  Name = 
REMARK  7 active torsions:
REMARK  status: ('A' for Active; 'I' for Inactive)
REMARK    1  A    between atoms: C_1  and  C_2
REMARK    2  A    between atoms: C_2  and  O_3
REMARK    3  A    between atoms: O_3  and  C_4
REMARK    4  A    between atoms: C_4  and  C_6
REMARK    5  A    between atoms: C_9  and  N_10
REMARK    6  A    between atoms: C_12  and  C_13
REMARK    7  A    between atoms: C_15  and  C_16
REMARK                            x       y       z     vdW  Elec       q    Type
REMARK                         _______ _______ _______ _____ _____    ______ ____
ROOT
ATOM      1  C   UNL     1       2.187   3.482  18.473  0.00  0.00    +0.000 A 
ATOM      2  C   UNL     1       3.028   2.428  18.102  0.00  0.00    +0.000 A 
ATOM      3  C   UNL     1       4.144   2.662  17.296  0.00  0.00    +0.000 A 
ATOM      4  C   UNL     1       4.452   3.966  16.888  0.00  0.00    +0.000 A 
ATOM      5  C   UNL     1       3.614   5.025  17.262  0.00  0.00    +0.000 A 
ATOM      6  C   UNL     1       2.486   4.783  18.050  0.00  0.00    +0.000 A 
ENDROOT
BRANCH   4   7
ATOM      7  N   UNL     1       5.580   4.184  16.051  0.00  0.00    +0.000 N 
ATOM      8  N   UNL     1       5.504   3.879  14.728  0.00  0.00    +0.000 NA
ATOM      9  C   UNL     1       6.613   4.393  14.191  0.00  0.00    +0.000 A 
ATOM     10  C   UNL     1       6.838   4.354  12.726  0.00  0.00    +0.000 C 
ATOM     11  C   UNL     1       7.481   4.897  15.176  0.00  0.00    +0.000 A 
ATOM     12  C   UNL     1       6.826   4.705  16.375  0.00  0.00    +0.000 A 
ATOM     13  C   UNL     1       7.339   4.888  17.756  0.00  0.00    +0.000 C 
ENDBRANCH   4   7
BRANCH   1  14
ATOM     14  C   UNL     1       0.946   3.155  19.220  0.00  0.00    +0.000 C 
ATOM     15  O   UNL     1       0.131   2.327  18.843  0.00  0.00    +0.000 OA
BRANCH  14  16
ATOM     16  O   UNL     1       0.804   3.996  20.273  0.00  0.00    +0.000 OA
BRANCH  16  18
ATOM     17  C   UNL     1       1.710   2.520  21.912  0.00  0.00    +0.000 C 
ATOM     18  C   UNL     1       1.823   3.895  21.276  0.00  0.00    +0.000 C 
ENDBRANCH  16  18
ENDBRANCH  14  16
ENDBRANCH   1  14
TORSDOF 4
ENDMDL
MODEL 5
REMARK VINA RESULT:      -6.6      0.979      2.236
REMARK  Name = 
REMARK  7 active torsions:
REMARK  status: ('A' for Active; 'I' for Inactive)
REMARK    1  A    between atoms: C_1  and  C_2
REMARK    2  A    between atoms: C_2  and  O_3
REMARK    3  A    between atoms: O_3  and  C_4
REMARK    4  A    between atoms: C_4  and  C_6
REMARK    5  A    between atoms: C_9  and  N_10
REMARK    6  A    between atoms: C_12  and  C_13
REMARK    7  A    between atoms: C_15  and  C_16
REMARK                            x       y       z     vdW  Elec       q    Type
REMARK                         _______ _______ _______ _____ _____    ______ ____
ROOT
ATOM      1  C   UNL     1       5.970   4.680  15.824  0.00  0.00    +0.000 A 
ATOM      2  C   UNL     1       6.374   5.497  16.885  0.00  0.00    +0.000 A 
ATOM      3  C   UNL     1       5.530   5.707  17.978  0.00  0.00    +0.000 A 
ATOM      4  C   UNL     1       4.287   5.062  18.038  0.00  0.00    +0.000 A 
ATOM      5  C   UNL     1       3.883   4.239  16.978  0.00  0.00    +0.000 A 
ATOM      6  C   UNL     1       4.721   4.050  15.876  0.00  0.00    +0.000 A 
ENDROOT
BRANCH   4   7
ATOM      7  N   UNL     1       3.433   5.302  19.148  0.00  0.00    +0.000 N 
ATOM      8  N   UNL     1       3.019   6.569  19.415  0.00  0.00    +0.000 NA
ATOM      9  C   UNL     1       2.078   6.434  20.353  0.00  0.00    +0.000 A 
ATOM     10  C   UNL     1       1.305   7.606  20.831  0.00  0.00    +0.000 C 
ATOM     11  C   UNL     1       1.983   5.106  20.805  0.00  0.00    +0.000 A 
ATOM     12  C   UNL     1       2.902   4.397  20.059  0.00  0.00    +0.000 A 
ATOM     13  C   UNL     1       3.354   2.994  20.226  0.00  0.00    +0.000 C 
ENDBRANCH   4   7
BRANCH   1  14
ATOM     14  C   UNL     1       6.851   4.600  14.632  0.00  0.00    +0.000 C 
ATOM     15  O   UNL     1       7.672   5.456  14.341  0.00  0.00    +0.000 OA
BRANCH  14  16
ATOM     16  O   UNL     1       6.507   3.531  13.872  0.00  0.00    +0.000 OA
BRANCH  16  18
ATOM     17  C   UNL     1       5.198   3.212  11.905  0.00  0.00    +0.000 C 
ATOM     18  C   UNL     1       6.498   3.767  12.458  0.00  0.00    +0.000 C 
ENDBRANCH  16  18
ENDBRANCH  14  16
ENDBRANCH   1  14
TORSDOF 4
ENDMDL
MODEL 6
REMARK VINA RESULT:      -6.6      1.218      2.120
REMARK  Name = 
REMARK  7 active torsions:
REMARK  status: ('A' for Active; 'I' for Inactive)
REMARK    1  A    between atoms: C_1  and  C_2
REMARK    2  A    between atoms: C_2  and  O_3
REMARK    3  A    between atoms: O_3  and  C_4
REMARK    4  A    between atoms: C_4  and  C_6
REMARK    5  A    between atoms: C_9  and  N_10
REMARK    6  A    between atoms: C_12  and  C_13
REMARK    7  A    between atoms: C_15  and  C_16
REMARK                            x       y       z     vdW  Elec       q    Type
REMARK                         _______ _______ _______ _____ _____    ______ ____
ROOT
ATOM      1  C   UNL     1       5.692   4.985  15.651  0.00  0.00    +0.000 A 
ATOM      2  C   UNL     1       5.071   3.909  16.293  0.00  0.00    +0.000 A 
ATOM      3  C   UNL     1       4.258   4.124  17.408  0.00  0.00    +0.000 A 
ATOM      4  C   UNL     1       4.026   5.428  17.864  0.00  0.00    +0.000 A 
ATOM      5  C   UNL     1       4.643   6.508  17.219  0.00  0.00    +0.000 A 
ATOM      6  C   UNL     1       5.473   6.286  16.117  0.00  0.00    +0.000 A 
ENDROOT
BRANCH   4   7
ATOM      7  N   UNL     1       3.211   5.628  19.013  0.00  0.00    +0.000 N 
ATOM      8  N   UNL     1       2.845   6.889  19.365  0.00  0.00    +0.000 NA
ATOM      9  C   UNL     1       1.928   6.728  20.322  0.00  0.00    +0.000 A 
ATOM     10  C   UNL     1       1.206   7.892  20.889  0.00  0.00    +0.000 C 
ATOM     11  C   UNL     1       1.805   5.379  20.699  0.00  0.00    +0.000 A 
ATOM     12  C   UNL     1       2.679   4.688  19.885  0.00  0.00    +0.000 A 
ATOM     13  C   UNL     1       3.091   3.264  19.957  0.00  0.00    +0.000 C 
ENDBRANCH   4   7
BRANCH   1  14
ATOM     14  C   UNL     1       6.647   4.684  14.554  0.00  0.00    +0.000 C 
ATOM     15  O   UNL     1       7.584   5.409  14.258  0.00  0.00    +0.000 OA
BRANCH  14  16
ATOM     16  O   UNL     1       6.237   3.587  13.870  0.00  0.00    +0.000 OA
BRANCH  16  18
ATOM     17  C   UNL     1       5.066   3.159  11.838  0.00  0.00    +0.000 C 
ATOM     18  C   UNL     1       6.357   3.679  12.445  0.00  0.00    +0.000 C 
ENDBRANCH  16  18
ENDBRANCH  14  16
ENDBRANCH   1  14
TORSDOF 4
ENDMDL
MODEL 7
REMARK VINA RESULT:      -6.5      3.439      6.801
REMARK  Name = 
REMARK  7 active torsions:
REMARK  status: ('A' for Active; 'I' for Inactive)
REMARK    1  A    between atoms: C_1  and  C_2
REMARK    2  A    between atoms: C_2  and  O_3
REMARK    3  A    between atoms: O_3  and  C_4
REMARK    4  A    between atoms: C_4  and  C_6
REMARK    5  A    between atoms: C_9  and  N_10
REMARK    6  A    between atoms: C_12  and  C_13
REMARK    7  A    between atoms: C_15  and  C_16
REMARK                            x       y       z     vdW  Elec       q    Type
REMARK                         _______ _______ _______ _____ _____    ______ ____
ROOT
ATOM      1  C   UNL     1       2.091   3.400  18.363  0.00  0.00    +0.000 A 
ATOM      2  C   UNL     1       2.388   4.708  17.963  0.00  0.00    +0.000 A 
ATOM      3  C   UNL     1       3.544   4.978  17.229  0.00  0.00    +0.000 A 
ATOM      4  C   UNL     1       4.394   3.931  16.850  0.00  0.00    +0.000 A 
ATOM      5  C   UNL     1       4.096   2.620  17.244  0.00  0.00    +0.000 A 
ATOM      6  C   UNL     1       2.949   2.357  17.998  0.00  0.00    +0.000 A 
ENDROOT
BRANCH   4   7
ATOM      7  N   UNL     1       5.578   4.226  16.119  0.00  0.00    +0.000 N 
ATOM      8  N   UNL     1       5.606   4.019  14.776  0.00  0.00    +0.000 NA
ATOM      9  C   UNL     1       6.742   4.586  14.363  0.00  0.00    +0.000 A 
ATOM     10  C   UNL     1       7.077   4.660  12.921  0.00  0.00    +0.000 C 
ATOM     11  C   UNL     1       7.524   5.028  15.446  0.00  0.00    +0.000 A 
ATOM     12  C   UNL     1       6.785   4.739  16.574  0.00  0.00    +0.000 A 
ATOM     13  C   UNL     1       7.190   4.826  18.000  0.00  0.00    +0.000 C 
ENDBRANCH   4   7
BRANCH   1  14
ATOM     14  C   UNL     1       0.919   3.192  19.251  0.00  0.00    +0.000 C 
ATOM     15  O   UNL     1       0.030   2.389  19.017  0.00  0.00    +0.000 OA
BRANCH  14  16
ATOM     16  O   UNL     1       0.928   4.108  20.251  0.00  0.00    +0.000 OA
BRANCH  16  18
ATOM     17  C   UNL     1       1.772   2.583  21.878  0.00  0.00    +0.000 C 
ATOM     18  C   UNL     1       1.968   3.938  21.222  0.00  0.00    +0.000 C 
ENDBRANCH  16  18
ENDBRANCH  14  16
ENDBRANCH   1  14
TORSDOF 4
ENDMDL
MODEL 8
REMARK VINA RESULT:      -6.5      2.795      3.808
REMARK  Name = 
REMARK  7 active torsions:
REMARK  status: ('A' for Active; 'I' for Inactive)
REMARK    1  A    between atoms: C_1  and  C_2
REMARK    2  A    between atoms: C_2  and  O_3
REMARK    3  A    between atoms: O_3  and  C_4
REMARK    4  A    between atoms: C_4  and  C_6
REMARK    5  A    between atoms: C_9  and  N_10
REMARK    6  A    between atoms: C_12  and  C_13
REMARK    7  A    between atoms: C_15  and  C_16
REMARK                            x       y       z     vdW  Elec       q    Type
REMARK                         _______ _______ _______ _____ _____    ______ ____
ROOT
ATOM      1  C   UNL     1       6.295   6.467  17.890  0.00  0.00    +0.000 A 
ATOM      2  C   UNL     1       5.086   6.834  17.291  0.00  0.00    +0.000 A 
ATOM      3  C   UNL     1       3.886   6.251  17.703  0.00  0.00    +0.000 A 
ATOM      4  C   UNL     1       3.882   5.322  18.752  0.00  0.00    +0.000 A 
ATOM      5  C   UNL     1       5.092   4.957  19.357  0.00  0.00    +0.000 A 
ATOM      6  C   UNL     1       6.292   5.526  18.927  0.00  0.00    +0.000 A 
ENDROOT
BRANCH   4   7
ATOM      7  N   UNL     1       2.654   4.723  19.145  0.00  0.00    +0.000 N 
ATOM      8  N   UNL     1       2.232   3.589  18.526  0.00  0.00    +0.000 NA
ATOM      9  C   UNL     1       1.194   3.165  19.251  0.00  0.00    +0.000 A 
ATOM     10  C   UNL     1       0.526   1.877  18.945  0.00  0.00    +0.000 C 
ATOM     11  C   UNL     1       0.845   4.093  20.248  0.00  0.00    +0.000 A 
ATOM     12  C   UNL     1       1.760   5.119  20.132  0.00  0.00    +0.000 A 
ATOM     13  C   UNL     1       1.770   6.440  20.808  0.00  0.00    +0.000 C 
ENDBRANCH   4   7
BRANCH   1  14
ATOM     14  C   UNL     1       7.550   7.022  17.324  0.00  0.00    +0.000 C 
ATOM     15  O   UNL     1       7.995   6.705  16.231  0.00  0.00    +0.000 OA
BRANCH  14  16
ATOM     16  O   UNL     1       8.170   7.800  18.245  0.00  0.00    +0.000 OA
BRANCH  16  18
ATOM     17  C   UNL     1       9.066   9.885  18.977  0.00  0.00    +0.000 C 
ATOM     18  C   UNL     1       8.185   9.202  17.945  0.00  0.00    +0.000 C 
ENDBRANCH  16  18
ENDBRANCH  14  16
ENDBRANCH   1  14
TORSDOF 4
ENDMDL
MODEL 9
REMARK VINA RESULT:      -6.3      4.557      7.689
REMARK  Name = 
REMARK  7 active torsions:
REMARK  status: ('A' for Active; 'I' for Inactive)
REMARK    1  A    between atoms: C_1  and  C_2
REMARK    2  A    between atoms: C_2  and  O_3
REMARK    3  A    between atoms: O_3  and  C_4
REMARK    4  A    between atoms: C_4  and  C_6
REMARK    5  A    between atoms: C_9  and  N_10
REMARK    6  A    between atoms: C_12  and  C_13
REMARK    7  A    between atoms: C_15  and  C_16
REMARK                            x       y       z     vdW  Elec       q    Type
REMARK                         _______ _______ _______ _____ _____    ______ ____
ROOT
ATOM      1  C   UNL     1       1.177   9.326  19.455  0.00  0.00    +0.000 A 
ATOM      2  C   UNL     1       1.523   8.270  20.304  0.00  0.00    +0.000 A 
ATOM      3  C   UNL     1       2.268   7.191  19.824  0.00  0.00    +0.000 A 
ATOM      4  C   UNL     1       2.711   7.181  18.494  0.00  0.00    +0.000 A 
ATOM      5  C   UNL     1       2.370   8.241  17.644  0.00  0.00    +0.000 A 
ATOM      6  C   UNL     1       1.605   9.308  18.122  0.00  0.00    +0.000 A 
ENDROOT
BRANCH   4   7
ATOM      7  N   UNL     1       3.452   6.066  18.017  0.00  0.00    +0.000 N 
ATOM      8  N   UNL     1       4.779   6.203  17.757  0.00  0.00    +0.000 NA
ATOM      9  C   UNL     1       5.220   4.960  17.547  0.00  0.00    +0.000 A 
ATOM     10  C   UNL     1       6.663   4.689  17.336  0.00  0.00    +0.000 C 
ATOM     11  C   UNL     1       4.163   4.033  17.519  0.00  0.00    +0.000 A 
ATOM     12  C   UNL     1       3.023   4.769  17.768  0.00  0.00    +0.000 A 
ATOM     13  C   UNL     1       1.604   4.343  17.686  0.00  0.00    +0.000 C 
ENDBRANCH   4   7
BRANCH   1  14
ATOM     14  C   UNL     1       0.275  10.379  19.985  0.00  0.00    +0.000 C 
ATOM     15  O   UNL     1      -0.557  10.960  19.305  0.00  0.00    +0.000 OA
BRANCH  14  16
ATOM     16  O   UNL     1       0.613  10.679  21.263  0.00  0.00    +0.000 OA
BRANCH  16  18
ATOM     17  C   UNL     1      -0.381   9.734  23.214  0.00  0.00    +0.000 C 
ATOM     18  C   UNL     1      -0.490  10.828  22.166  0.00  0.00    +0.000 C 
ENDBRANCH  16  18
ENDBRANCH  14  16
ENDBRANCH   1  14
TORSDOF 4
ENDMDL
