MODEL 1
REMARK VINA RESULT:      -8.3      0.000      0.000
REMARK  Name = 
REMARK  6 active torsions:
REMARK  status: ('A' for Active; 'I' for Inactive)
REMARK    1  A    between atoms: C_1  and  C_2
REMARK    2  A    between atoms: C_2  and  O_3
REMARK    3  A    between atoms: O_3  and  C_4
REMARK    4  A    between atoms: C_7  and  C_8
REMARK    5  A    between atoms: C_8  and  C_10
REMARK    6  A    between atoms: C_11  and  C_12
REMARK                            x       y       z     vdW  Elec       q    Type
REMARK                         _______ _______ _______ _____ _____    ______ ____
ROOT
ATOM      1  C   UNL     1       8.051   7.532  17.903  0.00  0.00    +0.000 C 
ATOM      2  C   UNL     1       7.985   8.844  17.623  0.00  0.00    +0.000 C 
ENDROOT
BRANCH   2   3
ATOM      3  C   UNL     1       8.788   9.880  18.293  0.00  0.00    +0.000 A 
ATOM      4  C   UNL     1       8.903   9.830  19.687  0.00  0.00    +0.000 A 
ATOM      5  C   UNL     1       9.722  10.734  20.369  0.00  0.00    +0.000 A 
ATOM      6  C   UNL     1      10.434  11.720  19.672  0.00  0.00    +0.000 A 
ATOM      7  C   UNL     1      11.326  12.581  20.333  0.00  0.00    +0.000 A 
ATOM      8  C   UNL     1      12.022  13.562  19.628  0.00  0.00    +0.000 A 
ATOM      9  C   UNL     1      11.808  13.719  18.262  0.00  0.00    +0.000 A 
ATOM     10  C   UNL     1      10.930  12.866  17.590  0.00  0.00    +0.000 A 
ATOM     11  C   UNL     1      10.258  11.839  18.276  0.00  0.00    +0.000 A 
ATOM     12  C   UNL     1       9.432  10.918  17.604  0.00  0.00    +0.000 A 
ENDBRANCH   2   3
BRANCH   1  13
ATOM     13  C   UNL     1       7.139   6.585  17.196  0.00  0.00    +0.000 C 
ATOM     14  O   UNL     1       7.478   6.012  16.167  0.00  0.00    +0.000 OA
BRANCH  13  18
ATOM     15  C   UNL     1       3.357   5.746  19.068  0.00  0.00    +0.000 A 
ATOM     16  C   UNL     1       4.533   5.141  19.509  0.00  0.00    +0.000 A 
ATOM     17  C   UNL     1       5.751   5.418  18.880  0.00  0.00    +0.000 A 
ATOM     18  C   UNL     1       5.803   6.303  17.796  0.00  0.00    +0.000 A 
ATOM     19  C   UNL     1       4.612   6.864  17.318  0.00  0.00    +0.000 A 
ATOM     20  C   UNL     1       3.393   6.583  17.951  0.00  0.00    +0.000 A 
BRANCH  15  21
ATOM     21  O   UNL     1       2.238   5.433  19.788  0.00  0.00    +0.000 OA
BRANCH  21  23
ATOM     22  C   UNL     1       1.208   3.561  20.846  0.00  0.00    +0.000 C 
ATOM     23  C   UNL     1       1.651   4.158  19.522  0.00  0.00    +0.000 C 
ENDBRANCH  21  23
ENDBRANCH  15  21
ENDBRANCH  13  18
ENDBRANCH   1  13
TORSDOF 5
ENDMDL
MODEL 2
REMARK VINA RESULT:      -8.1      1.032      1.512
REMARK  Name = 
REMARK  6 active torsions:
REMARK  status: ('A' for Active; 'I' for Inactive)
REMARK    1  A    between atoms: C_1  and  C_2
REMARK    2  A    between atoms: C_2  and  O_3
REMARK    3  A    between atoms: O_3  and  C_4
REMARK    4  A    between atoms: C_7  and  C_8
REMARK    5  A    between atoms: C_8  and  C_10
REMARK    6  A    between atoms: C_11  and  C_12
REMARK                            x       y       z     vdW  Elec       q    Type
REMARK                         _______ _______ _______ _____ _____    ______ ____
ROOT
ATOM      1  C   UNL     1       7.952   8.005  18.151  0.00  0.00    +0.000 C 
ATOM      2  C   UNL     1       8.197   9.211  17.613  0.00  0.00    +0.000 C 
ENDROOT
BRANCH   2   3
ATOM      3  C   UNL     1       8.800  10.340  18.339  0.00  0.00    +0.000 A 
ATOM      4  C   UNL     1       9.296  10.109  19.627  0.00  0.00    +0.000 A 
ATOM      5  C   UNL     1       9.957  11.120  20.330  0.00  0.00    +0.000 A 
ATOM      6  C   UNL     1      10.124  12.392  19.766  0.00  0.00    +0.000 A 
ATOM      7  C   UNL     1      10.860  13.392  20.424  0.00  0.00    +0.000 A 
ATOM      8  C   UNL     1      11.010  14.656  19.853  0.00  0.00    +0.000 A 
ATOM      9  C   UNL     1      10.399  14.946  18.637  0.00  0.00    +0.000 A 
ATOM     10  C   UNL     1       9.671  13.959  17.968  0.00  0.00    +0.000 A 
ATOM     11  C   UNL     1       9.550  12.666  18.505  0.00  0.00    +0.000 A 
ATOM     12  C   UNL     1       8.891  11.635  17.809  0.00  0.00    +0.000 A 
ENDBRANCH   2   3
BRANCH   1  13
ATOM     13  C   UNL     1       7.278   6.958  17.327  0.00  0.00    +0.000 C 
ATOM     14  O   UNL     1       7.725   6.606  16.241  0.00  0.00    +0.000 OA
BRANCH  13  18
ATOM     15  C   UNL     1       3.686   5.080  18.768  0.00  0.00    +0.000 A 
ATOM     16  C   UNL     1       3.641   6.075  17.792  0.00  0.00    +0.000 A 
ATOM     17  C   UNL     1       4.819   6.682  17.345  0.00  0.00    +0.000 A 
ATOM     18  C   UNL     1       6.058   6.300  17.875  0.00  0.00    +0.000 A 
ATOM     19  C   UNL     1       6.094   5.342  18.897  0.00  0.00    +0.000 A 
ATOM     20  C   UNL     1       4.911   4.737  19.343  0.00  0.00    +0.000 A 
BRANCH  15  21
ATOM     21  O   UNL     1       2.476   4.531  19.092  0.00  0.00    +0.000 OA
BRANCH  21  23
ATOM     22  C   UNL     1       2.234   2.444  17.968  0.00  0.00    +0.000 C 
ATOM     23  C   UNL     1       2.459   3.119  19.308  0.00  0.00    +0.000 C 
ENDBRANCH  21  23
ENDBRANCH  15  21
ENDBRANCH  13  18
ENDBRANCH   1  13
TORSDOF 5
ENDMDL
MODEL 3
REMARK VINA RESULT:      -8.0      2.878      3.920
REMARK  Name = 
REMARK  6 active torsions:
REMARK  status: ('A' for Active; 'I' for Inactive)
REMARK    1  A    between atoms: C_1  and  C_2
REMARK    2  A    between atoms: C_2  and  O_3
REMARK    3  A    between atoms: O_3  and  C_4
REMARK    4  A    between atoms: C_7  and  C_8
REMARK    5  A    between atoms: C_8  and  C_10
REMARK    6  A    between atoms: C_11  and  C_12
REMARK                            x       y       z     vdW  Elec       q    Type
REMARK                         _______ _______ _______ _____ _____    ______ ____
ROOT
ATOM      1  C   UNL     1       7.959   8.303  17.866  0.00  0.00    +0.000 C 
ATOM      2  C   UNL     1       8.760   8.989  18.699  0.00  0.00    +0.000 C 
ENDROOT
BRANCH   2   3
ATOM      3  C   UNL     1       9.131  10.403  18.521  0.00  0.00    +0.000 A 
ATOM      4  C   UNL     1       8.318  11.204  17.712  0.00  0.00    +0.000 A 
ATOM      5  C   UNL     1       8.570  12.572  17.577  0.00  0.00    +0.000 A 
ATOM      6  C   UNL     1       9.653  13.168  18.237  0.00  0.00    +0.000 A 
ATOM      7  C   UNL     1       9.870  14.555  18.180  0.00  0.00    +0.000 A 
ATOM      8  C   UNL     1      10.957  15.133  18.836  0.00  0.00    +0.000 A 
ATOM      9  C   UNL     1      11.859  14.329  19.526  0.00  0.00    +0.000 A 
ATOM     10  C   UNL     1      11.651  12.949  19.598  0.00  0.00    +0.000 A 
ATOM     11  C   UNL     1      10.534  12.356  18.985  0.00  0.00    +0.000 A 
ATOM     12  C   UNL     1      10.263  10.980  19.113  0.00  0.00    +0.000 A 
ENDBRANCH   2   3
BRANCH   1  13
ATOM     13  C   UNL     1       7.707   6.854  18.121  0.00  0.00    +0.000 C 
ATOM     14  O   UNL     1       7.999   6.328  19.188  0.00  0.00    +0.000 OA
BRANCH  13  18
ATOM     15  C   UNL     1       5.738   4.676  14.976  0.00  0.00    +0.000 A 
ATOM     16  C   UNL     1       5.310   5.948  15.354  0.00  0.00    +0.000 A 
ATOM     17  C   UNL     1       5.955   6.635  16.386  0.00  0.00    +0.000 A 
ATOM     18  C   UNL     1       7.038   6.052  17.056  0.00  0.00    +0.000 A 
ATOM     19  C   UNL     1       7.429   4.751  16.715  0.00  0.00    +0.000 A 
ATOM     20  C   UNL     1       6.778   4.066  15.680  0.00  0.00    +0.000 A 
BRANCH  15  21
ATOM     21  O   UNL     1       5.058   4.123  13.927  0.00  0.00    +0.000 OA
BRANCH  21  23
ATOM     22  C   UNL     1       4.939   3.237  11.717  0.00  0.00    +0.000 C 
ATOM     23  C   UNL     1       5.854   3.555  12.885  0.00  0.00    +0.000 C 
ENDBRANCH  21  23
ENDBRANCH  15  21
ENDBRANCH  13  18
ENDBRANCH   1  13
TORSDOF 5
ENDMDL
MODEL 4
REMARK VINA RESULT:      -8.0      5.492      8.128
REMARK  Name = 
REMARK  6 active torsions:
REMARK  status: ('A' for Active; 'I' for Inactive)
REMARK    1  A    between atoms: C_1  and  C_2
REMARK    2  A    between atoms: C_2  and  O_3
REMARK    3  A    between atoms: O_3  and  C_4
REMARK    4  A    between atoms: C_7  and  C_8
REMARK    5  A    between atoms: C_8  and  C_10
REMARK    6  A    between atoms: C_11  and  C_12
REMARK                            x       y       z     vdW  Elec       q    Type
REMARK                         _______ _______ _______ _____ _____    ______ ____
ROOT
ATOM      1  C   UNL     1       3.135   5.290  19.391  0.00  0.00    +0.000 C 
ATOM      2  C   UNL     1       2.955   6.406  18.664  0.00  0.00    +0.000 C 
ENDROOT
BRANCH   2   3
ATOM      3  C   UNL     1       2.227   7.596  19.134  0.00  0.00    +0.000 A 
ATOM      4  C   UNL     1       1.985   8.627  18.219  0.00  0.00    +0.000 A 
ATOM      5  C   UNL     1       1.224   9.742  18.584  0.00  0.00    +0.000 A 
ATOM      6  C   UNL     1       0.701   9.858  19.880  0.00  0.00    +0.000 A 
ATOM      7  C   UNL     1      -0.135  10.929  20.236  0.00  0.00    +0.000 A 
ATOM      8  C   UNL     1      -0.642  11.035  21.531  0.00  0.00    +0.000 A 
ATOM      9  C   UNL     1      -0.290  10.094  22.493  0.00  0.00    +0.000 A 
ATOM     10  C   UNL     1       0.534   9.019  22.151  0.00  0.00    +0.000 A 
ATOM     11  C   UNL     1       1.013   8.869  20.838  0.00  0.00    +0.000 A 
ATOM     12  C   UNL     1       1.777   7.751  20.453  0.00  0.00    +0.000 A 
ENDBRANCH   2   3
BRANCH   1  13
ATOM     13  C   UNL     1       3.839   4.124  18.780  0.00  0.00    +0.000 C 
ATOM     14  O   UNL     1       3.510   2.970  19.030  0.00  0.00    +0.000 OA
BRANCH  13  18
ATOM     15  C   UNL     1       6.895   4.938  15.864  0.00  0.00    +0.000 A 
ATOM     16  C   UNL     1       5.604   4.579  15.478  0.00  0.00    +0.000 A 
ATOM     17  C   UNL     1       4.628   4.307  16.441  0.00  0.00    +0.000 A 
ATOM     18  C   UNL     1       4.936   4.388  17.805  0.00  0.00    +0.000 A 
ATOM     19  C   UNL     1       6.249   4.690  18.189  0.00  0.00    +0.000 A 
ATOM     20  C   UNL     1       7.225   4.962  17.220  0.00  0.00    +0.000 A 
BRANCH  15  21
ATOM     21  O   UNL     1       7.750   5.222  14.834  0.00  0.00    +0.000 OA
BRANCH  21  23
ATOM     22  C   UNL     1       8.106   5.627  12.513  0.00  0.00    +0.000 C 
ATOM     23  C   UNL     1       7.329   4.813  13.532  0.00  0.00    +0.000 C 
ENDBRANCH  21  23
ENDBRANCH  15  21
ENDBRANCH  13  18
ENDBRANCH   1  13
TORSDOF 5
ENDMDL
MODEL 5
REMARK VINA RESULT:      -8.0      1.036      1.036
REMARK  Name = 
REMARK  6 active torsions:
REMARK  status: ('A' for Active; 'I' for Inactive)
REMARK    1  A    between atoms: C_1  and  C_2
REMARK    2  A    between atoms: C_2  and  O_3
REMARK    3  A    between atoms: O_3  and  C_4
REMARK    4  A    between atoms: C_7  and  C_8
REMARK    5  A    between atoms: C_8  and  C_10
REMARK    6  A    between atoms: C_11  and  C_12
REMARK                            x       y       z     vdW  Elec       q    Type
REMARK                         _______ _______ _______ _____ _____    ______ ____
ROOT
ATOM      1  C   UNL     1       7.657   7.567  17.947  0.00  0.00    +0.000 C 
ATOM      2  C   UNL     1       7.980   8.765  17.433  0.00  0.00    +0.000 C 
ENDROOT
BRANCH   2   3
ATOM      3  C   UNL     1       8.569   9.871  18.205  0.00  0.00    +0.000 A 
ATOM      4  C   UNL     1       9.054   9.598  19.489  0.00  0.00    +0.000 A 
ATOM      5  C   UNL     1       9.702  10.587  20.234  0.00  0.00    +0.000 A 
ATOM      6  C   UNL     1       9.867  11.879  19.716  0.00  0.00    +0.000 A 
ATOM      7  C   UNL     1      10.590  12.859  20.417  0.00  0.00    +0.000 A 
ATOM      8  C   UNL     1      10.738  14.143  19.893  0.00  0.00    +0.000 A 
ATOM      9  C   UNL     1      10.137  14.473  18.682  0.00  0.00    +0.000 A 
ATOM     10  C   UNL     1       9.422  13.506  17.971  0.00  0.00    +0.000 A 
ATOM     11  C   UNL     1       9.304  12.194  18.460  0.00  0.00    +0.000 A 
ATOM     12  C   UNL     1       8.657  11.184  17.722  0.00  0.00    +0.000 A 
ENDBRANCH   2   3
BRANCH   1  13
ATOM     13  C   UNL     1       7.007   6.546  17.074  0.00  0.00    +0.000 C 
ATOM     14  O   UNL     1       7.618   5.990  16.168  0.00  0.00    +0.000 OA
BRANCH  13  18
ATOM     15  C   UNL     1       2.975   5.325  17.950  0.00  0.00    +0.000 A 
ATOM     16  C   UNL     1       3.979   4.388  17.710  0.00  0.00    +0.000 A 
ATOM     17  C   UNL     1       5.281   4.805  17.415  0.00  0.00    +0.000 A 
ATOM     18  C   UNL     1       5.591   6.169  17.354  0.00  0.00    +0.000 A 
ATOM     19  C   UNL     1       4.568   7.108  17.538  0.00  0.00    +0.000 A 
ATOM     20  C   UNL     1       3.265   6.686  17.832  0.00  0.00    +0.000 A 
BRANCH  15  21
ATOM     21  O   UNL     1       1.755   4.798  18.271  0.00  0.00    +0.000 OA
BRANCH  21  23
ATOM     22  C   UNL     1       1.002   3.614  20.198  0.00  0.00    +0.000 C 
ATOM     23  C   UNL     1       1.765   3.510  18.889  0.00  0.00    +0.000 C 
ENDBRANCH  21  23
ENDBRANCH  15  21
ENDBRANCH  13  18
ENDBRANCH   1  13
TORSDOF 5
ENDMDL
MODEL 6
REMARK VINA RESULT:      -7.9      1.122      1.122
REMARK  Name = 
REMARK  6 active torsions:
REMARK  status: ('A' for Active; 'I' for Inactive)
REMARK    1  A    between atoms: C_1  and  C_2
REMARK    2  A    between atoms: C_2  and  O_3
REMARK    3  A    between atoms: O_3  and  C_4
REMARK    4  A    between atoms: C_7  and  C_8
REMARK    5  A    between atoms: C_8  and  C_10
REMARK    6  A    between atoms: C_11  and  C_12
REMARK                            x       y       z     vdW  Elec       q    Type
REMARK                         _______ _______ _______ _____ _____    ______ ____
ROOT
ATOM      1  C   UNL     1       7.726   7.642  17.983  0.00  0.00    +0.000 C 
ATOM      2  C   UNL     1       8.080   8.825  17.453  0.00  0.00    +0.000 C 
ENDROOT
BRANCH   2   3
ATOM      3  C   UNL     1       8.601   9.962  18.228  0.00  0.00    +0.000 A 
ATOM      4  C   UNL     1       9.088   9.718  19.517  0.00  0.00    +0.000 A 
ATOM      5  C   UNL     1       9.673  10.742  20.266  0.00  0.00    +0.000 A 
ATOM      6  C   UNL     1       9.773  12.041  19.747  0.00  0.00    +0.000 A 
ATOM      7  C   UNL     1      10.434  13.060  20.452  0.00  0.00    +0.000 A 
ATOM      8  C   UNL     1      10.518  14.349  19.927  0.00  0.00    +0.000 A 
ATOM      9  C   UNL     1       9.911  14.644  18.710  0.00  0.00    +0.000 A 
ATOM     10  C   UNL     1       9.257  13.638  17.994  0.00  0.00    +0.000 A 
ATOM     11  C   UNL     1       9.205  12.322  18.485  0.00  0.00    +0.000 A 
ATOM     12  C   UNL     1       8.622  11.278  17.743  0.00  0.00    +0.000 A 
ENDBRANCH   2   3
BRANCH   1  13
ATOM     13  C   UNL     1       7.152   6.585  17.099  0.00  0.00    +0.000 C 
ATOM     14  O   UNL     1       7.677   6.282  16.034  0.00  0.00    +0.000 OA
BRANCH  13  18
ATOM     15  C   UNL     1       3.652   4.562  18.570  0.00  0.00    +0.000 A 
ATOM     16  C   UNL     1       4.658   4.990  19.436  0.00  0.00    +0.000 A 
ATOM     17  C   UNL     1       5.793   5.635  18.937  0.00  0.00    +0.000 A 
ATOM     18  C   UNL     1       5.936   5.856  17.561  0.00  0.00    +0.000 A 
ATOM     19  C   UNL     1       4.952   5.372  16.689  0.00  0.00    +0.000 A 
ATOM     20  C   UNL     1       3.816   4.725  17.193  0.00  0.00    +0.000 A 
BRANCH  15  21
ATOM     21  O   UNL     1       2.572   3.983  19.178  0.00  0.00    +0.000 OA
BRANCH  21  23
ATOM     22  C   UNL     1       1.503   3.211  21.163  0.00  0.00    +0.000 C 
ATOM     23  C   UNL     1       2.384   4.291  20.560  0.00  0.00    +0.000 C 
ENDBRANCH  21  23
ENDBRANCH  15  21
ENDBRANCH  13  18
ENDBRANCH   1  13
TORSDOF 5
ENDMDL
MODEL 7
REMARK VINA RESULT:      -7.8      0.953      1.833
REMARK  Name = 
REMARK  6 active torsions:
REMARK  status: ('A' for Active; 'I' for Inactive)
REMARK    1  A    between atoms: C_1  and  C_2
REMARK    2  A    between atoms: C_2  and  O_3
REMARK    3  A    between atoms: O_3  and  C_4
REMARK    4  A    between atoms: C_7  and  C_8
REMARK    5  A    between atoms: C_8  and  C_10
REMARK    6  A    between atoms: C_11  and  C_12
REMARK                            x       y       z     vdW  Elec       q    Type
REMARK                         _______ _______ _______ _____ _____    ______ ____
ROOT
ATOM      1  C   UNL     1       7.444   7.778  17.300  0.00  0.00    +0.000 C 
ATOM      2  C   UNL     1       8.140   8.294  18.328  0.00  0.00    +0.000 C 
ENDROOT
BRANCH   2   3
ATOM      3  C   UNL     1       8.621   9.683  18.394  0.00  0.00    +0.000 A 
ATOM      4  C   UNL     1       8.082  10.614  17.499  0.00  0.00    +0.000 A 
ATOM      5  C   UNL     1       8.436  11.964  17.573  0.00  0.00    +0.000 A 
ATOM      6  C   UNL     1       9.350  12.412  18.536  0.00  0.00    +0.000 A 
ATOM      7  C   UNL     1       9.651  13.777  18.678  0.00  0.00    +0.000 A 
ATOM      8  C   UNL     1      10.569  14.207  19.636  0.00  0.00    +0.000 A 
ATOM      9  C   UNL     1      11.223  13.277  20.437  0.00  0.00    +0.000 A 
ATOM     10  C   UNL     1      10.928  11.917  20.313  0.00  0.00    +0.000 A 
ATOM     11  C   UNL     1       9.970  11.471  19.387  0.00  0.00    +0.000 A 
ATOM     12  C   UNL     1       9.599  10.115  19.301  0.00  0.00    +0.000 A 
ENDBRANCH   2   3
BRANCH   1  13
ATOM     13  C   UNL     1       7.065   6.335  17.323  0.00  0.00    +0.000 C 
ATOM     14  O   UNL     1       7.819   5.464  16.905  0.00  0.00    +0.000 OA
BRANCH  13  18
ATOM     15  C   UNL     1       3.202   5.283  18.898  0.00  0.00    +0.000 A 
ATOM     16  C   UNL     1       3.346   6.295  17.950  0.00  0.00    +0.000 A 
ATOM     17  C   UNL     1       4.611   6.631  17.459  0.00  0.00    +0.000 A 
ATOM     18  C   UNL     1       5.750   5.956  17.916  0.00  0.00    +0.000 A 
ATOM     19  C   UNL     1       5.609   4.980  18.911  0.00  0.00    +0.000 A 
ATOM     20  C   UNL     1       4.339   4.647  19.401  0.00  0.00    +0.000 A 
BRANCH  15  21
ATOM     21  O   UNL     1       1.914   5.015  19.270  0.00  0.00    +0.000 OA
BRANCH  21  23
ATOM     22  C   UNL     1       1.114   3.329  20.752  0.00  0.00    +0.000 C 
ATOM     23  C   UNL     1       1.701   4.726  20.652  0.00  0.00    +0.000 C 
ENDBRANCH  21  23
ENDBRANCH  15  21
ENDBRANCH  13  18
ENDBRANCH   1  13
TORSDOF 5
ENDMDL
MODEL 8
REMARK VINA RESULT:      -7.8      5.934      9.001
REMARK  Name = 
REMARK  6 active torsions:
REMARK  status: ('A' for Active; 'I' for Inactive)
REMARK    1  A    between atoms: C_1  and  C_2
REMARK    2  A    between atoms: C_2  and  O_3
REMARK    3  A    between atoms: O_3  and  C_4
REMARK    4  A    between atoms: C_7  and  C_8
REMARK    5  A    between atoms: C_8  and  C_10
REMARK    6  A    between atoms: C_11  and  C_12
REMARK                            x       y       z     vdW  Elec       q    Type
REMARK                         _______ _______ _______ _____ _____    ______ ____
ROOT
ATOM      1  C   UNL     1       1.097   9.133  18.068  0.00  0.00    +0.000 C 
ATOM      2  C   UNL     1       1.958   8.389  18.782  0.00  0.00    +0.000 C 
ENDROOT
BRANCH   2   3
ATOM      3  C   UNL     1       2.693   7.229  18.254  0.00  0.00    +0.000 A 
ATOM      4  C   UNL     1       2.197   5.949  18.529  0.00  0.00    +0.000 A 
ATOM      5  C   UNL     1       2.803   4.815  17.981  0.00  0.00    +0.000 A 
ATOM      6  C   UNL     1       3.929   4.934  17.156  0.00  0.00    +0.000 A 
ATOM      7  C   UNL     1       4.497   3.812  16.530  0.00  0.00    +0.000 A 
ATOM      8  C   UNL     1       5.623   3.944  15.718  0.00  0.00    +0.000 A 
ATOM      9  C   UNL     1       6.216   5.192  15.551  0.00  0.00    +0.000 A 
ATOM     10  C   UNL     1       5.657   6.318  16.161  0.00  0.00    +0.000 A 
ATOM     11  C   UNL     1       4.494   6.211  16.943  0.00  0.00    +0.000 A 
ATOM     12  C   UNL     1       3.869   7.343  17.499  0.00  0.00    +0.000 A 
ENDBRANCH   2   3
BRANCH   1  13
ATOM     13  C   UNL     1       0.365  10.250  18.735  0.00  0.00    +0.000 C 
ATOM     14  O   UNL     1       0.894  10.944  19.596  0.00  0.00    +0.000 OA
BRANCH  13  18
ATOM     15  C   UNL     1      -3.674  10.953  17.432  0.00  0.00    +0.000 A 
ATOM     16  C   UNL     1      -2.885   9.967  16.842  0.00  0.00    +0.000 A 
ATOM     17  C   UNL     1      -1.570   9.761  17.272  0.00  0.00    +0.000 A 
ATOM     18  C   UNL     1      -1.029  10.546  18.298  0.00  0.00    +0.000 A 
ATOM     19  C   UNL     1      -1.805  11.575  18.848  0.00  0.00    +0.000 A 
ATOM     20  C   UNL     1      -3.122  11.778  18.414  0.00  0.00    +0.000 A 
BRANCH  15  21
ATOM     21  O   UNL     1      -4.955  11.030  16.959  0.00  0.00    +0.000 OA
BRANCH  21  23
ATOM     22  C   UNL     1      -6.632  10.585  18.592  0.00  0.00    +0.000 C 
ATOM     23  C   UNL     1      -5.908  11.666  17.811  0.00  0.00    +0.000 C 
ENDBRANCH  21  23
ENDBRANCH  15  21
ENDBRANCH  13  18
ENDBRANCH   1  13
TORSDOF 5
ENDMDL
MODEL 9
REMARK VINA RESULT:      -7.8      5.239      8.429
REMARK  Name = 
REMARK  6 active torsions:
REMARK  status: ('A' for Active; 'I' for Inactive)
REMARK    1  A    between atoms: C_1  and  C_2
REMARK    2  A    between atoms: C_2  and  O_3
REMARK    3  A    between atoms: O_3  and  C_4
REMARK    4  A    between atoms: C_7  and  C_8
REMARK    5  A    between atoms: C_8  and  C_10
REMARK    6  A    between atoms: C_11  and  C_12
REMARK                            x       y       z     vdW  Elec       q    Type
REMARK                         _______ _______ _______ _____ _____    ______ ____
ROOT
ATOM      1  C   UNL     1       2.154   5.945  18.529  0.00  0.00    +0.000 C 
ATOM      2  C   UNL     1       2.426   6.674  19.624  0.00  0.00    +0.000 C 
ENDROOT
BRANCH   2   3
ATOM      3  C   UNL     1       1.698   7.891  20.017  0.00  0.00    +0.000 A 
ATOM      4  C   UNL     1       1.545   8.907  19.067  0.00  0.00    +0.000 A 
ATOM      5  C   UNL     1       0.789  10.047  19.355  0.00  0.00    +0.000 A 
ATOM      6  C   UNL     1       0.180  10.203  20.607  0.00  0.00    +0.000 A 
ATOM      7  C   UNL     1      -0.652  11.301  20.882  0.00  0.00    +0.000 A 
ATOM      8  C   UNL     1      -1.245  11.448  22.136  0.00  0.00    +0.000 A 
ATOM      9  C   UNL     1      -0.985  10.520  23.140  0.00  0.00    +0.000 A 
ATOM     10  C   UNL     1      -0.166   9.419  22.878  0.00  0.00    +0.000 A 
ATOM     11  C   UNL     1       0.400   9.229  21.605  0.00  0.00    +0.000 A 
ATOM     12  C   UNL     1       1.161   8.085  21.297  0.00  0.00    +0.000 A 
ENDBRANCH   2   3
BRANCH   1  13
ATOM     13  C   UNL     1       3.005   4.763  18.204  0.00  0.00    +0.000 C 
ATOM     14  O   UNL     1       2.695   3.630  18.553  0.00  0.00    +0.000 OA
BRANCH  13  18
ATOM     15  C   UNL     1       6.507   5.276  15.759  0.00  0.00    +0.000 A 
ATOM     16  C   UNL     1       5.824   4.061  15.799  0.00  0.00    +0.000 A 
ATOM     17  C   UNL     1       4.695   3.910  16.609  0.00  0.00    +0.000 A 
ATOM     18  C   UNL     1       4.238   4.977  17.393  0.00  0.00    +0.000 A 
ATOM     19  C   UNL     1       4.961   6.177  17.396  0.00  0.00    +0.000 A 
ATOM     20  C   UNL     1       6.093   6.324  16.582  0.00  0.00    +0.000 A 
BRANCH  15  21
ATOM     21  O   UNL     1       7.569   5.316  14.897  0.00  0.00    +0.000 OA
BRANCH  21  23
ATOM     22  C   UNL     1       8.137   5.616  12.602  0.00  0.00    +0.000 C 
ATOM     23  C   UNL     1       7.345   4.780  13.592  0.00  0.00    +0.000 C 
ENDBRANCH  21  23
ENDBRANCH  15  21
ENDBRANCH  13  18
ENDBRANCH   1  13
TORSDOF 5
ENDMDL
