MODEL 1
REMARK VINA RESULT:      -7.6      0.000      0.000
REMARK  Name = 
REMARK  4 active torsions:
REMARK  status: ('A' for Active; 'I' for Inactive)
REMARK    1  A    between atoms: C_1  and  N_2
REMARK    2  A    between atoms: C_6  and  C_7
REMARK    3  A    between atoms: C_7  and  N_8
REMARK    4  A    between atoms: N_15  and  C_16
REMARK                            x       y       z     vdW  Elec       q    Type
REMARK                         _______ _______ _______ _____ _____    ______ ____
ROOT
ATOM      1  N   UNL     1       6.175   5.233  16.267  0.00  0.00    +0.000 NA
ATOM      2  C   UNL     1       4.830   5.778  16.431  0.00  0.00    +0.000 C 
ATOM      3  C   UNL     1       3.890   4.854  17.199  0.00  0.00    +0.000 C 
ATOM      4  C   UNL     1       4.411   4.444  18.592  0.00  0.00    +0.000 C 
ATOM      5  C   UNL     1       5.919   4.113  18.560  0.00  0.00    +0.000 C 
ATOM      6  C   UNL     1       6.769   4.904  17.560  0.00  0.00    +0.000 C 
ATOM      7  C   UNL     1       4.118   5.490  19.693  0.00  0.00    +0.000 C 
ATOM      8  N   UNL     1       2.685   5.765  19.824  0.00  0.00    +0.000 N 
ATOM      9  C   UNL     1       1.840   4.649  19.953  0.00  0.00    +0.000 C 
ATOM     10  O   UNL     1       0.723   4.660  20.471  0.00  0.00    +0.000 OA
ATOM     11  C   UNL     1       2.353   3.390  19.229  0.00  0.00    +0.000 C 
ATOM     12  O   UNL     1       3.751   3.232  19.033  0.00  0.00    +0.000 OA
ENDROOT
BRANCH   8  13
ATOM     13  C   UNL     1       2.170   7.109  19.781  0.00  0.00    +0.000 A 
ATOM     14  C   UNL     1       1.508   7.701  20.841  0.00  0.00    +0.000 A 
ATOM     15  N   UNL     1       0.899   8.913  20.799  0.00  0.00    +0.000 NA
ATOM     16  C   UNL     1       0.979   9.563  19.630  0.00  0.00    +0.000 A 
ATOM     17  N   UNL     1       1.610   9.123  18.542  0.00  0.00    +0.000 NA
ATOM     18  C   UNL     1       2.191   7.909  18.644  0.00  0.00    +0.000 A 
ENDBRANCH   8  13
BRANCH   1  19
ATOM     19  C   UNL     1       6.271   4.165  15.252  0.00  0.00    +0.000 C 
BRANCH  19  25
ATOM     20  C   UNL     1       5.716   3.129  12.365  0.00  0.00    +0.000 C 
ATOM     21  N   UNL     1       6.695   4.127  12.724  0.00  0.00    +0.000 N 
ATOM     22  C   UNL     1       7.437   4.842  11.817  0.00  0.00    +0.000 A 
ATOM     23  C   UNL     1       8.200   5.688  12.578  0.00  0.00    +0.000 A 
ATOM     24  N   UNL     1       7.940   5.516  13.913  0.00  0.00    +0.000 NA
ATOM     25  C   UNL     1       7.002   4.580  13.994  0.00  0.00    +0.000 A 
ENDBRANCH  19  25
ENDBRANCH   1  19
TORSDOF 3
ENDMDL
MODEL 2
REMARK VINA RESULT:      -6.8      1.790      7.677
REMARK  Name = 
REMARK  4 active torsions:
REMARK  status: ('A' for Active; 'I' for Inactive)
REMARK    1  A    between atoms: C_1  and  N_2
REMARK    2  A    between atoms: C_6  and  C_7
REMARK    3  A    between atoms: C_7  and  N_8
REMARK    4  A    between atoms: N_15  and  C_16
REMARK                            x       y       z     vdW  Elec       q    Type
REMARK                         _______ _______ _______ _____ _____    ______ ____
ROOT
ATOM      1  N   UNL     1       2.433   7.374  17.924  0.00  0.00    +0.000 NA
ATOM      2  C   UNL     1       3.674   7.374  17.154  0.00  0.00    +0.000 C 
ATOM      3  C   UNL     1       4.877   6.866  17.941  0.00  0.00    +0.000 C 
ATOM      4  C   UNL     1       4.689   5.457  18.541  0.00  0.00    +0.000 C 
ATOM      5  C   UNL     1       3.277   5.279  19.141  0.00  0.00    +0.000 C 
ATOM      6  C   UNL     1       2.141   6.043  18.450  0.00  0.00    +0.000 C 
ATOM      7  C   UNL     1       4.990   4.316  17.541  0.00  0.00    +0.000 C 
ATOM      8  N   UNL     1       6.356   4.390  17.017  0.00  0.00    +0.000 N 
ATOM      9  C   UNL     1       7.387   4.515  17.963  0.00  0.00    +0.000 C 
ATOM     10  O   UNL     1       8.560   4.185  17.784  0.00  0.00    +0.000 OA
ATOM     11  C   UNL     1       6.974   5.272  19.239  0.00  0.00    +0.000 C 
ATOM     12  O   UNL     1       5.612   5.255  19.638  0.00  0.00    +0.000 OA
ENDROOT
BRANCH   8  13
ATOM     13  C   UNL     1       6.620   4.377  15.601  0.00  0.00    +0.000 A 
ATOM     14  C   UNL     1       7.501   5.247  14.986  0.00  0.00    +0.000 A 
ATOM     15  N   UNL     1       7.683   5.353  13.645  0.00  0.00    +0.000 NA
ATOM     16  C   UNL     1       6.946   4.524  12.892  0.00  0.00    +0.000 A 
ATOM     17  N   UNL     1       6.085   3.620  13.354  0.00  0.00    +0.000 NA
ATOM     18  C   UNL     1       5.943   3.566  14.695  0.00  0.00    +0.000 A 
ENDBRANCH   8  13
BRANCH   1  19
ATOM     19  C   UNL     1       2.341   8.464  18.916  0.00  0.00    +0.000 C 
BRANCH  19  25
ATOM     20  C   UNL     1       0.735   9.441  21.402  0.00  0.00    +0.000 C 
ATOM     21  N   UNL     1       0.359   9.653  20.024  0.00  0.00    +0.000 N 
ATOM     22  C   UNL     1      -0.705  10.421  19.624  0.00  0.00    +0.000 A 
ATOM     23  C   UNL     1      -0.674  10.377  18.255  0.00  0.00    +0.000 A 
ATOM     24  N   UNL     1       0.376   9.617  17.812  0.00  0.00    +0.000 NA
ATOM     25  C   UNL     1       1.018   9.198  18.897  0.00  0.00    +0.000 A 
ENDBRANCH  19  25
ENDBRANCH   1  19
TORSDOF 3
ENDMDL
MODEL 3
REMARK VINA RESULT:      -6.8      1.717      7.657
REMARK  Name = 
REMARK  4 active torsions:
REMARK  status: ('A' for Active; 'I' for Inactive)
REMARK    1  A    between atoms: C_1  and  N_2
REMARK    2  A    between atoms: C_6  and  C_7
REMARK    3  A    between atoms: C_7  and  N_8
REMARK    4  A    between atoms: N_15  and  C_16
REMARK                            x       y       z     vdW  Elec       q    Type
REMARK                         _______ _______ _______ _____ _____    ______ ____
ROOT
ATOM      1  N   UNL     1       2.310   6.941  18.368  0.00  0.00    +0.000 NA
ATOM      2  C   UNL     1       3.500   7.100  17.536  0.00  0.00    +0.000 C 
ATOM      3  C   UNL     1       4.779   6.612  18.208  0.00  0.00    +0.000 C 
ATOM      4  C   UNL     1       4.722   5.145  18.681  0.00  0.00    +0.000 C 
ATOM      5  C   UNL     1       3.364   4.811  19.337  0.00  0.00    +0.000 C 
ATOM      6  C   UNL     1       2.140   5.550  18.781  0.00  0.00    +0.000 C 
ATOM      7  C   UNL     1       5.040   4.123  17.564  0.00  0.00    +0.000 C 
ATOM      8  N   UNL     1       6.363   4.343  16.977  0.00  0.00    +0.000 N 
ATOM      9  C   UNL     1       7.439   4.456  17.875  0.00  0.00    +0.000 C 
ATOM     10  O   UNL     1       8.618   4.230  17.603  0.00  0.00    +0.000 OA
ATOM     11  C   UNL     1       7.053   5.064  19.237  0.00  0.00    +0.000 C 
ATOM     12  O   UNL     1       5.721   4.912  19.704  0.00  0.00    +0.000 OA
ENDROOT
BRANCH   8  13
ATOM     13  C   UNL     1       6.543   4.476  15.554  0.00  0.00    +0.000 A 
ATOM     14  C   UNL     1       5.964   3.621  14.634  0.00  0.00    +0.000 A 
ATOM     15  N   UNL     1       6.208   3.634  13.299  0.00  0.00    +0.000 NA
ATOM     16  C   UNL     1       7.068   4.570  12.875  0.00  0.00    +0.000 A 
ATOM     17  N   UNL     1       7.671   5.473  13.646  0.00  0.00    +0.000 NA
ATOM     18  C   UNL     1       7.394   5.406  14.965  0.00  0.00    +0.000 A 
ENDBRANCH   8  13
BRANCH   1  19
ATOM     19  C   UNL     1       2.204   7.928  19.461  0.00  0.00    +0.000 C 
BRANCH  19  25
ATOM     20  C   UNL     1       0.157   8.912  21.596  0.00  0.00    +0.000 C 
ATOM     21  N   UNL     1       0.255   9.398  20.240  0.00  0.00    +0.000 N 
ATOM     22  C   UNL     1      -0.472  10.451  19.744  0.00  0.00    +0.000 A 
ATOM     23  C   UNL     1      -0.047  10.592  18.448  0.00  0.00    +0.000 A 
ATOM     24  N   UNL     1       0.918   9.667  18.147  0.00  0.00    +0.000 NA
ATOM     25  C   UNL     1       1.116   8.958  19.252  0.00  0.00    +0.000 A 
ENDBRANCH  19  25
ENDBRANCH   1  19
TORSDOF 3
ENDMDL
MODEL 4
REMARK VINA RESULT:      -6.8      0.842      1.701
REMARK  Name = 
REMARK  4 active torsions:
REMARK  status: ('A' for Active; 'I' for Inactive)
REMARK    1  A    between atoms: C_1  and  N_2
REMARK    2  A    between atoms: C_6  and  C_7
REMARK    3  A    between atoms: C_7  and  N_8
REMARK    4  A    between atoms: N_15  and  C_16
REMARK                            x       y       z     vdW  Elec       q    Type
REMARK                         _______ _______ _______ _____ _____    ______ ____
ROOT
ATOM      1  N   UNL     1       6.631   5.270  16.078  0.00  0.00    +0.000 NA
ATOM      2  C   UNL     1       5.214   5.616  16.150  0.00  0.00    +0.000 C 
ATOM      3  C   UNL     1       4.438   4.783  17.165  0.00  0.00    +0.000 C 
ATOM      4  C   UNL     1       5.014   4.834  18.595  0.00  0.00    +0.000 C 
ATOM      5  C   UNL     1       6.557   4.753  18.589  0.00  0.00    +0.000 C 
ATOM      6  C   UNL     1       7.268   5.386  17.387  0.00  0.00    +0.000 C 
ATOM      7  C   UNL     1       4.549   6.068  19.404  0.00  0.00    +0.000 C 
ATOM      8  N   UNL     1       3.091   6.134  19.517  0.00  0.00    +0.000 N 
ATOM      9  C   UNL     1       2.440   4.968  19.959  0.00  0.00    +0.000 C 
ATOM     10  O   UNL     1       1.336   4.933  20.501  0.00  0.00    +0.000 OA
ATOM     11  C   UNL     1       3.157   3.665  19.560  0.00  0.00    +0.000 C 
ATOM     12  O   UNL     1       4.562   3.688  19.356  0.00  0.00    +0.000 OA
ENDROOT
BRANCH   8  13
ATOM     13  C   UNL     1       2.361   7.321  19.154  0.00  0.00    +0.000 A 
ATOM     14  C   UNL     1       2.367   7.853  17.878  0.00  0.00    +0.000 A 
ATOM     15  N   UNL     1       1.799   9.034  17.524  0.00  0.00    +0.000 NA
ATOM     16  C   UNL     1       1.182   9.700  18.510  0.00  0.00    +0.000 A 
ATOM     17  N   UNL     1       1.075   9.289  19.773  0.00  0.00    +0.000 NA
ATOM     18  C   UNL     1       1.665   8.110  20.064  0.00  0.00    +0.000 A 
ENDBRANCH   8  13
BRANCH   1  19
ATOM     19  C   UNL     1       6.906   4.007  15.365  0.00  0.00    +0.000 C 
BRANCH  19  25
ATOM     20  C   UNL     1       8.335   5.452  13.002  0.00  0.00    +0.000 C 
ATOM     21  N   UNL     1       7.153   4.631  12.891  0.00  0.00    +0.000 N 
ATOM     22  C   UNL     1       6.565   4.281  11.702  0.00  0.00    +0.000 A 
ATOM     23  C   UNL     1       5.510   3.480  12.054  0.00  0.00    +0.000 A 
ATOM     24  N   UNL     1       5.444   3.327  13.414  0.00  0.00    +0.000 NA
ATOM     25  C   UNL     1       6.465   4.011  13.918  0.00  0.00    +0.000 A 
ENDBRANCH  19  25
ENDBRANCH   1  19
TORSDOF 3
ENDMDL
MODEL 5
REMARK VINA RESULT:      -6.7      2.339      7.468
REMARK  Name = 
REMARK  4 active torsions:
REMARK  status: ('A' for Active; 'I' for Inactive)
REMARK    1  A    between atoms: C_1  and  N_2
REMARK    2  A    between atoms: C_6  and  C_7
REMARK    3  A    between atoms: C_7  and  N_8
REMARK    4  A    between atoms: N_15  and  C_16
REMARK                            x       y       z     vdW  Elec       q    Type
REMARK                         _______ _______ _______ _____ _____    ______ ____
ROOT
ATOM      1  N   UNL     1       2.307   2.711  17.475  0.00  0.00    +0.000 NA
ATOM      2  C   UNL     1       2.820   3.647  16.478  0.00  0.00    +0.000 C 
ATOM      3  C   UNL     1       3.767   4.692  17.059  0.00  0.00    +0.000 C 
ATOM      4  C   UNL     1       4.972   4.097  17.818  0.00  0.00    +0.000 C 
ATOM      5  C   UNL     1       4.553   2.900  18.700  0.00  0.00    +0.000 C 
ATOM      6  C   UNL     1       3.398   2.038  18.175  0.00  0.00    +0.000 C 
ATOM      7  C   UNL     1       6.145   3.694  16.895  0.00  0.00    +0.000 C 
ATOM      8  N   UNL     1       6.639   4.825  16.107  0.00  0.00    +0.000 N 
ATOM      9  C   UNL     1       6.938   6.002  16.814  0.00  0.00    +0.000 C 
ATOM     10  O   UNL     1       7.719   6.877  16.441  0.00  0.00    +0.000 OA
ATOM     11  C   UNL     1       6.067   6.215  18.067  0.00  0.00    +0.000 C 
ATOM     12  O   UNL     1       5.523   5.081  18.726  0.00  0.00    +0.000 OA
ENDROOT
BRANCH   8  13
ATOM     13  C   UNL     1       6.772   4.743  14.675  0.00  0.00    +0.000 A 
ATOM     14  C   UNL     1       6.070   3.839  13.900  0.00  0.00    +0.000 A 
ATOM     15  N   UNL     1       6.257   3.643  12.570  0.00  0.00    +0.000 NA
ATOM     16  C   UNL     1       7.192   4.414  11.996  0.00  0.00    +0.000 A 
ATOM     17  N   UNL     1       7.917   5.343  12.617  0.00  0.00    +0.000 NA
ATOM     18  C   UNL     1       7.689   5.486  13.939  0.00  0.00    +0.000 A 
ENDBRANCH   8  13
BRANCH   1  19
ATOM     19  C   UNL     1       1.265   3.279  18.353  0.00  0.00    +0.000 C 
BRANCH  19  25
ATOM     20  C   UNL     1       2.282   5.716  20.009  0.00  0.00    +0.000 C 
ATOM     21  N   UNL     1       2.040   4.391  20.528  0.00  0.00    +0.000 N 
ATOM     22  C   UNL     1       2.116   4.059  21.857  0.00  0.00    +0.000 A 
ATOM     23  C   UNL     1       1.782   2.730  21.906  0.00  0.00    +0.000 A 
ATOM     24  N   UNL     1       1.499   2.250  20.654  0.00  0.00    +0.000 NA
ATOM     25  C   UNL     1       1.633   3.276  19.821  0.00  0.00    +0.000 A 
ENDBRANCH  19  25
ENDBRANCH   1  19
TORSDOF 3
ENDMDL
MODEL 6
REMARK VINA RESULT:      -6.1      4.024      6.796
REMARK  Name = 
REMARK  4 active torsions:
REMARK  status: ('A' for Active; 'I' for Inactive)
REMARK    1  A    between atoms: C_1  and  N_2
REMARK    2  A    between atoms: C_6  and  C_7
REMARK    3  A    between atoms: C_7  and  N_8
REMARK    4  A    between atoms: N_15  and  C_16
REMARK                            x       y       z     vdW  Elec       q    Type
REMARK                         _______ _______ _______ _____ _____    ______ ____
ROOT
ATOM      1  N   UNL     1       2.465   7.389  19.033  0.00  0.00    +0.000 NA
ATOM      2  C   UNL     1       2.570   8.689  18.377  0.00  0.00    +0.000 C 
ATOM      3  C   UNL     1       1.244   9.437  18.296  0.00  0.00    +0.000 C 
ATOM      4  C   UNL     1       0.554   9.647  19.660  0.00  0.00    +0.000 C 
ATOM      5  C   UNL     1       0.643   8.382  20.543  0.00  0.00    +0.000 C 
ATOM      6  C   UNL     1       1.901   7.522  20.374  0.00  0.00    +0.000 C 
ATOM      7  C   UNL     1       1.083  10.876  20.436  0.00  0.00    +0.000 C 
ATOM      8  N   UNL     1       0.930  12.117  19.673  0.00  0.00    +0.000 N 
ATOM      9  C   UNL     1      -0.343  12.372  19.135  0.00  0.00    +0.000 C 
ATOM     10  O   UNL     1      -0.781  13.484  18.843  0.00  0.00    +0.000 OA
ATOM     11  C   UNL     1      -1.131  11.100  18.768  0.00  0.00    +0.000 C 
ATOM     12  O   UNL     1      -0.860   9.897  19.471  0.00  0.00    +0.000 OA
ENDROOT
BRANCH   8  13
ATOM     13  C   UNL     1       2.041  13.006  19.453  0.00  0.00    +0.000 A 
ATOM     14  C   UNL     1       2.613  13.767  20.456  0.00  0.00    +0.000 A 
ATOM     15  N   UNL     1       3.573  14.708  20.268  0.00  0.00    +0.000 NA
ATOM     16  C   UNL     1       3.985  14.873  19.003  0.00  0.00    +0.000 A 
ATOM     17  N   UNL     1       3.542  14.188  17.950  0.00  0.00    +0.000 NA
ATOM     18  C   UNL     1       2.584  13.271  18.200  0.00  0.00    +0.000 A 
ENDBRANCH   8  13
BRANCH   1  19
ATOM     19  C   UNL     1       1.839   6.344  18.200  0.00  0.00    +0.000 C 
BRANCH  19  25
ATOM     20  C   UNL     1       1.083   3.956  20.056  0.00  0.00    +0.000 C 
ATOM     21  N   UNL     1       2.145   3.955  19.077  0.00  0.00    +0.000 N 
ATOM     22  C   UNL     1       2.892   2.851  18.751  0.00  0.00    +0.000 A 
ATOM     23  C   UNL     1       3.746   3.283  17.770  0.00  0.00    +0.000 A 
ATOM     24  N   UNL     1       3.535   4.607  17.485  0.00  0.00    +0.000 NA
ATOM     25  C   UNL     1       2.539   5.005  18.269  0.00  0.00    +0.000 A 
ENDBRANCH  19  25
ENDBRANCH   1  19
TORSDOF 3
ENDMDL
MODEL 7
REMARK VINA RESULT:      -6.0      2.188      7.197
REMARK  Name = 
REMARK  4 active torsions:
REMARK  status: ('A' for Active; 'I' for Inactive)
REMARK    1  A    between atoms: C_1  and  N_2
REMARK    2  A    between atoms: C_6  and  C_7
REMARK    3  A    between atoms: C_7  and  N_8
REMARK    4  A    between atoms: N_15  and  C_16
REMARK                            x       y       z     vdW  Elec       q    Type
REMARK                         _______ _______ _______ _____ _____    ______ ____
ROOT
ATOM      1  N   UNL     1       2.387   2.126  17.882  0.00  0.00    +0.000 NA
ATOM      2  C   UNL     1       2.738   3.045  16.802  0.00  0.00    +0.000 C 
ATOM      3  C   UNL     1       3.400   4.329  17.289  0.00  0.00    +0.000 C 
ATOM      4  C   UNL     1       4.661   4.101  18.148  0.00  0.00    +0.000 C 
ATOM      5  C   UNL     1       4.466   2.939  19.147  0.00  0.00    +0.000 C 
ATOM      6  C   UNL     1       3.559   1.792  18.688  0.00  0.00    +0.000 C 
ATOM      7  C   UNL     1       5.944   3.877  17.313  0.00  0.00    +0.000 C 
ATOM      8  N   UNL     1       6.222   5.001  16.418  0.00  0.00    +0.000 N 
ATOM      9  C   UNL     1       6.216   6.283  16.996  0.00  0.00    +0.000 C 
ATOM     10  O   UNL     1       6.807   7.266  16.549  0.00  0.00    +0.000 OA
ATOM     11  C   UNL     1       5.252   6.424  18.188  0.00  0.00    +0.000 C 
ATOM     12  O   UNL     1       4.933   5.273  18.955  0.00  0.00    +0.000 OA
ENDROOT
BRANCH   8  13
ATOM     13  C   UNL     1       6.449   4.803  15.010  0.00  0.00    +0.000 A 
ATOM     14  C   UNL     1       5.723   3.909  14.244  0.00  0.00    +0.000 A 
ATOM     15  N   UNL     1       5.986   3.600  12.949  0.00  0.00    +0.000 NA
ATOM     16  C   UNL     1       7.027   4.241  12.399  0.00  0.00    +0.000 A 
ATOM     17  N   UNL     1       7.789   5.145  13.011  0.00  0.00    +0.000 NA
ATOM     18  C   UNL     1       7.482   5.405  14.299  0.00  0.00    +0.000 A 
ENDBRANCH   8  13
BRANCH   1  19
ATOM     19  C   UNL     1       1.200   2.536  18.657  0.00  0.00    +0.000 C 
BRANCH  19  25
ATOM     20  C   UNL     1       1.805   2.388  21.711  0.00  0.00    +0.000 C 
ATOM     21  N   UNL     1       1.754   3.597  20.923  0.00  0.00    +0.000 N 
ATOM     22  C   UNL     1       2.083   4.841  21.398  0.00  0.00    +0.000 A 
ATOM     23  C   UNL     1       1.929   5.679  20.324  0.00  0.00    +0.000 A 
ATOM     24  N   UNL     1       1.526   4.983  19.215  0.00  0.00    +0.000 NA
ATOM     25  C   UNL     1       1.446   3.709  19.580  0.00  0.00    +0.000 A 
ENDBRANCH  19  25
ENDBRANCH   1  19
TORSDOF 3
ENDMDL
MODEL 8
REMARK VINA RESULT:      -6.0      3.654      6.742
REMARK  Name = 
REMARK  4 active torsions:
REMARK  status: ('A' for Active; 'I' for Inactive)
REMARK    1  A    between atoms: C_1  and  N_2
REMARK    2  A    between atoms: C_6  and  C_7
REMARK    3  A    between atoms: C_7  and  N_8
REMARK    4  A    between atoms: N_15  and  C_16
REMARK                            x       y       z     vdW  Elec       q    Type
REMARK                         _______ _______ _______ _____ _____    ______ ____
ROOT
ATOM      1  N   UNL     1       2.510   7.559  18.739  0.00  0.00    +0.000 NA
ATOM      2  C   UNL     1       2.498   8.903  18.168  0.00  0.00    +0.000 C 
ATOM      3  C   UNL     1       1.140   9.591  18.262  0.00  0.00    +0.000 C 
ATOM      4  C   UNL     1       0.576   9.678  19.696  0.00  0.00    +0.000 C 
ATOM      5  C   UNL     1       0.801   8.364  20.476  0.00  0.00    +0.000 C 
ATOM      6  C   UNL     1       2.072   7.577  20.133  0.00  0.00    +0.000 C 
ATOM      7  C   UNL     1       1.126  10.878  20.503  0.00  0.00    +0.000 C 
ATOM      8  N   UNL     1       0.849  12.156  19.845  0.00  0.00    +0.000 N 
ATOM      9  C   UNL     1      -0.479  12.385  19.446  0.00  0.00    +0.000 C 
ATOM     10  O   UNL     1      -0.989  13.492  19.274  0.00  0.00    +0.000 OA
ATOM     11  C   UNL     1      -1.246  11.104  19.067  0.00  0.00    +0.000 C 
ATOM     12  O   UNL     1      -0.859   9.872  19.656  0.00  0.00    +0.000 OA
ENDROOT
BRANCH   8  13
ATOM     13  C   UNL     1       1.896  13.110  19.585  0.00  0.00    +0.000 A 
ATOM     14  C   UNL     1       2.428  13.328  18.328  0.00  0.00    +0.000 A 
ATOM     15  N   UNL     1       3.497  14.121  18.061  0.00  0.00    +0.000 NA
ATOM     16  C   UNL     1       4.042  14.736  19.120  0.00  0.00    +0.000 A 
ATOM     17  N   UNL     1       3.612  14.639  20.376  0.00  0.00    +0.000 NA
ATOM     18  C   UNL     1       2.550  13.831  20.579  0.00  0.00    +0.000 A 
ENDBRANCH   8  13
BRANCH   1  19
ATOM     19  C   UNL     1       1.850   6.542  17.897  0.00  0.00    +0.000 C 
BRANCH  19  25
ATOM     20  C   UNL     1       4.532   5.291  16.917  0.00  0.00    +0.000 C 
ATOM     21  N   UNL     1       3.547   4.627  17.738  0.00  0.00    +0.000 N 
ATOM     22  C   UNL     1       3.719   3.386  18.296  0.00  0.00    +0.000 A 
ATOM     23  C   UNL     1       2.572   3.162  19.012  0.00  0.00    +0.000 A 
ATOM     24  N   UNL     1       1.717   4.228  18.914  0.00  0.00    +0.000 NA
ATOM     25  C   UNL     1       2.329   5.130  18.155  0.00  0.00    +0.000 A 
ENDBRANCH  19  25
ENDBRANCH   1  19
TORSDOF 3
ENDMDL
MODEL 9
REMARK VINA RESULT:      -5.9      9.082     10.594
REMARK  Name = 
REMARK  4 active torsions:
REMARK  status: ('A' for Active; 'I' for Inactive)
REMARK    1  A    between atoms: C_1  and  N_2
REMARK    2  A    between atoms: C_6  and  C_7
REMARK    3  A    between atoms: C_7  and  N_8
REMARK    4  A    between atoms: N_15  and  C_16
REMARK                            x       y       z     vdW  Elec       q    Type
REMARK                         _______ _______ _______ _____ _____    ______ ____
ROOT
ATOM      1  N   UNL     1       8.326  12.616  21.794  0.00  0.00    +0.000 NA
ATOM      2  C   UNL     1       8.035  11.780  22.955  0.00  0.00    +0.000 C 
ATOM      3  C   UNL     1       8.473  12.403  24.277  0.00  0.00    +0.000 C 
ATOM      4  C   UNL     1       7.882  13.804  24.539  0.00  0.00    +0.000 C 
ATOM      5  C   UNL     1       7.899  14.675  23.264  0.00  0.00    +0.000 C 
ATOM      6  C   UNL     1       7.718  13.937  21.932  0.00  0.00    +0.000 C 
ATOM      7  C   UNL     1       6.459  13.770  25.144  0.00  0.00    +0.000 C 
ATOM      8  N   UNL     1       6.415  13.033  26.408  0.00  0.00    +0.000 N 
ATOM      9  C   UNL     1       7.365  13.392  27.380  0.00  0.00    +0.000 C 
ATOM     10  O   UNL     1       7.245  13.212  28.591  0.00  0.00    +0.000 OA
ATOM     11  C   UNL     1       8.695  13.902  26.793  0.00  0.00    +0.000 C 
ATOM     12  O   UNL     1       8.691  14.511  25.510  0.00  0.00    +0.000 OA
ENDROOT
BRANCH   8  13
ATOM     13  C   UNL     1       5.471  11.967  26.625  0.00  0.00    +0.000 A 
ATOM     14  C   UNL     1       5.351  10.879  25.781  0.00  0.00    +0.000 A 
ATOM     15  N   UNL     1       4.394   9.921  25.877  0.00  0.00    +0.000 NA
ATOM     16  C   UNL     1       3.527  10.066  26.888  0.00  0.00    +0.000 A 
ATOM     17  N   UNL     1       3.546  11.047  27.789  0.00  0.00    +0.000 NA
ATOM     18  C   UNL     1       4.518  11.972  27.638  0.00  0.00    +0.000 A 
ENDBRANCH   8  13
BRANCH   1  19
ATOM     19  C   UNL     1       9.750  12.629  21.405  0.00  0.00    +0.000 C 
BRANCH  19  25
ATOM     20  C   UNL     1       9.357  10.314  19.355  0.00  0.00    +0.000 C 
ATOM     21  N   UNL     1       9.747  11.665  19.030  0.00  0.00    +0.000 N 
ATOM     22  C   UNL     1       9.885  12.141  17.750  0.00  0.00    +0.000 A 
ATOM     23  C   UNL     1      10.228  13.459  17.902  0.00  0.00    +0.000 A 
ATOM     24  N   UNL     1      10.295  13.799  19.227  0.00  0.00    +0.000 NA
ATOM     25  C   UNL     1       9.975  12.706  19.911  0.00  0.00    +0.000 A 
ENDBRANCH  19  25
ENDBRANCH   1  19
TORSDOF 3
ENDMDL
