MODEL 1
REMARK VINA RESULT:      -8.0      0.000      0.000
REMARK  Name = 
REMARK  8 active torsions:
REMARK  status: ('A' for Active; 'I' for Inactive)
REMARK    1  A    between atoms: C_1  and  O_2
REMARK    2  A    between atoms: O_2  and  C_3
REMARK    3  A    between atoms: C_5  and  N_6
REMARK    4  A    between atoms: C_7  and  C_9
REMARK    5  A    between atoms: C_9  and  N_10
REMARK    6  A    between atoms: N_13  and  C_14
REMARK    7  A    between atoms: C_32  and  O_33
REMARK    8  A    between atoms: O_33  and  C_34
REMARK                            x       y       z     vdW  Elec       q    Type
REMARK                         _______ _______ _______ _____ _____    ______ ____
ROOT
ATOM      1  N   UNL     1      -0.345  10.868  20.224  0.00  0.00    +0.000 N 
ATOM      2  C   UNL     1      -0.777  11.654  21.301  0.00  0.00    +0.000 A 
ATOM      3  O   UNL     1       0.007  11.891  22.228  0.00  0.00    +0.000 OA
ATOM      4  N   UNL     1      -2.084  12.187  21.243  0.00  0.00    +0.000 N 
ATOM      5  C   UNL     1      -2.936  12.123  20.127  0.00  0.00    +0.000 A 
ATOM      6  O   UNL     1      -4.051  12.637  20.057  0.00  0.00    +0.000 OA
ATOM      7  C   UNL     1      -2.422  11.339  19.025  0.00  0.00    +0.000 A 
ATOM      8  C   UNL     1      -2.999  11.111  17.730  0.00  0.00    +0.000 A 
ATOM      9  C   UNL     1      -2.201  10.275  16.971  0.00  0.00    +0.000 A 
ATOM     10  S   UNL     1      -0.806   9.777  17.801  0.00  0.00    +0.000 S 
ATOM     11  C   UNL     1      -1.201  10.734  19.143  0.00  0.00    +0.000 A 
ATOM     12  C   UNL     1      -2.464   9.879  15.552  0.00  0.00    +0.000 C 
ATOM     13  C   UNL     1      -3.927  10.159  15.182  0.00  0.00    +0.000 C 
ATOM     14  C   UNL     1      -4.371  11.547  15.663  0.00  0.00    +0.000 C 
ATOM     15  C   UNL     1      -4.286  11.675  17.194  0.00  0.00    +0.000 C 
ENDROOT
BRANCH   4  16
ATOM     16  C   UNL     1      -2.542  12.940  22.376  0.00  0.00    +0.000 A 
ATOM     17  C   UNL     1      -3.279  12.318  23.395  0.00  0.00    +0.000 A 
ATOM     18  C   UNL     1      -3.735  13.051  24.492  0.00  0.00    +0.000 A 
ATOM     19  C   UNL     1      -3.434  14.407  24.598  0.00  0.00    +0.000 A 
ATOM     20  C   UNL     1      -2.686  15.033  23.603  0.00  0.00    +0.000 A 
ATOM     21  C   UNL     1      -2.254  14.308  22.488  0.00  0.00    +0.000 A 
ENDBRANCH   4  16
BRANCH   1  22
ATOM     22  C   UNL     1       1.047  10.411  20.241  0.00  0.00    +0.000 C 
BRANCH  22  24
ATOM     23  N   UNL     1       2.096   8.249  19.706  0.00  0.00    +0.000 N 
ATOM     24  C   UNL     1       1.121   8.890  20.457  0.00  0.00    +0.000 C 
ATOM     25  O   UNL     1       0.334   8.339  21.224  0.00  0.00    +0.000 OA
ATOM     26  H   UNL     1       2.754   8.829  19.197  0.00  0.00    +0.000 HD
BRANCH  23  29
ATOM     27  C   UNL     1       2.282   4.605  20.595  0.00  0.00    +0.000 A 
ATOM     28  C   UNL     1       2.092   5.986  20.720  0.00  0.00    +0.000 A 
ATOM     29  C   UNL     1       2.298   6.844  19.638  0.00  0.00    +0.000 A 
ATOM     30  C   UNL     1       2.694   6.291  18.415  0.00  0.00    +0.000 A 
ATOM     31  C   UNL     1       2.906   4.910  18.282  0.00  0.00    +0.000 A 
ATOM     32  C   UNL     1       2.699   4.070  19.378  0.00  0.00    +0.000 A 
BRANCH  27  34
ATOM     33  C   UNL     1       1.421   2.606  21.566  0.00  0.00    +0.000 C 
ATOM     34  O   UNL     1       2.010   3.888  21.731  0.00  0.00    +0.000 OA
ENDBRANCH  27  34
BRANCH  31  35
ATOM     35  O   UNL     1       3.310   4.498  17.038  0.00  0.00    +0.000 OA
ATOM     36  C   UNL     1       4.685   4.678  16.714  0.00  0.00    +0.000 C 
ENDBRANCH  31  35
ENDBRANCH  23  29
ENDBRANCH  22  24
ENDBRANCH   1  22
TORSDOF 6
ENDMDL
MODEL 2
REMARK VINA RESULT:      -7.8      0.234      2.223
REMARK  Name = 
REMARK  8 active torsions:
REMARK  status: ('A' for Active; 'I' for Inactive)
REMARK    1  A    between atoms: C_1  and  O_2
REMARK    2  A    between atoms: O_2  and  C_3
REMARK    3  A    between atoms: C_5  and  N_6
REMARK    4  A    between atoms: C_7  and  C_9
REMARK    5  A    between atoms: C_9  and  N_10
REMARK    6  A    between atoms: N_13  and  C_14
REMARK    7  A    between atoms: C_32  and  O_33
REMARK    8  A    between atoms: O_33  and  C_34
REMARK                            x       y       z     vdW  Elec       q    Type
REMARK                         _______ _______ _______ _____ _____    ______ ____
ROOT
ATOM      1  N   UNL     1      -0.336  10.925  20.280  0.00  0.00    +0.000 N 
ATOM      2  C   UNL     1      -0.781  11.709  21.352  0.00  0.00    +0.000 A 
ATOM      3  O   UNL     1      -0.004  11.959  22.281  0.00  0.00    +0.000 OA
ATOM      4  N   UNL     1      -2.094  12.227  21.287  0.00  0.00    +0.000 N 
ATOM      5  C   UNL     1      -2.941  12.149  20.169  0.00  0.00    +0.000 A 
ATOM      6  O   UNL     1      -4.062  12.650  20.092  0.00  0.00    +0.000 OA
ATOM      7  C   UNL     1      -2.415  11.366  19.072  0.00  0.00    +0.000 A 
ATOM      8  C   UNL     1      -2.984  11.126  17.775  0.00  0.00    +0.000 A 
ATOM      9  C   UNL     1      -2.173  10.296  17.023  0.00  0.00    +0.000 A 
ATOM     10  S   UNL     1      -0.776   9.818  17.860  0.00  0.00    +0.000 S 
ATOM     11  C   UNL     1      -1.187  10.775  19.197  0.00  0.00    +0.000 A 
ATOM     12  C   UNL     1      -2.426   9.892  15.604  0.00  0.00    +0.000 C 
ATOM     13  C   UNL     1      -3.891  10.152  15.228  0.00  0.00    +0.000 C 
ATOM     14  C   UNL     1      -4.353  11.538  15.702  0.00  0.00    +0.000 C 
ATOM     15  C   UNL     1      -4.275  11.673  17.232  0.00  0.00    +0.000 C 
ENDROOT
BRANCH   4  16
ATOM     16  C   UNL     1      -2.565  12.980  22.415  0.00  0.00    +0.000 A 
ATOM     17  C   UNL     1      -2.321  14.358  22.506  0.00  0.00    +0.000 A 
ATOM     18  C   UNL     1      -2.770  15.089  23.607  0.00  0.00    +0.000 A 
ATOM     19  C   UNL     1      -3.493  14.456  24.616  0.00  0.00    +0.000 A 
ATOM     20  C   UNL     1      -3.759  13.092  24.529  0.00  0.00    +0.000 A 
ATOM     21  C   UNL     1      -3.285  12.351  23.442  0.00  0.00    +0.000 A 
ENDBRANCH   4  16
BRANCH   1  22
ATOM     22  C   UNL     1       1.061  10.483  20.304  0.00  0.00    +0.000 C 
BRANCH  22  24
ATOM     23  N   UNL     1       2.072   8.356  19.588  0.00  0.00    +0.000 N 
ATOM     24  C   UNL     1       1.150   8.953  20.436  0.00  0.00    +0.000 C 
ATOM     25  O   UNL     1       0.417   8.360  21.225  0.00  0.00    +0.000 OA
ATOM     26  H   UNL     1       2.694   8.964  19.067  0.00  0.00    +0.000 HD
BRANCH  23  29
ATOM     27  C   UNL     1       3.082   5.006  18.224  0.00  0.00    +0.000 A 
ATOM     28  C   UNL     1       2.888   6.388  18.318  0.00  0.00    +0.000 A 
ATOM     29  C   UNL     1       2.269   6.957  19.433  0.00  0.00    +0.000 A 
ATOM     30  C   UNL     1       1.851   6.112  20.466  0.00  0.00    +0.000 A 
ATOM     31  C   UNL     1       2.022   4.722  20.376  0.00  0.00    +0.000 A 
ATOM     32  C   UNL     1       2.639   4.173  19.250  0.00  0.00    +0.000 A 
BRANCH  27  34
ATOM     33  C   UNL     1       4.810   5.400  16.632  0.00  0.00    +0.000 C 
ATOM     34  O   UNL     1       3.731   4.597  17.089  0.00  0.00    +0.000 OA
ENDBRANCH  27  34
BRANCH  31  35
ATOM     35  O   UNL     1       1.552   4.004  21.445  0.00  0.00    +0.000 OA
ATOM     36  C   UNL     1       1.946   2.638  21.529  0.00  0.00    +0.000 C 
ENDBRANCH  31  35
ENDBRANCH  23  29
ENDBRANCH  22  24
ENDBRANCH   1  22
TORSDOF 6
ENDMDL
MODEL 3
REMARK VINA RESULT:      -7.6      8.353     10.212
REMARK  Name = 
REMARK  8 active torsions:
REMARK  status: ('A' for Active; 'I' for Inactive)
REMARK    1  A    between atoms: C_1  and  O_2
REMARK    2  A    between atoms: O_2  and  C_3
REMARK    3  A    between atoms: C_5  and  N_6
REMARK    4  A    between atoms: C_7  and  C_9
REMARK    5  A    between atoms: C_9  and  N_10
REMARK    6  A    between atoms: N_13  and  C_14
REMARK    7  A    between atoms: C_32  and  O_33
REMARK    8  A    between atoms: O_33  and  C_34
REMARK                            x       y       z     vdW  Elec       q    Type
REMARK                         _______ _______ _______ _____ _____    ______ ____
ROOT
ATOM      1  N   UNL     1       9.383  11.428  19.749  0.00  0.00    +0.000 N 
ATOM      2  C   UNL     1       8.877  11.344  21.053  0.00  0.00    +0.000 A 
ATOM      3  O   UNL     1       8.805  10.239  21.604  0.00  0.00    +0.000 OA
ATOM      4  N   UNL     1       8.524  12.550  21.700  0.00  0.00    +0.000 N 
ATOM      5  C   UNL     1       8.779  13.840  21.202  0.00  0.00    +0.000 A 
ATOM      6  O   UNL     1       8.524  14.889  21.792  0.00  0.00    +0.000 OA
ATOM      7  C   UNL     1       9.344  13.868  19.871  0.00  0.00    +0.000 A 
ATOM      8  C   UNL     1       9.771  14.997  19.093  0.00  0.00    +0.000 A 
ATOM      9  C   UNL     1      10.231  14.599  17.850  0.00  0.00    +0.000 A 
ATOM     10  S   UNL     1      10.141  12.917  17.633  0.00  0.00    +0.000 S 
ATOM     11  C   UNL     1       9.574  12.691  19.213  0.00  0.00    +0.000 A 
ATOM     12  C   UNL     1      10.811  15.504  16.810  0.00  0.00    +0.000 C 
ATOM     13  C   UNL     1      10.444  16.965  17.108  0.00  0.00    +0.000 C 
ATOM     14  C   UNL     1      10.652  17.302  18.591  0.00  0.00    +0.000 C 
ATOM     15  C   UNL     1       9.760  16.444  19.503  0.00  0.00    +0.000 C 
ENDROOT
BRANCH   4  16
ATOM     16  C   UNL     1       7.951  12.454  23.012  0.00  0.00    +0.000 A 
ATOM     17  C   UNL     1       6.567  12.291  23.175  0.00  0.00    +0.000 A 
ATOM     18  C   UNL     1       6.006  12.208  24.451  0.00  0.00    +0.000 A 
ATOM     19  C   UNL     1       6.825  12.258  25.576  0.00  0.00    +0.000 A 
ATOM     20  C   UNL     1       8.203  12.400  25.428  0.00  0.00    +0.000 A 
ATOM     21  C   UNL     1       8.764  12.514  24.152  0.00  0.00    +0.000 A 
ENDBRANCH   4  16
BRANCH   1  22
ATOM     22  C   UNL     1       9.848  10.185  19.127  0.00  0.00    +0.000 C 
BRANCH  22  24
ATOM     23  N   UNL     1       8.716   8.025  18.797  0.00  0.00    +0.000 N 
ATOM     24  C   UNL     1       8.668   9.389  18.545  0.00  0.00    +0.000 C 
ATOM     25  O   UNL     1       7.798   9.964  17.894  0.00  0.00    +0.000 OA
ATOM     26  H   UNL     1       9.424   7.689  19.440  0.00  0.00    +0.000 HD
BRANCH  23  29
ATOM     27  C   UNL     1       6.563   6.006  16.474  0.00  0.00    +0.000 A 
ATOM     28  C   UNL     1       7.437   6.995  16.937  0.00  0.00    +0.000 A 
ATOM     29  C   UNL     1       7.813   7.055  18.281  0.00  0.00    +0.000 A 
ATOM     30  C   UNL     1       7.300   6.096  19.160  0.00  0.00    +0.000 A 
ATOM     31  C   UNL     1       6.407   5.110  18.711  0.00  0.00    +0.000 A 
ATOM     32  C   UNL     1       6.040   5.070  17.365  0.00  0.00    +0.000 A 
BRANCH  27  34
ATOM     33  C   UNL     1       5.907   4.845  14.499  0.00  0.00    +0.000 C 
ATOM     34  O   UNL     1       6.312   6.052  15.127  0.00  0.00    +0.000 OA
ENDBRANCH  27  34
BRANCH  31  35
ATOM     35  O   UNL     1       5.963   4.242  19.675  0.00  0.00    +0.000 OA
ATOM     36  C   UNL     1       4.749   3.546  19.407  0.00  0.00    +0.000 C 
ENDBRANCH  31  35
ENDBRANCH  23  29
ENDBRANCH  22  24
ENDBRANCH   1  22
TORSDOF 6
ENDMDL
MODEL 4
REMARK VINA RESULT:      -7.4      2.824      4.103
REMARK  Name = 
REMARK  8 active torsions:
REMARK  status: ('A' for Active; 'I' for Inactive)
REMARK    1  A    between atoms: C_1  and  O_2
REMARK    2  A    between atoms: O_2  and  C_3
REMARK    3  A    between atoms: C_5  and  N_6
REMARK    4  A    between atoms: C_7  and  C_9
REMARK    5  A    between atoms: C_9  and  N_10
REMARK    6  A    between atoms: N_13  and  C_14
REMARK    7  A    between atoms: C_32  and  O_33
REMARK    8  A    between atoms: O_33  and  C_34
REMARK                            x       y       z     vdW  Elec       q    Type
REMARK                         _______ _______ _______ _____ _____    ______ ____
ROOT
ATOM      1  N   UNL     1       0.202  11.470  21.424  0.00  0.00    +0.000 N 
ATOM      2  C   UNL     1      -1.054  11.570  22.037  0.00  0.00    +0.000 A 
ATOM      3  O   UNL     1      -1.404  10.699  22.844  0.00  0.00    +0.000 OA
ATOM      4  N   UNL     1      -1.842  12.704  21.740  0.00  0.00    +0.000 N 
ATOM      5  C   UNL     1      -1.411  13.818  20.999  0.00  0.00    +0.000 A 
ATOM      6  O   UNL     1      -2.077  14.830  20.789  0.00  0.00    +0.000 OA
ATOM      7  C   UNL     1      -0.089  13.682  20.427  0.00  0.00    +0.000 A 
ATOM      8  C   UNL     1       0.672  14.635  19.669  0.00  0.00    +0.000 A 
ATOM      9  C   UNL     1       1.888  14.103  19.279  0.00  0.00    +0.000 A 
ATOM     10  S   UNL     1       2.096  12.503  19.806  0.00  0.00    +0.000 S 
ATOM     11  C   UNL     1       0.615  12.527  20.630  0.00  0.00    +0.000 A 
ATOM     12  C   UNL     1       2.956  14.839  18.533  0.00  0.00    +0.000 C 
ATOM     13  C   UNL     1       2.378  16.103  17.882  0.00  0.00    +0.000 C 
ATOM     14  C   UNL     1       1.484  16.877  18.860  0.00  0.00    +0.000 C 
ATOM     15  C   UNL     1       0.275  16.041  19.313  0.00  0.00    +0.000 C 
ENDROOT
BRANCH   4  16
ATOM     16  C   UNL     1      -3.152  12.771  22.323  0.00  0.00    +0.000 A 
ATOM     17  C   UNL     1      -3.311  13.023  23.694  0.00  0.00    +0.000 A 
ATOM     18  C   UNL     1      -4.583  13.078  24.265  0.00  0.00    +0.000 A 
ATOM     19  C   UNL     1      -5.713  12.912  23.466  0.00  0.00    +0.000 A 
ATOM     20  C   UNL     1      -5.570  12.682  22.099  0.00  0.00    +0.000 A 
ATOM     21  C   UNL     1      -4.296  12.596  21.531  0.00  0.00    +0.000 A 
ENDBRANCH   4  16
BRANCH   1  22
ATOM     22  C   UNL     1       1.057  10.347  21.821  0.00  0.00    +0.000 C 
BRANCH  22  24
ATOM     23  N   UNL     1       1.756   8.101  21.099  0.00  0.00    +0.000 N 
ATOM     24  C   UNL     1       0.967   9.202  20.799  0.00  0.00    +0.000 C 
ATOM     25  O   UNL     1       0.259   9.322  19.801  0.00  0.00    +0.000 OA
ATOM     26  H   UNL     1       2.206   8.078  22.007  0.00  0.00    +0.000 HD
BRANCH  23  29
ATOM     27  C   UNL     1       2.838   5.834  18.306  0.00  0.00    +0.000 A 
ATOM     28  C   UNL     1       2.667   6.990  19.076  0.00  0.00    +0.000 A 
ATOM     29  C   UNL     1       1.938   6.962  20.268  0.00  0.00    +0.000 A 
ATOM     30  C   UNL     1       1.386   5.745  20.683  0.00  0.00    +0.000 A 
ATOM     31  C   UNL     1       1.535   4.584  19.909  0.00  0.00    +0.000 A 
ATOM     32  C   UNL     1       2.263   4.634  18.719  0.00  0.00    +0.000 A 
BRANCH  27  34
ATOM     33  C   UNL     1       4.771   6.807  17.307  0.00  0.00    +0.000 C 
ATOM     34  O   UNL     1       3.603   6.008  17.182  0.00  0.00    +0.000 OA
ENDBRANCH  27  34
BRANCH  31  35
ATOM     35  O   UNL     1       0.930   3.462  20.416  0.00  0.00    +0.000 OA
ATOM     36  C   UNL     1       1.519   2.880  21.575  0.00  0.00    +0.000 C 
ENDBRANCH  31  35
ENDBRANCH  23  29
ENDBRANCH  22  24
ENDBRANCH   1  22
TORSDOF 6
ENDMDL
MODEL 5
REMARK VINA RESULT:      -7.4      7.597     10.922
REMARK  Name = 
REMARK  8 active torsions:
REMARK  status: ('A' for Active; 'I' for Inactive)
REMARK    1  A    between atoms: C_1  and  O_2
REMARK    2  A    between atoms: O_2  and  C_3
REMARK    3  A    between atoms: C_5  and  N_6
REMARK    4  A    between atoms: C_7  and  C_9
REMARK    5  A    between atoms: C_9  and  N_10
REMARK    6  A    between atoms: N_13  and  C_14
REMARK    7  A    between atoms: C_32  and  O_33
REMARK    8  A    between atoms: O_33  and  C_34
REMARK                            x       y       z     vdW  Elec       q    Type
REMARK                         _______ _______ _______ _____ _____    ______ ____
ROOT
ATOM      1  N   UNL     1       7.273  15.118  20.651  0.00  0.00    +0.000 N 
ATOM      2  C   UNL     1       6.907  14.497  21.853  0.00  0.00    +0.000 A 
ATOM      3  O   UNL     1       5.876  14.861  22.432  0.00  0.00    +0.000 OA
ATOM      4  N   UNL     1       7.716  13.436  22.317  0.00  0.00    +0.000 N 
ATOM      5  C   UNL     1       8.771  12.848  21.598  0.00  0.00    +0.000 A 
ATOM      6  O   UNL     1       9.438  11.887  21.979  0.00  0.00    +0.000 OA
ATOM      7  C   UNL     1       9.078  13.499  20.344  0.00  0.00    +0.000 A 
ATOM      8  C   UNL     1      10.046  13.135  19.347  0.00  0.00    +0.000 A 
ATOM      9  C   UNL     1      10.046  14.040  18.300  0.00  0.00    +0.000 A 
ATOM     10  S   UNL     1       8.918  15.289  18.521  0.00  0.00    +0.000 S 
ATOM     11  C   UNL     1       8.357  14.598  19.963  0.00  0.00    +0.000 A 
ATOM     12  C   UNL     1      10.881  13.933  17.063  0.00  0.00    +0.000 C 
ATOM     13  C   UNL     1      12.037  12.947  17.283  0.00  0.00    +0.000 C 
ATOM     14  C   UNL     1      11.555  11.662  17.970  0.00  0.00    +0.000 C 
ATOM     15  C   UNL     1      10.966  11.946  19.362  0.00  0.00    +0.000 C 
ENDROOT
BRANCH   4  16
ATOM     16  C   UNL     1       7.371  12.843  23.578  0.00  0.00    +0.000 A 
ATOM     17  C   UNL     1       6.387  11.848  23.653  0.00  0.00    +0.000 A 
ATOM     18  C   UNL     1       6.043  11.277  24.881  0.00  0.00    +0.000 A 
ATOM     19  C   UNL     1       6.701  11.676  26.042  0.00  0.00    +0.000 A 
ATOM     20  C   UNL     1       7.695  12.650  25.979  0.00  0.00    +0.000 A 
ATOM     21  C   UNL     1       8.020  13.244  24.756  0.00  0.00    +0.000 A 
ENDBRANCH   4  16
BRANCH   1  22
ATOM     22  C   UNL     1       6.369  16.143  20.122  0.00  0.00    +0.000 C 
BRANCH  22  24
ATOM     23  N   UNL     1       3.967  15.610  20.153  0.00  0.00    +0.000 N 
ATOM     24  C   UNL     1       5.151  15.499  19.439  0.00  0.00    +0.000 C 
ATOM     25  O   UNL     1       5.284  14.920  18.362  0.00  0.00    +0.000 OA
ATOM     26  H   UNL     1       3.965  16.207  20.972  0.00  0.00    +0.000 HD
BRANCH  23  29
ATOM     27  C   UNL     1       1.205  13.116  19.645  0.00  0.00    +0.000 A 
ATOM     28  C   UNL     1       2.450  13.654  19.987  0.00  0.00    +0.000 A 
ATOM     29  C   UNL     1       2.727  15.010  19.799  0.00  0.00    +0.000 A 
ATOM     30  C   UNL     1       1.725  15.827  19.265  0.00  0.00    +0.000 A 
ATOM     31  C   UNL     1       0.479  15.296  18.900  0.00  0.00    +0.000 A 
ATOM     32  C   UNL     1       0.223  13.937  19.092  0.00  0.00    +0.000 A 
BRANCH  27  34
ATOM     33  C   UNL     1       1.216  10.876  18.831  0.00  0.00    +0.000 C 
ATOM     34  O   UNL     1       1.068  11.780  19.916  0.00  0.00    +0.000 OA
ENDBRANCH  27  34
BRANCH  31  35
ATOM     35  O   UNL     1      -0.409  16.197  18.372  0.00  0.00    +0.000 OA
ATOM     36  C   UNL     1      -1.206  16.934  19.294  0.00  0.00    +0.000 C 
ENDBRANCH  31  35
ENDBRANCH  23  29
ENDBRANCH  22  24
ENDBRANCH   1  22
TORSDOF 6
ENDMDL
MODEL 6
REMARK VINA RESULT:      -7.4      7.661     11.018
REMARK  Name = 
REMARK  8 active torsions:
REMARK  status: ('A' for Active; 'I' for Inactive)
REMARK    1  A    between atoms: C_1  and  O_2
REMARK    2  A    between atoms: O_2  and  C_3
REMARK    3  A    between atoms: C_5  and  N_6
REMARK    4  A    between atoms: C_7  and  C_9
REMARK    5  A    between atoms: C_9  and  N_10
REMARK    6  A    between atoms: N_13  and  C_14
REMARK    7  A    between atoms: C_32  and  O_33
REMARK    8  A    between atoms: O_33  and  C_34
REMARK                            x       y       z     vdW  Elec       q    Type
REMARK                         _______ _______ _______ _____ _____    ______ ____
ROOT
ATOM      1  N   UNL     1       7.330  15.164  20.694  0.00  0.00    +0.000 N 
ATOM      2  C   UNL     1       6.958  14.527  21.886  0.00  0.00    +0.000 A 
ATOM      3  O   UNL     1       5.934  14.897  22.474  0.00  0.00    +0.000 OA
ATOM      4  N   UNL     1       7.751  13.445  22.328  0.00  0.00    +0.000 N 
ATOM      5  C   UNL     1       8.795  12.854  21.596  0.00  0.00    +0.000 A 
ATOM      6  O   UNL     1       9.447  11.876  21.957  0.00  0.00    +0.000 OA
ATOM      7  C   UNL     1       9.108  13.523  20.353  0.00  0.00    +0.000 A 
ATOM      8  C   UNL     1      10.069  13.161  19.347  0.00  0.00    +0.000 A 
ATOM      9  C   UNL     1      10.080  14.084  18.317  0.00  0.00    +0.000 A 
ATOM     10  S   UNL     1       8.972  15.347  18.563  0.00  0.00    +0.000 S 
ATOM     11  C   UNL     1       8.404  14.640  19.994  0.00  0.00    +0.000 A 
ATOM     12  C   UNL     1      10.910  13.987  17.075  0.00  0.00    +0.000 C 
ATOM     13  C   UNL     1      12.051  12.979  17.274  0.00  0.00    +0.000 C 
ATOM     14  C   UNL     1      11.550  11.690  17.939  0.00  0.00    +0.000 C 
ATOM     15  C   UNL     1      10.969  11.958  19.338  0.00  0.00    +0.000 C 
ENDROOT
BRANCH   4  16
ATOM     16  C   UNL     1       7.400  12.836  23.580  0.00  0.00    +0.000 A 
ATOM     17  C   UNL     1       8.065  13.197  24.760  0.00  0.00    +0.000 A 
ATOM     18  C   UNL     1       7.733  12.598  25.977  0.00  0.00    +0.000 A 
ATOM     19  C   UNL     1       6.712  11.652  26.031  0.00  0.00    +0.000 A 
ATOM     20  C   UNL     1       6.029  11.298  24.869  0.00  0.00    +0.000 A 
ATOM     21  C   UNL     1       6.381  11.875  23.645  0.00  0.00    +0.000 A 
ENDBRANCH   4  16
BRANCH   1  22
ATOM     22  C   UNL     1       6.441  16.213  20.186  0.00  0.00    +0.000 C 
BRANCH  22  24
ATOM     23  N   UNL     1       4.046  15.651  20.158  0.00  0.00    +0.000 N 
ATOM     24  C   UNL     1       5.238  15.600  19.450  0.00  0.00    +0.000 C 
ATOM     25  O   UNL     1       5.388  15.095  18.339  0.00  0.00    +0.000 OA
ATOM     26  H   UNL     1       4.029  16.193  21.014  0.00  0.00    +0.000 HD
BRANCH  23  29
ATOM     27  C   UNL     1       0.549  15.170  18.872  0.00  0.00    +0.000 A 
ATOM     28  C   UNL     1       1.730  15.801  19.281  0.00  0.00    +0.000 A 
ATOM     29  C   UNL     1       2.817  15.061  19.753  0.00  0.00    +0.000 A 
ATOM     30  C   UNL     1       2.704  13.668  19.802  0.00  0.00    +0.000 A 
ATOM     31  C   UNL     1       1.519  13.025  19.412  0.00  0.00    +0.000 A 
ATOM     32  C   UNL     1       0.442  13.783  18.947  0.00  0.00    +0.000 A 
BRANCH  27  34
ATOM     33  C   UNL     1      -0.094  17.403  18.342  0.00  0.00    +0.000 C 
ATOM     34  O   UNL     1      -0.417  16.022  18.402  0.00  0.00    +0.000 OA
ENDBRANCH  27  34
BRANCH  31  35
ATOM     35  O   UNL     1       1.530  11.659  19.525  0.00  0.00    +0.000 OA
ATOM     36  C   UNL     1       0.354  11.045  20.044  0.00  0.00    +0.000 C 
ENDBRANCH  31  35
ENDBRANCH  23  29
ENDBRANCH  22  24
ENDBRANCH   1  22
TORSDOF 6
ENDMDL
MODEL 7
REMARK VINA RESULT:      -7.3      2.942      4.335
REMARK  Name = 
REMARK  8 active torsions:
REMARK  status: ('A' for Active; 'I' for Inactive)
REMARK    1  A    between atoms: C_1  and  O_2
REMARK    2  A    between atoms: O_2  and  C_3
REMARK    3  A    between atoms: C_5  and  N_6
REMARK    4  A    between atoms: C_7  and  C_9
REMARK    5  A    between atoms: C_9  and  N_10
REMARK    6  A    between atoms: N_13  and  C_14
REMARK    7  A    between atoms: C_32  and  O_33
REMARK    8  A    between atoms: O_33  and  C_34
REMARK                            x       y       z     vdW  Elec       q    Type
REMARK                         _______ _______ _______ _____ _____    ______ ____
ROOT
ATOM      1  N   UNL     1       0.303  11.426  18.828  0.00  0.00    +0.000 N 
ATOM      2  C   UNL     1      -0.773  11.454  19.726  0.00  0.00    +0.000 A 
ATOM      3  O   UNL     1      -1.546  10.489  19.772  0.00  0.00    +0.000 OA
ATOM      4  N   UNL     1      -0.885  12.572  20.582  0.00  0.00    +0.000 N 
ATOM      5  C   UNL     1       0.075  13.589  20.716  0.00  0.00    +0.000 A 
ATOM      6  O   UNL     1       0.003  14.532  21.503  0.00  0.00    +0.000 OA
ATOM      7  C   UNL     1       1.188  13.487  19.798  0.00  0.00    +0.000 A 
ATOM      8  C   UNL     1       2.357  14.315  19.697  0.00  0.00    +0.000 A 
ATOM      9  C   UNL     1       3.174  13.897  18.662  0.00  0.00    +0.000 A 
ATOM     10  S   UNL     1       2.542  12.555  17.837  0.00  0.00    +0.000 S 
ATOM     11  C   UNL     1       1.223  12.459  18.896  0.00  0.00    +0.000 A 
ATOM     12  C   UNL     1       4.504  14.490  18.314  0.00  0.00    +0.000 C 
ATOM     13  C   UNL     1       4.656  15.875  18.958  0.00  0.00    +0.000 C 
ATOM     14  C   UNL     1       4.207  15.861  20.426  0.00  0.00    +0.000 C 
ATOM     15  C   UNL     1       2.721  15.488  20.565  0.00  0.00    +0.000 C 
ENDROOT
BRANCH   4  16
ATOM     16  C   UNL     1      -2.022  12.624  21.457  0.00  0.00    +0.000 A 
ATOM     17  C   UNL     1      -1.950  12.093  22.753  0.00  0.00    +0.000 A 
ATOM     18  C   UNL     1      -3.058  12.133  23.602  0.00  0.00    +0.000 A 
ATOM     19  C   UNL     1      -4.241  12.731  23.174  0.00  0.00    +0.000 A 
ATOM     20  C   UNL     1      -4.320  13.280  21.896  0.00  0.00    +0.000 A 
ATOM     21  C   UNL     1      -3.222  13.214  21.034  0.00  0.00    +0.000 A 
ENDBRANCH   4  16
BRANCH   1  22
ATOM     22  C   UNL     1       0.475  10.214  18.022  0.00  0.00    +0.000 C 
BRANCH  22  24
ATOM     23  N   UNL     1       2.026   8.308  17.886  0.00  0.00    +0.000 N 
ATOM     24  C   UNL     1       1.397   9.210  18.733  0.00  0.00    +0.000 C 
ATOM     25  O   UNL     1       1.505   9.233  19.958  0.00  0.00    +0.000 OA
ATOM     26  H   UNL     1       1.944   8.465  16.888  0.00  0.00    +0.000 HD
BRANCH  23  29
ATOM     27  C   UNL     1       3.299   5.252  19.660  0.00  0.00    +0.000 A 
ATOM     28  C   UNL     1       2.475   6.328  19.311  0.00  0.00    +0.000 A 
ATOM     29  C   UNL     1       2.839   7.216  18.296  0.00  0.00    +0.000 A 
ATOM     30  C   UNL     1       4.048   7.003  17.625  0.00  0.00    +0.000 A 
ATOM     31  C   UNL     1       4.892   5.939  17.980  0.00  0.00    +0.000 A 
ATOM     32  C   UNL     1       4.512   5.065  19.001  0.00  0.00    +0.000 A 
BRANCH  27  34
ATOM     33  C   UNL     1       1.393   4.228  20.660  0.00  0.00    +0.000 C 
ATOM     34  O   UNL     1       2.797   4.448  20.650  0.00  0.00    +0.000 OA
ENDBRANCH  27  34
BRANCH  31  35
ATOM     35  O   UNL     1       6.056   5.851  17.260  0.00  0.00    +0.000 OA
ATOM     36  C   UNL     1       7.009   6.893  17.445  0.00  0.00    +0.000 C 
ENDBRANCH  31  35
ENDBRANCH  23  29
ENDBRANCH  22  24
ENDBRANCH   1  22
TORSDOF 6
ENDMDL
MODEL 8
REMARK VINA RESULT:      -7.3      2.716      3.645
REMARK  Name = 
REMARK  8 active torsions:
REMARK  status: ('A' for Active; 'I' for Inactive)
REMARK    1  A    between atoms: C_1  and  O_2
REMARK    2  A    between atoms: O_2  and  C_3
REMARK    3  A    between atoms: C_5  and  N_6
REMARK    4  A    between atoms: C_7  and  C_9
REMARK    5  A    between atoms: C_9  and  N_10
REMARK    6  A    between atoms: N_13  and  C_14
REMARK    7  A    between atoms: C_32  and  O_33
REMARK    8  A    between atoms: O_33  and  C_34
REMARK                            x       y       z     vdW  Elec       q    Type
REMARK                         _______ _______ _______ _____ _____    ______ ____
ROOT
ATOM      1  N   UNL     1       0.214  11.591  21.283  0.00  0.00    +0.000 N 
ATOM      2  C   UNL     1      -1.075  11.687  21.825  0.00  0.00    +0.000 A 
ATOM      3  O   UNL     1      -1.462  10.822  22.619  0.00  0.00    +0.000 OA
ATOM      4  N   UNL     1      -1.853  12.813  21.475  0.00  0.00    +0.000 N 
ATOM      5  C   UNL     1      -1.389  13.924  20.749  0.00  0.00    +0.000 A 
ATOM      6  O   UNL     1      -2.050  14.929  20.493  0.00  0.00    +0.000 OA
ATOM      7  C   UNL     1      -0.037  13.792  20.251  0.00  0.00    +0.000 A 
ATOM      8  C   UNL     1       0.758  14.744  19.527  0.00  0.00    +0.000 A 
ATOM      9  C   UNL     1       1.997  14.217  19.209  0.00  0.00    +0.000 A 
ATOM     10  S   UNL     1       2.187  12.623  19.761  0.00  0.00    +0.000 S 
ATOM     11  C   UNL     1       0.663  12.644  20.503  0.00  0.00    +0.000 A 
ATOM     12  C   UNL     1       3.100  14.954  18.515  0.00  0.00    +0.000 C 
ATOM     13  C   UNL     1       2.550  16.208  17.822  0.00  0.00    +0.000 C 
ATOM     14  C   UNL     1       1.599  16.985  18.743  0.00  0.00    +0.000 C 
ATOM     15  C   UNL     1       0.372  16.144  19.137  0.00  0.00    +0.000 C 
ENDROOT
BRANCH   4  16
ATOM     16  C   UNL     1      -3.193  12.877  21.985  0.00  0.00    +0.000 A 
ATOM     17  C   UNL     1      -4.285  12.568  21.161  0.00  0.00    +0.000 A 
ATOM     18  C   UNL     1      -5.590  12.638  21.651  0.00  0.00    +0.000 A 
ATOM     19  C   UNL     1      -5.816  12.991  22.980  0.00  0.00    +0.000 A 
ATOM     20  C   UNL     1      -4.739  13.281  23.815  0.00  0.00    +0.000 A 
ATOM     21  C   UNL     1      -3.433  13.240  23.318  0.00  0.00    +0.000 A 
ENDBRANCH   4  16
BRANCH   1  22
ATOM     22  C   UNL     1       1.053  10.478  21.736  0.00  0.00    +0.000 C 
BRANCH  22  24
ATOM     23  N   UNL     1       1.736   8.197  21.117  0.00  0.00    +0.000 N 
ATOM     24  C   UNL     1       0.989   9.305  20.745  0.00  0.00    +0.000 C 
ATOM     25  O   UNL     1       0.336   9.409  19.708  0.00  0.00    +0.000 OA
ATOM     26  H   UNL     1       2.139   8.192  22.048  0.00  0.00    +0.000 HD
BRANCH  23  29
ATOM     27  C   UNL     1       1.598   4.668  19.837  0.00  0.00    +0.000 A 
ATOM     28  C   UNL     1       1.394   5.783  20.658  0.00  0.00    +0.000 A 
ATOM     29  C   UNL     1       1.935   7.029  20.331  0.00  0.00    +0.000 A 
ATOM     30  C   UNL     1       2.683   7.143  19.155  0.00  0.00    +0.000 A 
ATOM     31  C   UNL     1       2.911   6.028  18.333  0.00  0.00    +0.000 A 
ATOM     32  C   UNL     1       2.366   4.790  18.680  0.00  0.00    +0.000 A 
BRANCH  27  34
ATOM     33  C   UNL     1       1.455   2.941  21.473  0.00  0.00    +0.000 C 
ATOM     34  O   UNL     1       0.980   3.523  20.268  0.00  0.00    +0.000 OA
ENDBRANCH  27  34
BRANCH  31  35
ATOM     35  O   UNL     1       3.676   6.268  17.221  0.00  0.00    +0.000 OA
ATOM     36  C   UNL     1       4.619   5.264  16.858  0.00  0.00    +0.000 C 
ENDBRANCH  31  35
ENDBRANCH  23  29
ENDBRANCH  22  24
ENDBRANCH   1  22
TORSDOF 6
ENDMDL
MODEL 9
REMARK VINA RESULT:      -7.3      2.931      4.789
REMARK  Name = 
REMARK  8 active torsions:
REMARK  status: ('A' for Active; 'I' for Inactive)
REMARK    1  A    between atoms: C_1  and  O_2
REMARK    2  A    between atoms: O_2  and  C_3
REMARK    3  A    between atoms: C_5  and  N_6
REMARK    4  A    between atoms: C_7  and  C_9
REMARK    5  A    between atoms: C_9  and  N_10
REMARK    6  A    between atoms: N_13  and  C_14
REMARK    7  A    between atoms: C_32  and  O_33
REMARK    8  A    between atoms: O_33  and  C_34
REMARK                            x       y       z     vdW  Elec       q    Type
REMARK                         _______ _______ _______ _____ _____    ______ ____
ROOT
ATOM      1  N   UNL     1       0.325  11.415  18.843  0.00  0.00    +0.000 N 
ATOM      2  C   UNL     1      -0.745  11.445  19.746  0.00  0.00    +0.000 A 
ATOM      3  O   UNL     1      -1.519  10.482  19.799  0.00  0.00    +0.000 OA
ATOM      4  N   UNL     1      -0.852  12.565  20.601  0.00  0.00    +0.000 N 
ATOM      5  C   UNL     1       0.110  13.582  20.727  0.00  0.00    +0.000 A 
ATOM      6  O   UNL     1       0.043  14.527  21.512  0.00  0.00    +0.000 OA
ATOM      7  C   UNL     1       1.217  13.478  19.803  0.00  0.00    +0.000 A 
ATOM      8  C   UNL     1       2.386  14.305  19.693  0.00  0.00    +0.000 A 
ATOM      9  C   UNL     1       3.197  13.884  18.654  0.00  0.00    +0.000 A 
ATOM     10  S   UNL     1       2.559  12.540  17.835  0.00  0.00    +0.000 S 
ATOM     11  C   UNL     1       1.246  12.447  18.903  0.00  0.00    +0.000 A 
ATOM     12  C   UNL     1       4.525  14.475  18.297  0.00  0.00    +0.000 C 
ATOM     13  C   UNL     1       4.681  15.861  18.938  0.00  0.00    +0.000 C 
ATOM     14  C   UNL     1       4.241  15.851  20.408  0.00  0.00    +0.000 C 
ATOM     15  C   UNL     1       2.756  15.479  20.557  0.00  0.00    +0.000 C 
ENDROOT
BRANCH   4  16
ATOM     16  C   UNL     1      -1.984  12.620  21.482  0.00  0.00    +0.000 A 
ATOM     17  C   UNL     1      -3.185  13.213  21.065  0.00  0.00    +0.000 A 
ATOM     18  C   UNL     1      -4.284  13.276  21.924  0.00  0.00    +0.000 A 
ATOM     19  C   UNL     1      -4.203  12.721  23.199  0.00  0.00    +0.000 A 
ATOM     20  C   UNL     1      -3.023  12.112  23.619  0.00  0.00    +0.000 A 
ATOM     21  C   UNL     1      -1.912  12.074  22.772  0.00  0.00    +0.000 A 
ENDBRANCH   4  16
BRANCH   1  22
ATOM     22  C   UNL     1       0.492  10.201  18.038  0.00  0.00    +0.000 C 
BRANCH  22  24
ATOM     23  N   UNL     1       2.017   8.274  17.914  0.00  0.00    +0.000 N 
ATOM     24  C   UNL     1       1.400   9.189  18.755  0.00  0.00    +0.000 C 
ATOM     25  O   UNL     1       1.509   9.220  19.980  0.00  0.00    +0.000 OA
ATOM     26  H   UNL     1       1.936   8.424  16.915  0.00  0.00    +0.000 HD
BRANCH  23  29
ATOM     27  C   UNL     1       4.827   5.805  18.252  0.00  0.00    +0.000 A 
ATOM     28  C   UNL     1       4.070   6.887  17.790  0.00  0.00    +0.000 A 
ATOM     29  C   UNL     1       2.814   7.173  18.331  0.00  0.00    +0.000 A 
ATOM     30  C   UNL     1       2.328   6.354  19.356  0.00  0.00    +0.000 A 
ATOM     31  C   UNL     1       3.069   5.254  19.814  0.00  0.00    +0.000 A 
ATOM     32  C   UNL     1       4.320   4.983  19.257  0.00  0.00    +0.000 A 
BRANCH  27  34
ATOM     33  C   UNL     1       6.720   6.859  17.259  0.00  0.00    +0.000 C 
ATOM     34  O   UNL     1       6.051   5.669  17.651  0.00  0.00    +0.000 OA
ENDBRANCH  27  34
BRANCH  31  35
ATOM     35  O   UNL     1       2.474   4.521  20.808  0.00  0.00    +0.000 OA
ATOM     36  C   UNL     1       1.156   4.043  20.555  0.00  0.00    +0.000 C 
ENDBRANCH  31  35
ENDBRANCH  23  29
ENDBRANCH  22  24
ENDBRANCH   1  22
TORSDOF 6
ENDMDL
