MODEL 1
REMARK VINA RESULT:      -8.6      0.000      0.000
REMARK  Name = 
REMARK  7 active torsions:
REMARK  status: ('A' for Active; 'I' for Inactive)
REMARK    1  A    between atoms: C_7  and  C_8
REMARK    2  A    between atoms: C_11  and  O_12
REMARK    3  A    between atoms: O_12  and  C_13
REMARK    4  A    between atoms: C_13  and  C_14
REMARK    5  A    between atoms: C_14  and  C_15
REMARK    6  A    between atoms: C_15  and  N_16
REMARK    7  A    between atoms: N_19  and  C_20
REMARK                            x       y       z     vdW  Elec       q    Type
REMARK                         _______ _______ _______ _____ _____    ______ ____
ROOT
ATOM      1  C   UNL     1       7.991   7.891  18.126  0.00  0.00    +0.000 A 
ATOM      2  C   UNL     1       7.231   7.638  16.976  0.00  0.00    +0.000 A 
ATOM      3  C   UNL     1       6.711   6.364  16.742  0.00  0.00    +0.000 A 
ATOM      4  C   UNL     1       6.959   5.327  17.639  0.00  0.00    +0.000 A 
ATOM      5  C   UNL     1       7.712   5.570  18.788  0.00  0.00    +0.000 A 
ATOM      6  C   UNL     1       8.231   6.844  19.023  0.00  0.00    +0.000 A 
ENDROOT
BRANCH   1  13
ATOM      7 CL   UNL     1      10.398  15.057  18.332  0.00  0.00    +0.000 Cl
ATOM      8  C   UNL     1      10.106  13.416  18.767  0.00  0.00    +0.000 A 
ATOM      9  C   UNL     1      10.648  12.919  19.957  0.00  0.00    +0.000 A 
ATOM     10  C   UNL     1      10.434  11.593  20.351  0.00  0.00    +0.000 A 
ATOM     11  C   UNL     1       9.662  10.813  19.492  0.00  0.00    +0.000 A 
ATOM     12  N   UNL     1       9.259   9.505  19.548  0.00  0.00    +0.000 N 
ATOM     13  C   UNL     1       8.525   9.218  18.422  0.00  0.00    +0.000 A 
ATOM     14  N   UNL     1       8.435  10.287  17.652  0.00  0.00    +0.000 NA
ATOM     15  C   UNL     1       9.122  11.281  18.300  0.00  0.00    +0.000 A 
ATOM     16  C   UNL     1       9.337  12.612  17.922  0.00  0.00    +0.000 A 
ATOM     17  H   UNL     1       9.499   8.845  20.272  0.00  0.00    +0.000 HD
ENDBRANCH   1  13
BRANCH   4  18
ATOM     18  O   UNL     1       6.390   4.132  17.309  0.00  0.00    +0.000 OA
BRANCH  18  19
ATOM     19  C   UNL     1       5.062   4.222  16.792  0.00  0.00    +0.000 C 
BRANCH  19  20
ATOM     20  C   UNL     1       4.213   3.215  17.550  0.00  0.00    +0.000 C 
BRANCH  20  21
ATOM     21  C   UNL     1       3.650   3.802  18.842  0.00  0.00    +0.000 C 
BRANCH  21  22
ATOM     22  N   UNL     1       2.219   4.152  18.773  0.00  0.00    +0.000 NA
ATOM     23  C   UNL     1       1.649   4.523  20.092  0.00  0.00    +0.000 C 
ATOM     24  C   UNL     1       2.268   5.791  20.713  0.00  0.00    +0.000 C 
ATOM     25  N   UNL     1       2.227   6.917  19.768  0.00  0.00    +0.000 N 
ATOM     26  C   UNL     1       2.632   6.645  18.379  0.00  0.00    +0.000 C 
ATOM     27  C   UNL     1       2.015   5.316  17.872  0.00  0.00    +0.000 C 
BRANCH  25  28
ATOM     28  C   UNL     1       1.575   8.094  20.069  0.00  0.00    +0.000 A 
ATOM     29  C   UNL     1       1.031   8.314  21.341  0.00  0.00    +0.000 A 
ATOM     30  C   UNL     1       0.339   9.489  21.652  0.00  0.00    +0.000 A 
ATOM     31  C   UNL     1       0.182  10.478  20.688  0.00  0.00    +0.000 A 
ATOM     32  C   UNL     1       0.721  10.292  19.421  0.00  0.00    +0.000 A 
ATOM     33  C   UNL     1       1.408   9.114  19.119  0.00  0.00    +0.000 A 
ENDBRANCH  25  28
ENDBRANCH  21  22
ENDBRANCH  20  21
ENDBRANCH  19  20
ENDBRANCH  18  19
ENDBRANCH   4  18
TORSDOF 7
ENDMDL
MODEL 2
REMARK VINA RESULT:      -8.6      0.684      1.138
REMARK  Name = 
REMARK  7 active torsions:
REMARK  status: ('A' for Active; 'I' for Inactive)
REMARK    1  A    between atoms: C_7  and  C_8
REMARK    2  A    between atoms: C_11  and  O_12
REMARK    3  A    between atoms: O_12  and  C_13
REMARK    4  A    between atoms: C_13  and  C_14
REMARK    5  A    between atoms: C_14  and  C_15
REMARK    6  A    between atoms: C_15  and  N_16
REMARK    7  A    between atoms: N_19  and  C_20
REMARK                            x       y       z     vdW  Elec       q    Type
REMARK                         _______ _______ _______ _____ _____    ______ ____
ROOT
ATOM      1  C   UNL     1       7.892   8.085  18.179  0.00  0.00    +0.000 A 
ATOM      2  C   UNL     1       8.288   6.931  18.867  0.00  0.00    +0.000 A 
ATOM      3  C   UNL     1       7.671   5.707  18.604  0.00  0.00    +0.000 A 
ATOM      4  C   UNL     1       6.642   5.625  17.668  0.00  0.00    +0.000 A 
ATOM      5  C   UNL     1       6.242   6.768  16.976  0.00  0.00    +0.000 A 
ATOM      6  C   UNL     1       6.859   7.992  17.238  0.00  0.00    +0.000 A 
ENDROOT
BRANCH   1  13
ATOM      7 CL   UNL     1      10.834  15.050  18.019  0.00  0.00    +0.000 Cl
ATOM      8  C   UNL     1      10.439  13.452  18.527  0.00  0.00    +0.000 A 
ATOM      9  C   UNL     1      10.990  12.957  19.713  0.00  0.00    +0.000 A 
ATOM     10  C   UNL     1      10.695  11.666  20.165  0.00  0.00    +0.000 A 
ATOM     11  C   UNL     1       9.831  10.917  19.367  0.00  0.00    +0.000 A 
ATOM     12  N   UNL     1       9.335   9.647  19.489  0.00  0.00    +0.000 N 
ATOM     13  C   UNL     1       8.535   9.377  18.403  0.00  0.00    +0.000 A 
ATOM     14  N   UNL     1       8.494  10.422  17.597  0.00  0.00    +0.000 NA
ATOM     15  C   UNL     1       9.280  11.383  18.179  0.00  0.00    +0.000 A 
ATOM     16  C   UNL     1       9.578  12.680  17.743  0.00  0.00    +0.000 A 
ATOM     17  H   UNL     1       9.554   8.996  20.227  0.00  0.00    +0.000 HD
ENDBRANCH   1  13
BRANCH   4  18
ATOM     18  O   UNL     1       6.125   4.375  17.489  0.00  0.00    +0.000 OA
BRANCH  18  19
ATOM     19  C   UNL     1       5.438   3.842  18.622  0.00  0.00    +0.000 C 
BRANCH  19  20
ATOM     20  C   UNL     1       4.112   3.290  18.126  0.00  0.00    +0.000 C 
BRANCH  20  21
ATOM     21  C   UNL     1       3.130   3.051  19.271  0.00  0.00    +0.000 C 
BRANCH  21  22
ATOM     22  N   UNL     1       1.792   3.631  19.050  0.00  0.00    +0.000 NA
ATOM     23  C   UNL     1       1.295   4.401  20.217  0.00  0.00    +0.000 C 
ATOM     24  C   UNL     1       2.141   5.645  20.559  0.00  0.00    +0.000 C 
ATOM     25  N   UNL     1       2.321   6.503  19.380  0.00  0.00    +0.000 N 
ATOM     26  C   UNL     1       2.675   5.841  18.113  0.00  0.00    +0.000 C 
ATOM     27  C   UNL     1       1.819   4.566  17.896  0.00  0.00    +0.000 C 
BRANCH  25  28
ATOM     28  C   UNL     1       1.902   7.817  19.367  0.00  0.00    +0.000 A 
ATOM     29  C   UNL     1       1.283   8.389  20.486  0.00  0.00    +0.000 A 
ATOM     30  C   UNL     1       0.825   9.710  20.478  0.00  0.00    +0.000 A 
ATOM     31  C   UNL     1       0.985  10.493  19.341  0.00  0.00    +0.000 A 
ATOM     32  C   UNL     1       1.606   9.956  18.220  0.00  0.00    +0.000 A 
ATOM     33  C   UNL     1       2.058   8.635  18.237  0.00  0.00    +0.000 A 
ENDBRANCH  25  28
ENDBRANCH  21  22
ENDBRANCH  20  21
ENDBRANCH  19  20
ENDBRANCH  18  19
ENDBRANCH   4  18
TORSDOF 7
ENDMDL
MODEL 3
REMARK VINA RESULT:      -8.3      0.590      1.679
REMARK  Name = 
REMARK  7 active torsions:
REMARK  status: ('A' for Active; 'I' for Inactive)
REMARK    1  A    between atoms: C_7  and  C_8
REMARK    2  A    between atoms: C_11  and  O_12
REMARK    3  A    between atoms: O_12  and  C_13
REMARK    4  A    between atoms: C_13  and  C_14
REMARK    5  A    between atoms: C_14  and  C_15
REMARK    6  A    between atoms: C_15  and  N_16
REMARK    7  A    between atoms: N_19  and  C_20
REMARK                            x       y       z     vdW  Elec       q    Type
REMARK                         _______ _______ _______ _____ _____    ______ ____
ROOT
ATOM      1  C   UNL     1       7.738   7.695  18.009  0.00  0.00    +0.000 A 
ATOM      2  C   UNL     1       8.129   6.560  18.732  0.00  0.00    +0.000 A 
ATOM      3  C   UNL     1       7.558   5.317  18.456  0.00  0.00    +0.000 A 
ATOM      4  C   UNL     1       6.578   5.196  17.472  0.00  0.00    +0.000 A 
ATOM      5  C   UNL     1       6.184   6.319  16.745  0.00  0.00    +0.000 A 
ATOM      6  C   UNL     1       6.755   7.562  17.020  0.00  0.00    +0.000 A 
ENDROOT
BRANCH   1  13
ATOM      7 CL   UNL     1      11.228  13.935  20.471  0.00  0.00    +0.000 Cl
ATOM      8  C   UNL     1      10.272  12.862  19.522  0.00  0.00    +0.000 A 
ATOM      9  C   UNL     1       9.595  13.359  18.403  0.00  0.00    +0.000 A 
ATOM     10  C   UNL     1       8.809  12.523  17.602  0.00  0.00    +0.000 A 
ATOM     11  C   UNL     1       8.743  11.185  17.989  0.00  0.00    +0.000 A 
ATOM     12  N   UNL     1       8.086  10.107  17.461  0.00  0.00    +0.000 N 
ATOM     13  C   UNL     1       8.335   9.006  18.247  0.00  0.00    +0.000 A 
ATOM     14  N   UNL     1       9.128   9.334  19.250  0.00  0.00    +0.000 NA
ATOM     15  C   UNL     1       9.398  10.671  19.102  0.00  0.00    +0.000 A 
ATOM     16  C   UNL     1      10.187  11.517  19.889  0.00  0.00    +0.000 A 
ATOM     17  H   UNL     1       7.479  10.122  16.654  0.00  0.00    +0.000 HD
ENDBRANCH   1  13
BRANCH   4  18
ATOM     18  O   UNL     1       6.103   3.931  17.285  0.00  0.00    +0.000 OA
BRANCH  18  19
ATOM     19  C   UNL     1       4.772   3.859  16.774  0.00  0.00    +0.000 C 
BRANCH  19  20
ATOM     20  C   UNL     1       3.990   2.924  17.682  0.00  0.00    +0.000 C 
BRANCH  20  21
ATOM     21  C   UNL     1       3.446   3.646  18.912  0.00  0.00    +0.000 C 
BRANCH  21  22
ATOM     22  N   UNL     1       2.048   4.099  18.777  0.00  0.00    +0.000 NA
ATOM     23  C   UNL     1       1.431   4.465  20.076  0.00  0.00    +0.000 C 
ATOM     24  C   UNL     1       2.100   5.665  20.777  0.00  0.00    +0.000 C 
ATOM     25  N   UNL     1       2.191   6.821  19.874  0.00  0.00    +0.000 N 
ATOM     26  C   UNL     1       2.655   6.568  18.500  0.00  0.00    +0.000 C 
ATOM     27  C   UNL     1       1.977   5.304  17.911  0.00  0.00    +0.000 C 
BRANCH  25  28
ATOM     28  C   UNL     1       1.605   8.031  20.182  0.00  0.00    +0.000 A 
ATOM     29  C   UNL     1       1.366   8.991  19.190  0.00  0.00    +0.000 A 
ATOM     30  C   UNL     1       0.802  10.236  19.491  0.00  0.00    +0.000 A 
ATOM     31  C   UNL     1       0.458  10.542  20.803  0.00  0.00    +0.000 A 
ATOM     32  C   UNL     1       0.672   9.604  21.806  0.00  0.00    +0.000 A 
ATOM     33  C   UNL     1       1.239   8.366  21.495  0.00  0.00    +0.000 A 
ENDBRANCH  25  28
ENDBRANCH  21  22
ENDBRANCH  20  21
ENDBRANCH  19  20
ENDBRANCH  18  19
ENDBRANCH   4  18
TORSDOF 7
ENDMDL
MODEL 4
REMARK VINA RESULT:      -8.3      0.863      1.396
REMARK  Name = 
REMARK  7 active torsions:
REMARK  status: ('A' for Active; 'I' for Inactive)
REMARK    1  A    between atoms: C_7  and  C_8
REMARK    2  A    between atoms: C_11  and  O_12
REMARK    3  A    between atoms: O_12  and  C_13
REMARK    4  A    between atoms: C_13  and  C_14
REMARK    5  A    between atoms: C_14  and  C_15
REMARK    6  A    between atoms: C_15  and  N_16
REMARK    7  A    between atoms: N_19  and  C_20
REMARK                            x       y       z     vdW  Elec       q    Type
REMARK                         _______ _______ _______ _____ _____    ______ ____
ROOT
ATOM      1  C   UNL     1       7.795   7.860  18.109  0.00  0.00    +0.000 A 
ATOM      2  C   UNL     1       6.758   7.622  17.197  0.00  0.00    +0.000 A 
ATOM      3  C   UNL     1       6.183   6.354  17.101  0.00  0.00    +0.000 A 
ATOM      4  C   UNL     1       6.648   5.308  17.895  0.00  0.00    +0.000 A 
ATOM      5  C   UNL     1       7.678   5.536  18.807  0.00  0.00    +0.000 A 
ATOM      6  C   UNL     1       8.254   6.804  18.905  0.00  0.00    +0.000 A 
ENDROOT
BRANCH   1  13
ATOM      7 CL   UNL     1      11.498  14.156  20.067  0.00  0.00    +0.000 Cl
ATOM      8  C   UNL     1      10.437  13.067  19.258  0.00  0.00    +0.000 A 
ATOM      9  C   UNL     1       9.607  13.551  18.241  0.00  0.00    +0.000 A 
ATOM     10  C   UNL     1       8.732  12.702  17.556  0.00  0.00    +0.000 A 
ATOM     11  C   UNL     1       8.738  11.364  17.949  0.00  0.00    +0.000 A 
ATOM     12  N   UNL     1       8.031  10.275  17.516  0.00  0.00    +0.000 N 
ATOM     13  C   UNL     1       8.401   9.181  18.262  0.00  0.00    +0.000 A 
ATOM     14  N   UNL     1       9.319   9.522  19.147  0.00  0.00    +0.000 NA
ATOM     15  C   UNL     1       9.546  10.862  18.963  0.00  0.00    +0.000 A 
ATOM     16  C   UNL     1      10.423  11.722  19.635  0.00  0.00    +0.000 A 
ATOM     17  H   UNL     1       7.320  10.279  16.800  0.00  0.00    +0.000 HD
ENDBRANCH   1  13
BRANCH   4  18
ATOM     18  O   UNL     1       6.001   4.120  17.719  0.00  0.00    +0.000 OA
BRANCH  18  19
ATOM     19  C   UNL     1       5.187   4.048  16.548  0.00  0.00    +0.000 C 
BRANCH  19  20
ATOM     20  C   UNL     1       3.943   3.255  16.911  0.00  0.00    +0.000 C 
BRANCH  20  21
ATOM     21  C   UNL     1       3.865   2.971  18.409  0.00  0.00    +0.000 C 
BRANCH  21  22
ATOM     22  N   UNL     1       2.580   3.345  19.029  0.00  0.00    +0.000 NA
ATOM     23  C   UNL     1       2.745   4.171  20.251  0.00  0.00    +0.000 C 
ATOM     24  C   UNL     1       3.402   5.543  20.002  0.00  0.00    +0.000 C 
ATOM     25  N   UNL     1       2.702   6.280  18.940  0.00  0.00    +0.000 N 
ATOM     26  C   UNL     1       2.347   5.532  17.722  0.00  0.00    +0.000 C 
ATOM     27  C   UNL     1       1.761   4.141  18.078  0.00  0.00    +0.000 C 
BRANCH  25  28
ATOM     28  C   UNL     1       2.141   7.519  19.164  0.00  0.00    +0.000 A 
ATOM     29  C   UNL     1       1.638   7.867  20.425  0.00  0.00    +0.000 A 
ATOM     30  C   UNL     1       1.036   9.108  20.661  0.00  0.00    +0.000 A 
ATOM     31  C   UNL     1       0.933  10.035  19.631  0.00  0.00    +0.000 A 
ATOM     32  C   UNL     1       1.434   9.723  18.372  0.00  0.00    +0.000 A 
ATOM     33  C   UNL     1       2.029   8.480  18.147  0.00  0.00    +0.000 A 
ENDBRANCH  25  28
ENDBRANCH  21  22
ENDBRANCH  20  21
ENDBRANCH  19  20
ENDBRANCH  18  19
ENDBRANCH   4  18
TORSDOF 7
ENDMDL
MODEL 5
REMARK VINA RESULT:      -8.1      0.730      1.146
REMARK  Name = 
REMARK  7 active torsions:
REMARK  status: ('A' for Active; 'I' for Inactive)
REMARK    1  A    between atoms: C_7  and  C_8
REMARK    2  A    between atoms: C_11  and  O_12
REMARK    3  A    between atoms: O_12  and  C_13
REMARK    4  A    between atoms: C_13  and  C_14
REMARK    5  A    between atoms: C_14  and  C_15
REMARK    6  A    between atoms: C_15  and  N_16
REMARK    7  A    between atoms: N_19  and  C_20
REMARK                            x       y       z     vdW  Elec       q    Type
REMARK                         _______ _______ _______ _____ _____    ______ ____
ROOT
ATOM      1  C   UNL     1       7.477   7.291  17.748  0.00  0.00    +0.000 A 
ATOM      2  C   UNL     1       6.415   7.186  16.841  0.00  0.00    +0.000 A 
ATOM      3  C   UNL     1       5.869   5.939  16.537  0.00  0.00    +0.000 A 
ATOM      4  C   UNL     1       6.388   4.783  17.117  0.00  0.00    +0.000 A 
ATOM      5  C   UNL     1       7.443   4.877  18.023  0.00  0.00    +0.000 A 
ATOM      6  C   UNL     1       7.989   6.124  18.329  0.00  0.00    +0.000 A 
ENDROOT
BRANCH   1  13
ATOM      7 CL   UNL     1      10.041  14.377  18.378  0.00  0.00    +0.000 Cl
ATOM      8  C   UNL     1       9.739  12.712  18.699  0.00  0.00    +0.000 A 
ATOM      9  C   UNL     1      10.336  12.113  19.813  0.00  0.00    +0.000 A 
ATOM     10  C   UNL     1      10.117  10.764  20.113  0.00  0.00    +0.000 A 
ATOM     11  C   UNL     1       9.282  10.067  19.241  0.00  0.00    +0.000 A 
ATOM     12  N   UNL     1       8.856   8.766  19.218  0.00  0.00    +0.000 N 
ATOM     13  C   UNL     1       8.054   8.581  18.117  0.00  0.00    +0.000 A 
ATOM     14  N   UNL     1       7.945   9.709  17.438  0.00  0.00    +0.000 NA
ATOM     15  C   UNL     1       8.687  10.638  18.122  0.00  0.00    +0.000 A 
ATOM     16  C   UNL     1       8.908  11.991  17.838  0.00  0.00    +0.000 A 
ATOM     17  H   UNL     1       9.121   8.046  19.873  0.00  0.00    +0.000 HD
ENDBRANCH   1  13
BRANCH   4  18
ATOM     18  O   UNL     1       5.765   3.626  16.751  0.00  0.00    +0.000 OA
BRANCH  18  19
ATOM     19  C   UNL     1       4.354   3.609  16.970  0.00  0.00    +0.000 C 
BRANCH  19  20
ATOM     20  C   UNL     1       4.119   3.038  18.358  0.00  0.00    +0.000 C 
BRANCH  20  21
ATOM     21  C   UNL     1       3.500   4.068  19.300  0.00  0.00    +0.000 C 
BRANCH  21  22
ATOM     22  N   UNL     1       2.163   4.537  18.888  0.00  0.00    +0.000 NA
ATOM     23  C   UNL     1       1.259   4.789  20.037  0.00  0.00    +0.000 C 
ATOM     24  C   UNL     1       1.729   5.918  20.976  0.00  0.00    +0.000 C 
ATOM     25  N   UNL     1       2.006   7.150  20.223  0.00  0.00    +0.000 N 
ATOM     26  C   UNL     1       2.777   7.019  18.976  0.00  0.00    +0.000 C 
ATOM     27  C   UNL     1       2.274   5.815  18.138  0.00  0.00    +0.000 C 
BRANCH  25  28
ATOM     28  C   UNL     1       1.345   8.330  20.494  0.00  0.00    +0.000 A 
ATOM     29  C   UNL     1       1.192   9.314  19.508  0.00  0.00    +0.000 A 
ATOM     30  C   UNL     1       0.552  10.529  19.775  0.00  0.00    +0.000 A 
ATOM     31  C   UNL     1       0.044  10.782  21.044  0.00  0.00    +0.000 A 
ATOM     32  C   UNL     1       0.171   9.819  22.038  0.00  0.00    +0.000 A 
ATOM     33  C   UNL     1       0.814   8.610  21.762  0.00  0.00    +0.000 A 
ENDBRANCH  25  28
ENDBRANCH  21  22
ENDBRANCH  20  21
ENDBRANCH  19  20
ENDBRANCH  18  19
ENDBRANCH   4  18
TORSDOF 7
ENDMDL
MODEL 6
REMARK VINA RESULT:      -7.7      4.981      8.953
REMARK  Name = 
REMARK  7 active torsions:
REMARK  status: ('A' for Active; 'I' for Inactive)
REMARK    1  A    between atoms: C_7  and  C_8
REMARK    2  A    between atoms: C_11  and  O_12
REMARK    3  A    between atoms: O_12  and  C_13
REMARK    4  A    between atoms: C_13  and  C_14
REMARK    5  A    between atoms: C_14  and  C_15
REMARK    6  A    between atoms: C_15  and  N_16
REMARK    7  A    between atoms: N_19  and  C_20
REMARK                            x       y       z     vdW  Elec       q    Type
REMARK                         _______ _______ _______ _____ _____    ______ ____
ROOT
ATOM      1  C   UNL     1       0.723   9.610  20.591  0.00  0.00    +0.000 A 
ATOM      2  C   UNL     1       1.043   8.390  21.203  0.00  0.00    +0.000 A 
ATOM      3  C   UNL     1       1.695   7.390  20.481  0.00  0.00    +0.000 A 
ATOM      4  C   UNL     1       2.016   7.586  19.140  0.00  0.00    +0.000 A 
ATOM      5  C   UNL     1       1.704   8.797  18.522  0.00  0.00    +0.000 A 
ATOM      6  C   UNL     1       1.053   9.798  19.244  0.00  0.00    +0.000 A 
ENDROOT
BRANCH   1  13
ATOM      7 CL   UNL     1      -3.711  14.300  24.531  0.00  0.00    +0.000 Cl
ATOM      8  C   UNL     1      -2.415  13.693  23.572  0.00  0.00    +0.000 A 
ATOM      9  C   UNL     1      -1.430  14.576  23.119  0.00  0.00    +0.000 A 
ATOM     10  C   UNL     1      -0.358  14.126  22.339  0.00  0.00    +0.000 A 
ATOM     11  C   UNL     1      -0.340  12.763  22.046  0.00  0.00    +0.000 A 
ATOM     12  N   UNL     1       0.529  11.989  21.325  0.00  0.00    +0.000 N 
ATOM     13  C   UNL     1       0.070  10.693  21.322  0.00  0.00    +0.000 A 
ATOM     14  N   UNL     1      -1.050  10.604  22.015  0.00  0.00    +0.000 NA
ATOM     15  C   UNL     1      -1.313  11.869  22.476  0.00  0.00    +0.000 A 
ATOM     16  C   UNL     1      -2.375  12.331  23.263  0.00  0.00    +0.000 A 
ATOM     17  H   UNL     1       1.347  12.319  20.836  0.00  0.00    +0.000 HD
ENDBRANCH   1  13
BRANCH   4  18
ATOM     18  O   UNL     1       2.661   6.541  18.544  0.00  0.00    +0.000 OA
BRANCH  18  19
ATOM     19  C   UNL     1       2.523   5.289  19.216  0.00  0.00    +0.000 C 
BRANCH  19  20
ATOM     20  C   UNL     1       3.813   5.042  19.980  0.00  0.00    +0.000 C 
BRANCH  20  21
ATOM     21  C   UNL     1       5.043   5.408  19.154  0.00  0.00    +0.000 C 
BRANCH  21  22
ATOM     22  N   UNL     1       5.769   4.248  18.604  0.00  0.00    +0.000 NA
ATOM     23  C   UNL     1       4.985   3.505  17.586  0.00  0.00    +0.000 C 
ATOM     24  C   UNL     1       4.660   4.321  16.319  0.00  0.00    +0.000 C 
ATOM     25  N   UNL     1       5.877   4.909  15.743  0.00  0.00    +0.000 N 
ATOM     26  C   UNL     1       6.819   5.555  16.672  0.00  0.00    +0.000 C 
ATOM     27  C   UNL     1       7.024   4.690  17.942  0.00  0.00    +0.000 C 
BRANCH  25  28
ATOM     28  C   UNL     1       6.278   4.630  14.453  0.00  0.00    +0.000 A 
ATOM     29  C   UNL     1       7.441   5.200  13.919  0.00  0.00    +0.000 A 
ATOM     30  C   UNL     1       7.845   4.953  12.602  0.00  0.00    +0.000 A 
ATOM     31  C   UNL     1       7.087   4.117  11.790  0.00  0.00    +0.000 A 
ATOM     32  C   UNL     1       5.935   3.527  12.298  0.00  0.00    +0.000 A 
ATOM     33  C   UNL     1       5.540   3.784  13.612  0.00  0.00    +0.000 A 
ENDBRANCH  25  28
ENDBRANCH  21  22
ENDBRANCH  20  21
ENDBRANCH  19  20
ENDBRANCH  18  19
ENDBRANCH   4  18
TORSDOF 7
ENDMDL
MODEL 7
REMARK VINA RESULT:      -7.7      4.603      8.903
REMARK  Name = 
REMARK  7 active torsions:
REMARK  status: ('A' for Active; 'I' for Inactive)
REMARK    1  A    between atoms: C_7  and  C_8
REMARK    2  A    between atoms: C_11  and  O_12
REMARK    3  A    between atoms: O_12  and  C_13
REMARK    4  A    between atoms: C_13  and  C_14
REMARK    5  A    between atoms: C_14  and  C_15
REMARK    6  A    between atoms: C_15  and  N_16
REMARK    7  A    between atoms: N_19  and  C_20
REMARK                            x       y       z     vdW  Elec       q    Type
REMARK                         _______ _______ _______ _____ _____    ______ ____
ROOT
ATOM      1  C   UNL     1       9.017  10.185  18.685  0.00  0.00    +0.000 A 
ATOM      2  C   UNL     1       9.652  10.380  19.919  0.00  0.00    +0.000 A 
ATOM      3  C   UNL     1      10.203  11.621  20.240  0.00  0.00    +0.000 A 
ATOM      4  C   UNL     1      10.145  12.673  19.329  0.00  0.00    +0.000 A 
ATOM      5  C   UNL     1       9.513  12.491  18.099  0.00  0.00    +0.000 A 
ATOM      6  C   UNL     1       8.960  11.250  17.778  0.00  0.00    +0.000 A 
ENDROOT
BRANCH   1  13
ATOM      7 CL   UNL     1       4.995   4.370  16.003  0.00  0.00    +0.000 Cl
ATOM      8  C   UNL     1       6.099   5.302  16.943  0.00  0.00    +0.000 A 
ATOM      9  C   UNL     1       6.796   4.684  17.986  0.00  0.00    +0.000 A 
ATOM     10  C   UNL     1       7.703   5.401  18.774  0.00  0.00    +0.000 A 
ATOM     11  C   UNL     1       7.861   6.750  18.457  0.00  0.00    +0.000 A 
ATOM     12  N   UNL     1       8.639   7.737  19.000  0.00  0.00    +0.000 N 
ATOM     13  C   UNL     1       8.400   8.911  18.326  0.00  0.00    +0.000 A 
ATOM     14  N   UNL     1       7.508   8.716  17.372  0.00  0.00    +0.000 NA
ATOM     15  C   UNL     1       7.172   7.387  17.432  0.00  0.00    +0.000 A 
ATOM     16  C   UNL     1       6.273   6.656  16.647  0.00  0.00    +0.000 A 
ATOM     17  H   UNL     1       9.253   7.635  19.794  0.00  0.00    +0.000 HD
ENDBRANCH   1  13
BRANCH   4  18
ATOM     18  O   UNL     1      10.708  13.839  19.760  0.00  0.00    +0.000 OA
BRANCH  18  19
ATOM     19  C   UNL     1      11.427  14.563  18.761  0.00  0.00    +0.000 C 
BRANCH  19  20
ATOM     20  C   UNL     1      10.932  15.999  18.800  0.00  0.00    +0.000 C 
BRANCH  20  21
ATOM     21  C   UNL     1       9.929  16.226  19.928  0.00  0.00    +0.000 C 
BRANCH  21  22
ATOM     22  N   UNL     1       8.844  17.167  19.592  0.00  0.00    +0.000 NA
ATOM     23  C   UNL     1       8.186  16.854  18.299  0.00  0.00    +0.000 C 
ATOM     24  C   UNL     1       7.461  15.494  18.272  0.00  0.00    +0.000 C 
ATOM     25  N   UNL     1       6.527  15.370  19.400  0.00  0.00    +0.000 N 
ATOM     26  C   UNL     1       7.012  15.789  20.726  0.00  0.00    +0.000 C 
ATOM     27  C   UNL     1       7.786  17.129  20.634  0.00  0.00    +0.000 C 
BRANCH  25  28
ATOM     28  C   UNL     1       5.179  15.155  19.206  0.00  0.00    +0.000 A 
ATOM     29  C   UNL     1       4.333  14.856  20.283  0.00  0.00    +0.000 A 
ATOM     30  C   UNL     1       2.969  14.603  20.099  0.00  0.00    +0.000 A 
ATOM     31  C   UNL     1       2.421  14.652  18.823  0.00  0.00    +0.000 A 
ATOM     32  C   UNL     1       3.234  14.958  17.737  0.00  0.00    +0.000 A 
ATOM     33  C   UNL     1       4.594  15.205  17.932  0.00  0.00    +0.000 A 
ENDBRANCH  25  28
ENDBRANCH  21  22
ENDBRANCH  20  21
ENDBRANCH  19  20
ENDBRANCH  18  19
ENDBRANCH   4  18
TORSDOF 7
ENDMDL
MODEL 8
REMARK VINA RESULT:      -7.7      0.939      1.413
REMARK  Name = 
REMARK  7 active torsions:
REMARK  status: ('A' for Active; 'I' for Inactive)
REMARK    1  A    between atoms: C_7  and  C_8
REMARK    2  A    between atoms: C_11  and  O_12
REMARK    3  A    between atoms: O_12  and  C_13
REMARK    4  A    between atoms: C_13  and  C_14
REMARK    5  A    between atoms: C_14  and  C_15
REMARK    6  A    between atoms: C_15  and  N_16
REMARK    7  A    between atoms: N_19  and  C_20
REMARK                            x       y       z     vdW  Elec       q    Type
REMARK                         _______ _______ _______ _____ _____    ______ ____
ROOT
ATOM      1  C   UNL     1       7.964   7.908  18.044  0.00  0.00    +0.000 A 
ATOM      2  C   UNL     1       7.097   7.764  16.952  0.00  0.00    +0.000 A 
ATOM      3  C   UNL     1       6.516   6.527  16.673  0.00  0.00    +0.000 A 
ATOM      4  C   UNL     1       6.807   5.418  17.465  0.00  0.00    +0.000 A 
ATOM      5  C   UNL     1       7.667   5.552  18.555  0.00  0.00    +0.000 A 
ATOM      6  C   UNL     1       8.248   6.789  18.836  0.00  0.00    +0.000 A 
ENDROOT
BRANCH   1  13
ATOM      7 CL   UNL     1      11.140  14.760  18.430  0.00  0.00    +0.000 Cl
ATOM      8  C   UNL     1      10.530  13.212  18.876  0.00  0.00    +0.000 A 
ATOM      9  C   UNL     1      10.662  12.782  20.201  0.00  0.00    +0.000 A 
ATOM     10  C   UNL     1      10.179  11.533  20.608  0.00  0.00    +0.000 A 
ATOM     11  C   UNL     1       9.572  10.757  19.622  0.00  0.00    +0.000 A 
ATOM     12  N   UNL     1       9.002   9.513  19.652  0.00  0.00    +0.000 N 
ATOM     13  C   UNL     1       8.567   9.194  18.387  0.00  0.00    +0.000 A 
ATOM     14  N   UNL     1       8.828  10.183  17.552  0.00  0.00    +0.000 NA
ATOM     15  C   UNL     1       9.439  11.158  18.297  0.00  0.00    +0.000 A 
ATOM     16  C   UNL     1       9.919  12.414  17.906  0.00  0.00    +0.000 A 
ATOM     17  H   UNL     1       8.949   8.907  20.457  0.00  0.00    +0.000 HD
ENDBRANCH   1  13
BRANCH   4  18
ATOM     18  O   UNL     1       6.171   4.267  17.101  0.00  0.00    +0.000 OA
BRANCH  18  19
ATOM     19  C   UNL     1       5.063   3.907  17.927  0.00  0.00    +0.000 C 
BRANCH  19  20
ATOM     20  C   UNL     1       3.798   4.184  17.132  0.00  0.00    +0.000 C 
BRANCH  20  21
ATOM     21  C   UNL     1       2.890   5.188  17.838  0.00  0.00    +0.000 C 
BRANCH  21  22
ATOM     22  N   UNL     1       3.611   6.179  18.661  0.00  0.00    +0.000 NA
ATOM     23  C   UNL     1       3.410   7.574  18.195  0.00  0.00    +0.000 C 
ATOM     24  C   UNL     1       1.953   8.067  18.287  0.00  0.00    +0.000 C 
ATOM     25  N   UNL     1       1.409   7.863  19.637  0.00  0.00    +0.000 N 
ATOM     26  C   UNL     1       1.665   6.562  20.277  0.00  0.00    +0.000 C 
ATOM     27  C   UNL     1       3.137   6.122  20.068  0.00  0.00    +0.000 C 
BRANCH  25  28
ATOM     28  C   UNL     1       0.937   8.913  20.396  0.00  0.00    +0.000 A 
ATOM     29  C   UNL     1       0.493   8.712  21.709  0.00  0.00    +0.000 A 
ATOM     30  C   UNL     1      -0.019   9.761  22.482  0.00  0.00    +0.000 A 
ATOM     31  C   UNL     1      -0.090  11.043  21.951  0.00  0.00    +0.000 A 
ATOM     32  C   UNL     1       0.355  11.274  20.654  0.00  0.00    +0.000 A 
ATOM     33  C   UNL     1       0.861  10.220  19.891  0.00  0.00    +0.000 A 
ENDBRANCH  25  28
ENDBRANCH  21  22
ENDBRANCH  20  21
ENDBRANCH  19  20
ENDBRANCH  18  19
ENDBRANCH   4  18
TORSDOF 7
ENDMDL
MODEL 9
REMARK VINA RESULT:      -7.7      4.764      7.378
REMARK  Name = 
REMARK  7 active torsions:
REMARK  status: ('A' for Active; 'I' for Inactive)
REMARK    1  A    between atoms: C_7  and  C_8
REMARK    2  A    between atoms: C_11  and  O_12
REMARK    3  A    between atoms: O_12  and  C_13
REMARK    4  A    between atoms: C_13  and  C_14
REMARK    5  A    between atoms: C_14  and  C_15
REMARK    6  A    between atoms: C_15  and  N_16
REMARK    7  A    between atoms: N_19  and  C_20
REMARK                            x       y       z     vdW  Elec       q    Type
REMARK                         _______ _______ _______ _____ _____    ______ ____
ROOT
ATOM      1  C   UNL     1       1.436  10.011  19.295  0.00  0.00    +0.000 A 
ATOM      2  C   UNL     1       1.108   9.304  20.459  0.00  0.00    +0.000 A 
ATOM      3  C   UNL     1       1.351   7.932  20.542  0.00  0.00    +0.000 A 
ATOM      4  C   UNL     1       1.904   7.249  19.461  0.00  0.00    +0.000 A 
ATOM      5  C   UNL     1       2.236   7.944  18.299  0.00  0.00    +0.000 A 
ATOM      6  C   UNL     1       1.994   9.316  18.215  0.00  0.00    +0.000 A 
ENDROOT
BRANCH   1  13
ATOM      7 CL   UNL     1      -1.014  17.142  18.726  0.00  0.00    +0.000 Cl
ATOM      8  C   UNL     1       0.020  15.764  18.752  0.00  0.00    +0.000 A 
ATOM      9  C   UNL     1       1.381  15.928  18.476  0.00  0.00    +0.000 A 
ATOM     10  C   UNL     1       2.258  14.837  18.489  0.00  0.00    +0.000 A 
ATOM     11  C   UNL     1       1.694  13.598  18.787  0.00  0.00    +0.000 A 
ATOM     12  N   UNL     1       2.231  12.342  18.884  0.00  0.00    +0.000 N 
ATOM     13  C   UNL     1       1.227  11.452  19.181  0.00  0.00    +0.000 A 
ATOM     14  N   UNL     1       0.073  12.085  19.285  0.00  0.00    +0.000 NA
ATOM     15  C   UNL     1       0.343  13.409  19.054  0.00  0.00    +0.000 A 
ATOM     16  C   UNL     1      -0.521  14.511  19.046  0.00  0.00    +0.000 A 
ATOM     17  H   UNL     1       3.196  12.098  18.719  0.00  0.00    +0.000 HD
ENDBRANCH   1  13
BRANCH   4  18
ATOM     18  O   UNL     1       2.104   5.914  19.666  0.00  0.00    +0.000 OA
BRANCH  18  19
ATOM     19  C   UNL     1       1.780   5.453  20.977  0.00  0.00    +0.000 C 
BRANCH  19  20
ATOM     20  C   UNL     1       2.226   4.003  21.069  0.00  0.00    +0.000 C 
BRANCH  20  21
ATOM     21  C   UNL     1       1.635   3.154  19.947  0.00  0.00    +0.000 C 
BRANCH  21  22
ATOM     22  N   UNL     1       2.596   2.223  19.324  0.00  0.00    +0.000 NA
ATOM     23  C   UNL     1       2.479   2.175  17.845  0.00  0.00    +0.000 C 
ATOM     24  C   UNL     1       2.807   3.506  17.141  0.00  0.00    +0.000 C 
ATOM     25  N   UNL     1       4.117   4.020  17.565  0.00  0.00    +0.000 N 
ATOM     26  C   UNL     1       4.419   3.989  19.006  0.00  0.00    +0.000 C 
ATOM     27  C   UNL     1       3.989   2.638  19.633  0.00  0.00    +0.000 C 
BRANCH  25  28
ATOM     28  C   UNL     1       5.133   4.251  16.662  0.00  0.00    +0.000 A 
ATOM     29  C   UNL     1       6.353   4.804  17.073  0.00  0.00    +0.000 A 
ATOM     30  C   UNL     1       7.382   5.073  16.164  0.00  0.00    +0.000 A 
ATOM     31  C   UNL     1       7.210   4.785  14.816  0.00  0.00    +0.000 A 
ATOM     32  C   UNL     1       6.014   4.224  14.381  0.00  0.00    +0.000 A 
ATOM     33  C   UNL     1       4.993   3.963  15.296  0.00  0.00    +0.000 A 
ENDBRANCH  25  28
ENDBRANCH  21  22
ENDBRANCH  20  21
ENDBRANCH  19  20
ENDBRANCH  18  19
ENDBRANCH   4  18
TORSDOF 7
ENDMDL
