MODEL 1
REMARK VINA RESULT:      -7.6      0.000      0.000
REMARK  Name = 
REMARK  7 active torsions:
REMARK  status: ('A' for Active; 'I' for Inactive)
REMARK    1  A    between atoms: C_1  and  C_2
REMARK    2  A    between atoms: CA_4  and  C_5
REMARK    3  A    between atoms: C_5  and  OXT_7
REMARK    4  A    between atoms: C_8  and  C_9
REMARK    5  A    between atoms: C_10  and  C_11
REMARK    6  A    between atoms: C_11  and  C_12
REMARK    7  A    between atoms: C_15  and  C_16
REMARK                            x       y       z     vdW  Elec       q    Type
REMARK                         _______ _______ _______ _____ _____    ______ ____
ROOT
ATOM      1  C   UNL     1       3.359   7.075  17.879  0.00  0.00    +0.000 C 
ATOM      2  C   UNL     1       3.249   5.683  18.391  0.00  0.00    +0.000 A 
ATOM      3  N   UNL     1       2.031   5.173  18.748  0.00  0.00    +0.000 N 
ATOM      4  CA  UNL     1       2.134   3.857  19.139  0.00  0.00    +0.000 A 
ATOM      5  C   UNL     1       3.476   3.513  19.007  0.00  0.00    +0.000 A 
ATOM      6  C   UNL     1       4.081   2.167  19.240  0.00  0.00    +0.000 C 
ATOM      7  C   UNL     1       4.198   4.682  18.559  0.00  0.00    +0.000 A 
ATOM      8  H   UNL     1       1.157   5.674  18.649  0.00  0.00    +0.000 HD
ENDROOT
BRANCH   4   9
ATOM      9  C   UNL     1       1.005   3.027  19.505  0.00  0.00    +0.000 C 
ATOM     10  O   UNL     1       0.336   2.342  18.747  0.00  0.00    +0.000 OA
BRANCH   9  11
ATOM     11  OXT UNL     1       0.740   3.091  20.834  0.00  0.00    +0.000 OA
ATOM     12  HXT UNL     1      -0.196   2.931  21.041  0.00  0.00    +0.000 HD
ENDBRANCH   9  11
ENDBRANCH   4   9
BRANCH   7  13
ATOM     13  C   UNL     1       5.659   4.708  18.204  0.00  0.00    +0.000 C 
BRANCH  13  14
ATOM     14  C   UNL     1       5.819   4.578  16.708  0.00  0.00    +0.000 A 
ATOM     15  C   UNL     1       6.998   4.977  16.063  0.00  0.00    +0.000 A 
ATOM     16  C   UNL     1       7.184   4.732  14.698  0.00  0.00    +0.000 A 
ATOM     17  C   UNL     1       6.188   4.090  13.947  0.00  0.00    +0.000 A 
ATOM     18  C   UNL     1       4.998   3.720  14.580  0.00  0.00    +0.000 A 
ATOM     19  C   UNL     1       4.819   3.954  15.947  0.00  0.00    +0.000 A 
BRANCH  17  20
ATOM     20  C   UNL     1       6.390   3.765  12.486  0.00  0.00    +0.000 C 
ATOM     21  F   UNL     1       5.265   3.900  11.731  0.00  0.00    +0.000 F 
ATOM     22  F   UNL     1       7.326   4.564  11.901  0.00  0.00    +0.000 F 
ATOM     23  F   UNL     1       6.820   2.487  12.290  0.00  0.00    +0.000 F 
ENDBRANCH  17  20
ENDBRANCH  13  14
ENDBRANCH   7  13
TORSDOF 5
ENDMDL
MODEL 2
REMARK VINA RESULT:      -7.6      5.471      6.950
REMARK  Name = 
REMARK  7 active torsions:
REMARK  status: ('A' for Active; 'I' for Inactive)
REMARK    1  A    between atoms: C_1  and  C_2
REMARK    2  A    between atoms: CA_4  and  C_5
REMARK    3  A    between atoms: C_5  and  OXT_7
REMARK    4  A    between atoms: C_8  and  C_9
REMARK    5  A    between atoms: C_10  and  C_11
REMARK    6  A    between atoms: C_11  and  C_12
REMARK    7  A    between atoms: C_15  and  C_16
REMARK                            x       y       z     vdW  Elec       q    Type
REMARK                         _______ _______ _______ _____ _____    ______ ____
ROOT
ATOM      1  C   UNL     1       6.646   5.506  19.236  0.00  0.00    +0.000 C 
ATOM      2  C   UNL     1       5.443   4.791  18.733  0.00  0.00    +0.000 A 
ATOM      3  N   UNL     1       5.209   3.492  19.094  0.00  0.00    +0.000 N 
ATOM      4  CA  UNL     1       4.020   3.034  18.573  0.00  0.00    +0.000 A 
ATOM      5  C   UNL     1       3.467   4.096  17.864  0.00  0.00    +0.000 A 
ATOM      6  C   UNL     1       2.141   4.117  17.177  0.00  0.00    +0.000 C 
ATOM      7  C   UNL     1       4.384   5.211  17.936  0.00  0.00    +0.000 A 
ATOM      8  H   UNL     1       5.793   2.971  19.736  0.00  0.00    +0.000 HD
ENDROOT
BRANCH   4   9
ATOM      9  C   UNL     1       3.469   1.722  18.840  0.00  0.00    +0.000 C 
ATOM     10  O   UNL     1       2.371   1.483  19.318  0.00  0.00    +0.000 OA
BRANCH   9  11
ATOM     11  OXT UNL     1       4.332   0.732  18.500  0.00  0.00    +0.000 OA
ATOM     12  HXT UNL     1       4.992   0.551  19.190  0.00  0.00    +0.000 HD
ENDBRANCH   9  11
ENDBRANCH   4   9
BRANCH   7  13
ATOM     13  C   UNL     1       4.118   6.582  17.379  0.00  0.00    +0.000 C 
BRANCH  13  14
ATOM     14  C   UNL     1       3.057   7.268  18.208  0.00  0.00    +0.000 A 
ATOM     15  C   UNL     1       2.717   6.801  19.487  0.00  0.00    +0.000 A 
ATOM     16  C   UNL     1       1.829   7.519  20.295  0.00  0.00    +0.000 A 
ATOM     17  C   UNL     1       1.254   8.714  19.838  0.00  0.00    +0.000 A 
ATOM     18  C   UNL     1       1.567   9.164  18.551  0.00  0.00    +0.000 A 
ATOM     19  C   UNL     1       2.464   8.453  17.749  0.00  0.00    +0.000 A 
BRANCH  17  20
ATOM     20  C   UNL     1       0.338   9.534  20.714  0.00  0.00    +0.000 C 
ATOM     21  F   UNL     1      -0.800   9.946  20.089  0.00  0.00    +0.000 F 
ATOM     22  F   UNL     1      -0.074   8.849  21.818  0.00  0.00    +0.000 F 
ATOM     23  F   UNL     1       0.936  10.665  21.182  0.00  0.00    +0.000 F 
ENDBRANCH  17  20
ENDBRANCH  13  14
ENDBRANCH   7  13
TORSDOF 5
ENDMDL
MODEL 3
REMARK VINA RESULT:      -7.6      5.466      6.954
REMARK  Name = 
REMARK  7 active torsions:
REMARK  status: ('A' for Active; 'I' for Inactive)
REMARK    1  A    between atoms: C_1  and  C_2
REMARK    2  A    between atoms: CA_4  and  C_5
REMARK    3  A    between atoms: C_5  and  OXT_7
REMARK    4  A    between atoms: C_8  and  C_9
REMARK    5  A    between atoms: C_10  and  C_11
REMARK    6  A    between atoms: C_11  and  C_12
REMARK    7  A    between atoms: C_15  and  C_16
REMARK                            x       y       z     vdW  Elec       q    Type
REMARK                         _______ _______ _______ _____ _____    ______ ____
ROOT
ATOM      1  C   UNL     1       6.616   5.507  19.036  0.00  0.00    +0.000 C 
ATOM      2  C   UNL     1       5.384   4.792  18.608  0.00  0.00    +0.000 A 
ATOM      3  N   UNL     1       5.169   3.496  18.993  0.00  0.00    +0.000 N 
ATOM      4  CA  UNL     1       3.951   3.037  18.545  0.00  0.00    +0.000 A 
ATOM      5  C   UNL     1       3.361   4.095  17.860  0.00  0.00    +0.000 A 
ATOM      6  C   UNL     1       1.998   4.114  17.249  0.00  0.00    +0.000 C 
ATOM      7  C   UNL     1       4.283   5.207  17.870  0.00  0.00    +0.000 A 
ATOM      8  H   UNL     1       5.787   2.978  19.605  0.00  0.00    +0.000 HD
ENDROOT
BRANCH   4   9
ATOM      9  C   UNL     1       3.413   1.729  18.854  0.00  0.00    +0.000 C 
ATOM     10  O   UNL     1       2.328   1.495  19.364  0.00  0.00    +0.000 OA
BRANCH   9  11
ATOM     11  OXT UNL     1       4.272   0.735  18.515  0.00  0.00    +0.000 OA
ATOM     12  HXT UNL     1       4.416   0.670  17.556  0.00  0.00    +0.000 HD
ENDBRANCH   9  11
ENDBRANCH   4   9
BRANCH   7  13
ATOM     13  C   UNL     1       3.988   6.575  17.318  0.00  0.00    +0.000 C 
BRANCH  13  14
ATOM     14  C   UNL     1       3.089   7.323  18.273  0.00  0.00    +0.000 A 
ATOM     15  C   UNL     1       2.454   8.515  17.894  0.00  0.00    +0.000 A 
ATOM     16  C   UNL     1       1.523   9.129  18.739  0.00  0.00    +0.000 A 
ATOM     17  C   UNL     1       1.215   8.567  19.988  0.00  0.00    +0.000 A 
ATOM     18  C   UNL     1       1.870   7.397  20.381  0.00  0.00    +0.000 A 
ATOM     19  C   UNL     1       2.791   6.778  19.531  0.00  0.00    +0.000 A 
BRANCH  17  20
ATOM     20  C   UNL     1       0.173   9.181  20.892  0.00  0.00    +0.000 C 
ATOM     21  F   UNL     1      -0.506   8.273  21.646  0.00  0.00    +0.000 F 
ATOM     22  F   UNL     1       0.710  10.069  21.775  0.00  0.00    +0.000 F 
ATOM     23  F   UNL     1      -0.775   9.874  20.201  0.00  0.00    +0.000 F 
ENDBRANCH  17  20
ENDBRANCH  13  14
ENDBRANCH   7  13
TORSDOF 5
ENDMDL
MODEL 4
REMARK VINA RESULT:      -7.5      5.953      7.780
REMARK  Name = 
REMARK  7 active torsions:
REMARK  status: ('A' for Active; 'I' for Inactive)
REMARK    1  A    between atoms: C_1  and  C_2
REMARK    2  A    between atoms: CA_4  and  C_5
REMARK    3  A    between atoms: C_5  and  OXT_7
REMARK    4  A    between atoms: C_8  and  C_9
REMARK    5  A    between atoms: C_10  and  C_11
REMARK    6  A    between atoms: C_11  and  C_12
REMARK    7  A    between atoms: C_15  and  C_16
REMARK                            x       y       z     vdW  Elec       q    Type
REMARK                         _______ _______ _______ _____ _____    ______ ____
ROOT
ATOM      1  C   UNL     1       3.299   2.707  19.467  0.00  0.00    +0.000 C 
ATOM      2  C   UNL     1       4.165   3.772  18.895  0.00  0.00    +0.000 A 
ATOM      3  N   UNL     1       5.527   3.645  18.925  0.00  0.00    +0.000 N 
ATOM      4  CA  UNL     1       6.143   4.703  18.296  0.00  0.00    +0.000 A 
ATOM      5  C   UNL     1       5.125   5.530  17.831  0.00  0.00    +0.000 A 
ATOM      6  C   UNL     1       5.283   6.773  17.018  0.00  0.00    +0.000 C 
ATOM      7  C   UNL     1       3.861   4.957  18.236  0.00  0.00    +0.000 A 
ATOM      8  H   UNL     1       6.011   2.831  19.283  0.00  0.00    +0.000 HD
ENDROOT
BRANCH   4   9
ATOM      9  C   UNL     1       7.574   4.813  18.105  0.00  0.00    +0.000 C 
ATOM     10  O   UNL     1       8.244   4.199  17.290  0.00  0.00    +0.000 OA
BRANCH   9  11
ATOM     11  OXT UNL     1       8.132   5.702  18.965  0.00  0.00    +0.000 OA
ATOM     12  HXT UNL     1       8.100   5.405  19.890  0.00  0.00    +0.000 HD
ENDBRANCH   9  11
ENDBRANCH   4   9
BRANCH   7  13
ATOM     13  C   UNL     1       2.510   5.494  17.852  0.00  0.00    +0.000 C 
BRANCH  13  14
ATOM     14  C   UNL     1       2.163   6.671  18.733  0.00  0.00    +0.000 A 
ATOM     15  C   UNL     1       1.953   7.948  18.194  0.00  0.00    +0.000 A 
ATOM     16  C   UNL     1       1.506   8.999  19.002  0.00  0.00    +0.000 A 
ATOM     17  C   UNL     1       1.270   8.797  20.370  0.00  0.00    +0.000 A 
ATOM     18  C   UNL     1       1.510   7.532  20.916  0.00  0.00    +0.000 A 
ATOM     19  C   UNL     1       1.944   6.480  20.106  0.00  0.00    +0.000 A 
BRANCH  17  20
ATOM     20  C   UNL     1       0.734   9.901  21.249  0.00  0.00    +0.000 C 
ATOM     21  F   UNL     1      -0.575  10.201  21.021  0.00  0.00    +0.000 F 
ATOM     22  F   UNL     1       0.818   9.597  22.575  0.00  0.00    +0.000 F 
ATOM     23  F   UNL     1       1.416  11.070  21.094  0.00  0.00    +0.000 F 
ENDBRANCH  17  20
ENDBRANCH  13  14
ENDBRANCH   7  13
TORSDOF 5
ENDMDL
MODEL 5
REMARK VINA RESULT:      -7.5      5.846      7.795
REMARK  Name = 
REMARK  7 active torsions:
REMARK  status: ('A' for Active; 'I' for Inactive)
REMARK    1  A    between atoms: C_1  and  C_2
REMARK    2  A    between atoms: CA_4  and  C_5
REMARK    3  A    between atoms: C_5  and  OXT_7
REMARK    4  A    between atoms: C_8  and  C_9
REMARK    5  A    between atoms: C_10  and  C_11
REMARK    6  A    between atoms: C_11  and  C_12
REMARK    7  A    between atoms: C_15  and  C_16
REMARK                            x       y       z     vdW  Elec       q    Type
REMARK                         _______ _______ _______ _____ _____    ______ ____
ROOT
ATOM      1  C   UNL     1       3.837   2.737  19.673  0.00  0.00    +0.000 C 
ATOM      2  C   UNL     1       4.433   3.731  18.740  0.00  0.00    +0.000 A 
ATOM      3  N   UNL     1       5.767   3.682  18.439  0.00  0.00    +0.000 N 
ATOM      4  CA  UNL     1       6.107   4.646  17.517  0.00  0.00    +0.000 A 
ATOM      5  C   UNL     1       4.933   5.326  17.208  0.00  0.00    +0.000 A 
ATOM      6  C   UNL     1       4.771   6.417  16.201  0.00  0.00    +0.000 C 
ATOM      7  C   UNL     1       3.867   4.767  18.008  0.00  0.00    +0.000 A 
ATOM      8  H   UNL     1       6.397   2.968  18.782  0.00  0.00    +0.000 HD
ENDROOT
BRANCH   4   9
ATOM      9  C   UNL     1       7.431   4.796  16.950  0.00  0.00    +0.000 C 
ATOM     10  O   UNL     1       7.743   5.533  16.028  0.00  0.00    +0.000 OA
BRANCH   9  11
ATOM     11  OXT UNL     1       8.338   3.995  17.564  0.00  0.00    +0.000 OA
ATOM     12  HXT UNL     1       9.256   4.213  17.329  0.00  0.00    +0.000 HD
ENDBRANCH   9  11
ENDBRANCH   4   9
BRANCH   7  13
ATOM     13  C   UNL     1       2.418   5.159  17.906  0.00  0.00    +0.000 C 
BRANCH  13  14
ATOM     14  C   UNL     1       2.133   6.297  18.857  0.00  0.00    +0.000 A 
ATOM     15  C   UNL     1       2.029   7.619  18.401  0.00  0.00    +0.000 A 
ATOM     16  C   UNL     1       1.638   8.645  19.268  0.00  0.00    +0.000 A 
ATOM     17  C   UNL     1       1.351   8.370  20.614  0.00  0.00    +0.000 A 
ATOM     18  C   UNL     1       1.486   7.059  21.078  0.00  0.00    +0.000 A 
ATOM     19  C   UNL     1       1.865   6.033  20.208  0.00  0.00    +0.000 A 
BRANCH  17  20
ATOM     20  C   UNL     1       0.873   9.451  21.554  0.00  0.00    +0.000 C 
ATOM     21  F   UNL     1       1.362  10.689  21.265  0.00  0.00    +0.000 F 
ATOM     22  F   UNL     1      -0.484   9.580  21.549  0.00  0.00    +0.000 F 
ATOM     23  F   UNL     1       1.217   9.208  22.849  0.00  0.00    +0.000 F 
ENDBRANCH  17  20
ENDBRANCH  13  14
ENDBRANCH   7  13
TORSDOF 5
ENDMDL
MODEL 6
REMARK VINA RESULT:      -7.5      5.950      7.767
REMARK  Name = 
REMARK  7 active torsions:
REMARK  status: ('A' for Active; 'I' for Inactive)
REMARK    1  A    between atoms: C_1  and  C_2
REMARK    2  A    between atoms: CA_4  and  C_5
REMARK    3  A    between atoms: C_5  and  OXT_7
REMARK    4  A    between atoms: C_8  and  C_9
REMARK    5  A    between atoms: C_10  and  C_11
REMARK    6  A    between atoms: C_11  and  C_12
REMARK    7  A    between atoms: C_15  and  C_16
REMARK                            x       y       z     vdW  Elec       q    Type
REMARK                         _______ _______ _______ _____ _____    ______ ____
ROOT
ATOM      1  C   UNL     1       3.475   2.823  19.739  0.00  0.00    +0.000 C 
ATOM      2  C   UNL     1       4.309   3.905  19.151  0.00  0.00    +0.000 A 
ATOM      3  N   UNL     1       5.673   3.851  19.238  0.00  0.00    +0.000 N 
ATOM      4  CA  UNL     1       6.259   4.911  18.584  0.00  0.00    +0.000 A 
ATOM      5  C   UNL     1       5.220   5.661  18.043  0.00  0.00    +0.000 A 
ATOM      6  C   UNL     1       5.349   6.873  17.179  0.00  0.00    +0.000 C 
ATOM      7  C   UNL     1       3.972   5.042  18.426  0.00  0.00    +0.000 A 
ATOM      8  H   UNL     1       6.183   3.081  19.653  0.00  0.00    +0.000 HD
ENDROOT
BRANCH   4   9
ATOM      9  C   UNL     1       7.690   5.087  18.443  0.00  0.00    +0.000 C 
ATOM     10  O   UNL     1       8.351   6.014  18.886  0.00  0.00    +0.000 OA
BRANCH   9  11
ATOM     11  OXT UNL     1       8.256   4.082  17.729  0.00  0.00    +0.000 OA
ATOM     12  HXT UNL     1       8.555   4.365  16.848  0.00  0.00    +0.000 HD
ENDBRANCH   9  11
ENDBRANCH   4   9
BRANCH   7  13
ATOM     13  C   UNL     1       2.612   5.489  17.966  0.00  0.00    +0.000 C 
BRANCH  13  14
ATOM     14  C   UNL     1       2.221   6.753  18.696  0.00  0.00    +0.000 A 
ATOM     15  C   UNL     1       2.019   7.959  18.009  0.00  0.00    +0.000 A 
ATOM     16  C   UNL     1       1.532   9.087  18.677  0.00  0.00    +0.000 A 
ATOM     17  C   UNL     1       1.245   9.036  20.049  0.00  0.00    +0.000 A 
ATOM     18  C   UNL     1       1.476   7.844  20.742  0.00  0.00    +0.000 A 
ATOM     19  C   UNL     1       1.951   6.713  20.072  0.00  0.00    +0.000 A 
BRANCH  17  20
ATOM     20  C   UNL     1       0.665  10.225  20.778  0.00  0.00    +0.000 C 
ATOM     21  F   UNL     1       0.695  10.107  22.134  0.00  0.00    +0.000 F 
ATOM     22  F   UNL     1       1.327  11.382  20.492  0.00  0.00    +0.000 F 
ATOM     23  F   UNL     1      -0.638  10.453  20.452  0.00  0.00    +0.000 F 
ENDBRANCH  17  20
ENDBRANCH  13  14
ENDBRANCH   7  13
TORSDOF 5
ENDMDL
MODEL 7
REMARK VINA RESULT:      -7.4      0.302      1.356
REMARK  Name = 
REMARK  7 active torsions:
REMARK  status: ('A' for Active; 'I' for Inactive)
REMARK    1  A    between atoms: C_1  and  C_2
REMARK    2  A    between atoms: CA_4  and  C_5
REMARK    3  A    between atoms: C_5  and  OXT_7
REMARK    4  A    between atoms: C_8  and  C_9
REMARK    5  A    between atoms: C_10  and  C_11
REMARK    6  A    between atoms: C_11  and  C_12
REMARK    7  A    between atoms: C_15  and  C_16
REMARK                            x       y       z     vdW  Elec       q    Type
REMARK                         _______ _______ _______ _____ _____    ______ ____
ROOT
ATOM      1  C   UNL     1       3.102   7.175  17.877  0.00  0.00    +0.000 C 
ATOM      2  C   UNL     1       3.087   5.815  18.480  0.00  0.00    +0.000 A 
ATOM      3  N   UNL     1       1.902   5.230  18.834  0.00  0.00    +0.000 N 
ATOM      4  CA  UNL     1       2.098   3.956  19.316  0.00  0.00    +0.000 A 
ATOM      5  C   UNL     1       3.467   3.717  19.249  0.00  0.00    +0.000 A 
ATOM      6  C   UNL     1       4.170   2.444  19.592  0.00  0.00    +0.000 C 
ATOM      7  C   UNL     1       4.107   4.910  18.744  0.00  0.00    +0.000 A 
ATOM      8  H   UNL     1       0.995   5.650  18.674  0.00  0.00    +0.000 HD
ENDROOT
BRANCH   4   9
ATOM      9  C   UNL     1       1.027   3.061  19.704  0.00  0.00    +0.000 C 
ATOM     10  O   UNL     1       0.334   2.395  18.952  0.00  0.00    +0.000 OA
BRANCH   9  11
ATOM     11  OXT UNL     1       0.851   3.036  21.049  0.00  0.00    +0.000 OA
ATOM     12  HXT UNL     1       0.106   3.586  21.344  0.00  0.00    +0.000 HD
ENDBRANCH   9  11
ENDBRANCH   4   9
BRANCH   7  13
ATOM     13  C   UNL     1       5.573   5.034  18.432  0.00  0.00    +0.000 C 
BRANCH  13  14
ATOM     14  C   UNL     1       5.822   4.623  17.000  0.00  0.00    +0.000 A 
ATOM     15  C   UNL     1       4.884   3.864  16.286  0.00  0.00    +0.000 A 
ATOM     16  C   UNL     1       5.066   3.601  14.924  0.00  0.00    +0.000 A 
ATOM     17  C   UNL     1       6.197   4.084  14.250  0.00  0.00    +0.000 A 
ATOM     18  C   UNL     1       7.150   4.814  14.967  0.00  0.00    +0.000 A 
ATOM     19  C   UNL     1       6.961   5.087  16.325  0.00  0.00    +0.000 A 
BRANCH  17  20
ATOM     20  C   UNL     1       6.386   3.861  12.768  0.00  0.00    +0.000 C 
ATOM     21  F   UNL     1       7.240   4.745  12.182  0.00  0.00    +0.000 F 
ATOM     22  F   UNL     1       6.886   2.624  12.489  0.00  0.00    +0.000 F 
ATOM     23  F   UNL     1       5.219   3.954  12.073  0.00  0.00    +0.000 F 
ENDBRANCH  17  20
ENDBRANCH  13  14
ENDBRANCH   7  13
TORSDOF 5
ENDMDL
MODEL 8
REMARK VINA RESULT:      -7.4      5.852      7.742
REMARK  Name = 
REMARK  7 active torsions:
REMARK  status: ('A' for Active; 'I' for Inactive)
REMARK    1  A    between atoms: C_1  and  C_2
REMARK    2  A    between atoms: CA_4  and  C_5
REMARK    3  A    between atoms: C_5  and  OXT_7
REMARK    4  A    between atoms: C_8  and  C_9
REMARK    5  A    between atoms: C_10  and  C_11
REMARK    6  A    between atoms: C_11  and  C_12
REMARK    7  A    between atoms: C_15  and  C_16
REMARK                            x       y       z     vdW  Elec       q    Type
REMARK                         _______ _______ _______ _____ _____    ______ ____
ROOT
ATOM      1  C   UNL     1       3.328   2.662  19.641  0.00  0.00    +0.000 C 
ATOM      2  C   UNL     1       4.186   3.669  18.960  0.00  0.00    +0.000 A 
ATOM      3  N   UNL     1       5.548   3.550  18.990  0.00  0.00    +0.000 N 
ATOM      4  CA  UNL     1       6.154   4.544  18.256  0.00  0.00    +0.000 A 
ATOM      5  C   UNL     1       5.129   5.318  17.722  0.00  0.00    +0.000 A 
ATOM      6  C   UNL     1       5.275   6.476  16.790  0.00  0.00    +0.000 C 
ATOM      7  C   UNL     1       3.871   4.784  18.192  0.00  0.00    +0.000 A 
ATOM      8  H   UNL     1       6.038   2.777  19.422  0.00  0.00    +0.000 HD
ENDROOT
BRANCH   4   9
ATOM      9  C   UNL     1       7.583   4.640  18.042  0.00  0.00    +0.000 C 
ATOM     10  O   UNL     1       8.190   4.286  17.044  0.00  0.00    +0.000 OA
BRANCH   9  11
ATOM     11  OXT UNL     1       8.220   5.179  19.112  0.00  0.00    +0.000 OA
ATOM     12  HXT UNL     1       7.629   5.326  19.870  0.00  0.00    +0.000 HD
ENDBRANCH   9  11
ENDBRANCH   4   9
BRANCH   7  13
ATOM     13  C   UNL     1       2.514   5.276  17.769  0.00  0.00    +0.000 C 
BRANCH  13  14
ATOM     14  C   UNL     1       2.028   6.321  18.745  0.00  0.00    +0.000 A 
ATOM     15  C   UNL     1       1.679   5.983  20.061  0.00  0.00    +0.000 A 
ATOM     16  C   UNL     1       1.356   6.977  20.991  0.00  0.00    +0.000 A 
ATOM     17  C   UNL     1       1.366   8.330  20.622  0.00  0.00    +0.000 A 
ATOM     18  C   UNL     1       1.682   8.667  19.303  0.00  0.00    +0.000 A 
ATOM     19  C   UNL     1       2.017   7.675  18.377  0.00  0.00    +0.000 A 
BRANCH  17  20
ATOM     20  C   UNL     1       1.075   9.422  21.624  0.00  0.00    +0.000 C 
ATOM     21  F   UNL     1       1.719   9.263  22.814  0.00  0.00    +0.000 F 
ATOM     22  F   UNL     1       1.439  10.654  21.169  0.00  0.00    +0.000 F 
ATOM     23  F   UNL     1      -0.250   9.515  21.926  0.00  0.00    +0.000 F 
ENDBRANCH  17  20
ENDBRANCH  13  14
ENDBRANCH   7  13
TORSDOF 5
ENDMDL
MODEL 9
REMARK VINA RESULT:      -7.3      0.874      1.252
REMARK  Name = 
REMARK  7 active torsions:
REMARK  status: ('A' for Active; 'I' for Inactive)
REMARK    1  A    between atoms: C_1  and  C_2
REMARK    2  A    between atoms: CA_4  and  C_5
REMARK    3  A    between atoms: C_5  and  OXT_7
REMARK    4  A    between atoms: C_8  and  C_9
REMARK    5  A    between atoms: C_10  and  C_11
REMARK    6  A    between atoms: C_11  and  C_12
REMARK    7  A    between atoms: C_15  and  C_16
REMARK                            x       y       z     vdW  Elec       q    Type
REMARK                         _______ _______ _______ _____ _____    ______ ____
ROOT
ATOM      1  C   UNL     1       2.756   7.674  17.956  0.00  0.00    +0.000 C 
ATOM      2  C   UNL     1       2.893   6.287  18.476  0.00  0.00    +0.000 A 
ATOM      3  N   UNL     1       1.784   5.577  18.848  0.00  0.00    +0.000 N 
ATOM      4  CA  UNL     1       2.117   4.301  19.244  0.00  0.00    +0.000 A 
ATOM      5  C   UNL     1       3.497   4.193  19.100  0.00  0.00    +0.000 A 
ATOM      6  C   UNL     1       4.327   2.973  19.335  0.00  0.00    +0.000 C 
ATOM      7  C   UNL     1       4.002   5.466  18.640  0.00  0.00    +0.000 A 
ATOM      8  H   UNL     1       0.836   5.919  18.755  0.00  0.00    +0.000 HD
ENDROOT
BRANCH   4   9
ATOM      9  C   UNL     1       1.152   3.291  19.626  0.00  0.00    +0.000 C 
ATOM     10  O   UNL     1       0.669   2.440  18.896  0.00  0.00    +0.000 OA
BRANCH   9  11
ATOM     11  OXT UNL     1       0.809   3.388  20.935  0.00  0.00    +0.000 OA
ATOM     12  HXT UNL     1      -0.152   3.395  21.076  0.00  0.00    +0.000 HD
ENDBRANCH   9  11
ENDBRANCH   4   9
BRANCH   7  13
ATOM     13  C   UNL     1       5.434   5.741  18.270  0.00  0.00    +0.000 C 
BRANCH  13  14
ATOM     14  C   UNL     1       5.693   5.263  16.861  0.00  0.00    +0.000 A 
ATOM     15  C   UNL     1       6.263   4.006  16.611  0.00  0.00    +0.000 A 
ATOM     16  C   UNL     1       6.378   3.521  15.304  0.00  0.00    +0.000 A 
ATOM     17  C   UNL     1       5.934   4.288  14.217  0.00  0.00    +0.000 A 
ATOM     18  C   UNL     1       5.395   5.555  14.461  0.00  0.00    +0.000 A 
ATOM     19  C   UNL     1       5.269   6.034  15.768  0.00  0.00    +0.000 A 
BRANCH  17  20
ATOM     20  C   UNL     1       5.996   3.761  12.803  0.00  0.00    +0.000 C 
ATOM     21  F   UNL     1       6.284   2.432  12.723  0.00  0.00    +0.000 F 
ATOM     22  F   UNL     1       4.820   3.927  12.135  0.00  0.00    +0.000 F 
ATOM     23  F   UNL     1       6.941   4.393  12.051  0.00  0.00    +0.000 F 
ENDBRANCH  17  20
ENDBRANCH  13  14
ENDBRANCH   7  13
TORSDOF 5
ENDMDL
