MODEL 1
REMARK VINA RESULT:      -7.7      0.000      0.000
REMARK  Name = 
REMARK  4 active torsions:
REMARK  status: ('A' for Active; 'I' for Inactive)
REMARK    1  A    between atoms: C_2  and  C_11
REMARK    2  A    between atoms: N_3  and  C_4
REMARK    3  A    between atoms: C_4  and  C_5
REMARK    4  A    between atoms: C_21  and  O_22
REMARK                            x       y       z     vdW  Elec       q    Type
REMARK                         _______ _______ _______ _____ _____    ______ ____
ROOT
ATOM      1  C   UNL     1       1.269   9.097  19.115  0.00  0.00    +0.000 A 
ATOM      2  C   UNL     1       0.542  10.114  18.529  0.00  0.00    +0.000 A 
ATOM      3  N   UNL     1      -0.327  10.911  19.195  0.00  0.00    +0.000 NA
ATOM      4  C   UNL     1      -0.486  10.750  20.504  0.00  0.00    +0.000 A 
ATOM      5  N   UNL     1      -1.326  11.590  21.102  0.00  0.00    +0.000 NA
ATOM      6  C   UNL     1      -1.504  11.509  22.431  0.00  0.00    +0.000 A 
ATOM      7 BR   UNL     1      -2.691  12.748  23.241  0.00  0.00    +0.000 Br
ATOM      8  C   UNL     1      -0.868  10.582  23.229  0.00  0.00    +0.000 A 
ATOM      9  C   UNL     1      -0.007   9.683  22.613  0.00  0.00    +0.000 A 
ATOM     10  C   UNL     1       0.214   9.750  21.218  0.00  0.00    +0.000 A 
ATOM     11  C   UNL     1       1.090   8.904  20.484  0.00  0.00    +0.000 A 
ENDROOT
BRANCH   1  13
ATOM     12  O   UNL     1       2.698   8.905  17.269  0.00  0.00    +0.000 OA
ATOM     13  C   UNL     1       2.205   8.345  18.244  0.00  0.00    +0.000 C 
ATOM     14  N   UNL     1       2.457   7.037  18.571  0.00  0.00    +0.000 N 
ATOM     15  H   UNL     1       2.122   6.692  19.465  0.00  0.00    +0.000 HD
BRANCH  14  16
ATOM     16  C   UNL     1       3.423   6.249  17.843  0.00  0.00    +0.000 C 
BRANCH  16  17
ATOM     17  C   UNL     1       3.078   4.786  17.896  0.00  0.00    +0.000 A 
ATOM     18  C   UNL     1       1.761   4.381  18.158  0.00  0.00    +0.000 A 
ATOM     19  C   UNL     1       1.435   3.025  18.221  0.00  0.00    +0.000 A 
ATOM     20  C   UNL     1       2.426   2.060  18.034  0.00  0.00    +0.000 A 
ATOM     21  C   UNL     1       3.739   2.452  17.782  0.00  0.00    +0.000 A 
ATOM     22  C   UNL     1       4.066   3.808  17.716  0.00  0.00    +0.000 A 
ENDBRANCH  16  17
ENDBRANCH  14  16
ENDBRANCH   1  13
BRANCH  11  23
ATOM     23  O   UNL     1       1.796   7.894  21.093  0.00  0.00    +0.000 OA
ATOM     24  H   UNL     1       2.183   7.297  20.434  0.00  0.00    +0.000 HD
ENDBRANCH  11  23
TORSDOF 4
ENDMDL
MODEL 2
REMARK VINA RESULT:      -7.7      0.126      1.037
REMARK  Name = 
REMARK  4 active torsions:
REMARK  status: ('A' for Active; 'I' for Inactive)
REMARK    1  A    between atoms: C_2  and  C_11
REMARK    2  A    between atoms: N_3  and  C_4
REMARK    3  A    between atoms: C_4  and  C_5
REMARK    4  A    between atoms: C_21  and  O_22
REMARK                            x       y       z     vdW  Elec       q    Type
REMARK                         _______ _______ _______ _____ _____    ______ ____
ROOT
ATOM      1  C   UNL     1       1.288   9.049  19.143  0.00  0.00    +0.000 A 
ATOM      2  C   UNL     1       0.590  10.078  18.542  0.00  0.00    +0.000 A 
ATOM      3  N   UNL     1      -0.270  10.897  19.192  0.00  0.00    +0.000 NA
ATOM      4  C   UNL     1      -0.450  10.747  20.500  0.00  0.00    +0.000 A 
ATOM      5  N   UNL     1      -1.280  11.608  21.082  0.00  0.00    +0.000 NA
ATOM      6  C   UNL     1      -1.478  11.538  22.409  0.00  0.00    +0.000 A 
ATOM      7 BR   UNL     1      -2.648  12.806  23.196  0.00  0.00    +0.000 Br
ATOM      8  C   UNL     1      -0.872  10.601  23.220  0.00  0.00    +0.000 A 
ATOM      9  C   UNL     1      -0.023   9.680  22.620  0.00  0.00    +0.000 A 
ATOM     10  C   UNL     1       0.218   9.736  21.228  0.00  0.00    +0.000 A 
ATOM     11  C   UNL     1       1.086   8.867  20.510  0.00  0.00    +0.000 A 
ENDROOT
BRANCH   1  13
ATOM     12  O   UNL     1       2.797   8.836  17.364  0.00  0.00    +0.000 OA
ATOM     13  C   UNL     1       2.218   8.273  18.289  0.00  0.00    +0.000 C 
ATOM     14  N   UNL     1       2.370   6.939  18.572  0.00  0.00    +0.000 N 
ATOM     15  H   UNL     1       1.967   6.581  19.432  0.00  0.00    +0.000 HD
BRANCH  14  16
ATOM     16  C   UNL     1       3.322   6.119  17.860  0.00  0.00    +0.000 C 
BRANCH  16  17
ATOM     17  C   UNL     1       2.977   4.659  17.983  0.00  0.00    +0.000 A 
ATOM     18  C   UNL     1       3.953   3.682  17.739  0.00  0.00    +0.000 A 
ATOM     19  C   UNL     1       3.639   2.325  17.838  0.00  0.00    +0.000 A 
ATOM     20  C   UNL     1       2.342   1.933  18.173  0.00  0.00    +0.000 A 
ATOM     21  C   UNL     1       1.363   2.896  18.408  0.00  0.00    +0.000 A 
ATOM     22  C   UNL     1       1.677   4.253  18.312  0.00  0.00    +0.000 A 
ENDBRANCH  16  17
ENDBRANCH  14  16
ENDBRANCH   1  13
BRANCH  11  23
ATOM     23  O   UNL     1       1.762   7.845  21.134  0.00  0.00    +0.000 OA
ATOM     24  H   UNL     1       2.347   8.191  21.825  0.00  0.00    +0.000 HD
ENDBRANCH  11  23
TORSDOF 4
ENDMDL
MODEL 3
REMARK VINA RESULT:      -7.6      1.921      2.820
REMARK  Name = 
REMARK  4 active torsions:
REMARK  status: ('A' for Active; 'I' for Inactive)
REMARK    1  A    between atoms: C_2  and  C_11
REMARK    2  A    between atoms: N_3  and  C_4
REMARK    3  A    between atoms: C_4  and  C_5
REMARK    4  A    between atoms: C_21  and  O_22
REMARK                            x       y       z     vdW  Elec       q    Type
REMARK                         _______ _______ _______ _____ _____    ______ ____
ROOT
ATOM      1  C   UNL     1       1.729   8.538  18.863  0.00  0.00    +0.000 A 
ATOM      2  C   UNL     1       1.067   9.627  18.333  0.00  0.00    +0.000 A 
ATOM      3  N   UNL     1       0.250  10.441  19.042  0.00  0.00    +0.000 NA
ATOM      4  C   UNL     1       0.081  10.222  20.342  0.00  0.00    +0.000 A 
ATOM      5  N   UNL     1      -0.705  11.081  20.985  0.00  0.00    +0.000 NA
ATOM      6  C   UNL     1      -0.889  10.941  22.309  0.00  0.00    +0.000 A 
ATOM      7 BR   UNL     1      -1.996  12.208  23.185  0.00  0.00    +0.000 Br
ATOM      8  C   UNL     1      -0.312   9.936  23.055  0.00  0.00    +0.000 A 
ATOM      9  C   UNL     1       0.491   9.018  22.390  0.00  0.00    +0.000 A 
ATOM     10  C   UNL     1       0.716   9.144  21.000  0.00  0.00    +0.000 A 
ATOM     11  C   UNL     1       1.538   8.284  20.220  0.00  0.00    +0.000 A 
ENDROOT
BRANCH   1  13
ATOM     12  O   UNL     1       3.026   8.311  16.924  0.00  0.00    +0.000 OA
ATOM     13  C   UNL     1       2.616   7.775  17.951  0.00  0.00    +0.000 C 
ATOM     14  N   UNL     1       2.919   6.484  18.300  0.00  0.00    +0.000 N 
ATOM     15  H   UNL     1       2.657   6.162  19.227  0.00  0.00    +0.000 HD
BRANCH  14  16
ATOM     16  C   UNL     1       3.849   5.691  17.530  0.00  0.00    +0.000 C 
BRANCH  16  17
ATOM     17  C   UNL     1       5.267   5.950  17.960  0.00  0.00    +0.000 A 
ATOM     18  C   UNL     1       6.079   6.823  17.220  0.00  0.00    +0.000 A 
ATOM     19  C   UNL     1       7.401   7.059  17.605  0.00  0.00    +0.000 A 
ATOM     20  C   UNL     1       7.926   6.415  18.727  0.00  0.00    +0.000 A 
ATOM     21  C   UNL     1       7.130   5.539  19.462  0.00  0.00    +0.000 A 
ATOM     22  C   UNL     1       5.807   5.304  19.080  0.00  0.00    +0.000 A 
ENDBRANCH  16  17
ENDBRANCH  14  16
ENDBRANCH   1  13
BRANCH  11  23
ATOM     23  O   UNL     1       2.179   7.201  20.774  0.00  0.00    +0.000 OA
ATOM     24  H   UNL     1       1.549   6.491  20.969  0.00  0.00    +0.000 HD
ENDBRANCH  11  23
TORSDOF 4
ENDMDL
MODEL 4
REMARK VINA RESULT:      -7.6      1.914      2.768
REMARK  Name = 
REMARK  4 active torsions:
REMARK  status: ('A' for Active; 'I' for Inactive)
REMARK    1  A    between atoms: C_2  and  C_11
REMARK    2  A    between atoms: N_3  and  C_4
REMARK    3  A    between atoms: C_4  and  C_5
REMARK    4  A    between atoms: C_21  and  O_22
REMARK                            x       y       z     vdW  Elec       q    Type
REMARK                         _______ _______ _______ _____ _____    ______ ____
ROOT
ATOM      1  C   UNL     1       1.768   8.527  18.823  0.00  0.00    +0.000 A 
ATOM      2  C   UNL     1       1.073   9.597  18.293  0.00  0.00    +0.000 A 
ATOM      3  N   UNL     1       0.244  10.395  19.005  0.00  0.00    +0.000 NA
ATOM      4  C   UNL     1       0.094  10.182  20.308  0.00  0.00    +0.000 A 
ATOM      5  N   UNL     1      -0.705  11.026  20.954  0.00  0.00    +0.000 NA
ATOM      6  C   UNL     1      -0.871  10.892  22.280  0.00  0.00    +0.000 A 
ATOM      7 BR   UNL     1      -1.999  12.138  23.160  0.00  0.00    +0.000 Br
ATOM      8  C   UNL     1      -0.262   9.907  23.028  0.00  0.00    +0.000 A 
ATOM      9  C   UNL     1       0.556   9.004  22.361  0.00  0.00    +0.000 A 
ATOM     10  C   UNL     1       0.763   9.125  20.967  0.00  0.00    +0.000 A 
ATOM     11  C   UNL     1       1.597   8.280  20.184  0.00  0.00    +0.000 A 
ENDROOT
BRANCH   1  13
ATOM     12  O   UNL     1       3.144   8.356  16.935  0.00  0.00    +0.000 OA
ATOM     13  C   UNL     1       2.663   7.780  17.907  0.00  0.00    +0.000 C 
ATOM     14  N   UNL     1       2.893   6.458  18.190  0.00  0.00    +0.000 N 
ATOM     15  H   UNL     1       2.573   6.094  19.082  0.00  0.00    +0.000 HD
BRANCH  14  16
ATOM     16  C   UNL     1       3.822   5.670  17.415  0.00  0.00    +0.000 C 
BRANCH  16  17
ATOM     17  C   UNL     1       5.237   5.899  17.871  0.00  0.00    +0.000 A 
ATOM     18  C   UNL     1       5.692   5.330  19.070  0.00  0.00    +0.000 A 
ATOM     19  C   UNL     1       7.000   5.548  19.508  0.00  0.00    +0.000 A 
ATOM     20  C   UNL     1       7.863   6.347  18.755  0.00  0.00    +0.000 A 
ATOM     21  C   UNL     1       7.418   6.924  17.568  0.00  0.00    +0.000 A 
ATOM     22  C   UNL     1       6.110   6.704  17.128  0.00  0.00    +0.000 A 
ENDBRANCH  16  17
ENDBRANCH  14  16
ENDBRANCH   1  13
BRANCH  11  23
ATOM     23  O   UNL     1       2.271   7.217  20.739  0.00  0.00    +0.000 OA
ATOM     24  H   UNL     1       2.078   6.398  20.257  0.00  0.00    +0.000 HD
ENDBRANCH  11  23
TORSDOF 4
ENDMDL
MODEL 5
REMARK VINA RESULT:      -7.6      1.724      2.417
REMARK  Name = 
REMARK  4 active torsions:
REMARK  status: ('A' for Active; 'I' for Inactive)
REMARK    1  A    between atoms: C_2  and  C_11
REMARK    2  A    between atoms: N_3  and  C_4
REMARK    3  A    between atoms: C_4  and  C_5
REMARK    4  A    between atoms: C_21  and  O_22
REMARK                            x       y       z     vdW  Elec       q    Type
REMARK                         _______ _______ _______ _____ _____    ______ ____
ROOT
ATOM      1  C   UNL     1       0.909   9.330  20.624  0.00  0.00    +0.000 A 
ATOM      2  C   UNL     1       1.041   9.333  21.999  0.00  0.00    +0.000 A 
ATOM      3  N   UNL     1       0.361  10.160  22.827  0.00  0.00    +0.000 NA
ATOM      4  C   UNL     1      -0.523  11.011  22.317  0.00  0.00    +0.000 A 
ATOM      5  N   UNL     1      -1.183  11.767  23.190  0.00  0.00    +0.000 NA
ATOM      6  C   UNL     1      -2.119  12.621  22.746  0.00  0.00    +0.000 A 
ATOM      7 BR   UNL     1      -3.052  13.656  24.033  0.00  0.00    +0.000 Br
ATOM      8  C   UNL     1      -2.437  12.777  21.414  0.00  0.00    +0.000 A 
ATOM      9  C   UNL     1      -1.737  12.011  20.490  0.00  0.00    +0.000 A 
ATOM     10  C   UNL     1      -0.755  11.091  20.925  0.00  0.00    +0.000 A 
ATOM     11  C   UNL     1       0.003  10.237  20.077  0.00  0.00    +0.000 A 
ENDROOT
BRANCH   1  13
ATOM     12  O   UNL     1       1.945   8.527  18.682  0.00  0.00    +0.000 OA
ATOM     13  C   UNL     1       1.704   8.331  19.870  0.00  0.00    +0.000 C 
ATOM     14  N   UNL     1       2.118   7.213  20.548  0.00  0.00    +0.000 N 
ATOM     15  H   UNL     1       1.999   7.190  21.556  0.00  0.00    +0.000 HD
BRANCH  14  16
ATOM     16  C   UNL     1       2.975   6.228  19.931  0.00  0.00    +0.000 C 
BRANCH  16  17
ATOM     17  C   UNL     1       2.209   4.977  19.596  0.00  0.00    +0.000 A 
ATOM     18  C   UNL     1       1.605   4.227  20.616  0.00  0.00    +0.000 A 
ATOM     19  C   UNL     1       0.904   3.058  20.315  0.00  0.00    +0.000 A 
ATOM     20  C   UNL     1       0.809   2.622  18.992  0.00  0.00    +0.000 A 
ATOM     21  C   UNL     1       1.413   3.355  17.974  0.00  0.00    +0.000 A 
ATOM     22  C   UNL     1       2.113   4.527  18.273  0.00  0.00    +0.000 A 
ENDBRANCH  16  17
ENDBRANCH  14  16
ENDBRANCH   1  13
BRANCH  11  23
ATOM     23  O   UNL     1      -0.144  10.262  18.710  0.00  0.00    +0.000 OA
ATOM     24  H   UNL     1      -0.898   9.718  18.436  0.00  0.00    +0.000 HD
ENDBRANCH  11  23
TORSDOF 4
ENDMDL
MODEL 6
REMARK VINA RESULT:      -7.4      3.496      4.754
REMARK  Name = 
REMARK  4 active torsions:
REMARK  status: ('A' for Active; 'I' for Inactive)
REMARK    1  A    between atoms: C_2  and  C_11
REMARK    2  A    between atoms: N_3  and  C_4
REMARK    3  A    between atoms: C_4  and  C_5
REMARK    4  A    between atoms: C_21  and  O_22
REMARK                            x       y       z     vdW  Elec       q    Type
REMARK                         _______ _______ _______ _____ _____    ______ ____
ROOT
ATOM      1  C   UNL     1       3.753   6.245  18.195  0.00  0.00    +0.000 A 
ATOM      2  C   UNL     1       3.587   7.265  17.279  0.00  0.00    +0.000 A 
ATOM      3  N   UNL     1       2.772   8.330  17.465  0.00  0.00    +0.000 NA
ATOM      4  C   UNL     1       2.103   8.447  18.606  0.00  0.00    +0.000 A 
ATOM      5  N   UNL     1       1.350   9.536  18.737  0.00  0.00    +0.000 NA
ATOM      6  C   UNL     1       0.677   9.737  19.882  0.00  0.00    +0.000 A 
ATOM      7 BR   UNL     1      -0.360  11.319  20.031  0.00  0.00    +0.000 Br
ATOM      8  C   UNL     1       0.706   8.861  20.947  0.00  0.00    +0.000 A 
ATOM      9  C   UNL     1       1.468   7.708  20.812  0.00  0.00    +0.000 A 
ATOM     10  C   UNL     1       2.201   7.473  19.626  0.00  0.00    +0.000 A 
ATOM     11  C   UNL     1       3.035   6.346  19.385  0.00  0.00    +0.000 A 
ENDROOT
BRANCH   1  13
ATOM     12  O   UNL     1       5.212   4.496  18.743  0.00  0.00    +0.000 OA
ATOM     13  C   UNL     1       4.715   5.172  17.846  0.00  0.00    +0.000 C 
ATOM     14  N   UNL     1       5.017   5.003  16.519  0.00  0.00    +0.000 N 
ATOM     15  H   UNL     1       4.463   5.506  15.832  0.00  0.00    +0.000 HD
BRANCH  14  16
ATOM     16  C   UNL     1       5.868   3.927  16.068  0.00  0.00    +0.000 C 
BRANCH  16  17
ATOM     17  C   UNL     1       6.336   4.162  14.657  0.00  0.00    +0.000 A 
ATOM     18  C   UNL     1       5.753   3.455  13.595  0.00  0.00    +0.000 A 
ATOM     19  C   UNL     1       6.190   3.656  12.284  0.00  0.00    +0.000 A 
ATOM     20  C   UNL     1       7.222   4.560  12.025  0.00  0.00    +0.000 A 
ATOM     21  C   UNL     1       7.813   5.260  13.074  0.00  0.00    +0.000 A 
ATOM     22  C   UNL     1       7.375   5.061  14.386  0.00  0.00    +0.000 A 
ENDBRANCH  16  17
ENDBRANCH  14  16
ENDBRANCH   1  13
BRANCH  11  23
ATOM     23  O   UNL     1       3.175   5.341  20.314  0.00  0.00    +0.000 OA
ATOM     24  H   UNL     1       2.651   4.565  20.063  0.00  0.00    +0.000 HD
ENDBRANCH  11  23
TORSDOF 4
ENDMDL
MODEL 7
REMARK VINA RESULT:      -7.4      3.432      4.735
REMARK  Name = 
REMARK  4 active torsions:
REMARK  status: ('A' for Active; 'I' for Inactive)
REMARK    1  A    between atoms: C_2  and  C_11
REMARK    2  A    between atoms: N_3  and  C_4
REMARK    3  A    between atoms: C_4  and  C_5
REMARK    4  A    between atoms: C_21  and  O_22
REMARK                            x       y       z     vdW  Elec       q    Type
REMARK                         _______ _______ _______ _____ _____    ______ ____
ROOT
ATOM      1  C   UNL     1       3.730   6.285  18.178  0.00  0.00    +0.000 A 
ATOM      2  C   UNL     1       3.537   7.309  17.271  0.00  0.00    +0.000 A 
ATOM      3  N   UNL     1       2.708   8.360  17.475  0.00  0.00    +0.000 NA
ATOM      4  C   UNL     1       2.050   8.458  18.625  0.00  0.00    +0.000 A 
ATOM      5  N   UNL     1       1.283   9.534  18.773  0.00  0.00    +0.000 NA
ATOM      6  C   UNL     1       0.620   9.716  19.928  0.00  0.00    +0.000 A 
ATOM      7 BR   UNL     1      -0.439  11.280  20.101  0.00  0.00    +0.000 Br
ATOM      8  C   UNL     1       0.676   8.832  20.985  0.00  0.00    +0.000 A 
ATOM      9  C   UNL     1       1.454   7.692  20.832  0.00  0.00    +0.000 A 
ATOM     10  C   UNL     1       2.176   7.478  19.636  0.00  0.00    +0.000 A 
ATOM     11  C   UNL     1       3.024   6.365  19.377  0.00  0.00    +0.000 A 
ENDROOT
BRANCH   1  13
ATOM     12  O   UNL     1       5.431   4.753  18.677  0.00  0.00    +0.000 OA
ATOM     13  C   UNL     1       4.704   5.229  17.809  0.00  0.00    +0.000 C 
ATOM     14  N   UNL     1       4.755   4.851  16.491  0.00  0.00    +0.000 N 
ATOM     15  H   UNL     1       4.031   5.190  15.865  0.00  0.00    +0.000 HD
BRANCH  14  16
ATOM     16  C   UNL     1       5.600   3.768  16.048  0.00  0.00    +0.000 C 
BRANCH  16  17
ATOM     17  C   UNL     1       6.184   4.057  14.692  0.00  0.00    +0.000 A 
ATOM     18  C   UNL     1       7.224   4.988  14.557  0.00  0.00    +0.000 A 
ATOM     19  C   UNL     1       7.763   5.273  13.300  0.00  0.00    +0.000 A 
ATOM     20  C   UNL     1       7.259   4.635  12.165  0.00  0.00    +0.000 A 
ATOM     21  C   UNL     1       6.220   3.715  12.288  0.00  0.00    +0.000 A 
ATOM     22  C   UNL     1       5.682   3.428  13.545  0.00  0.00    +0.000 A 
ENDBRANCH  16  17
ENDBRANCH  14  16
ENDBRANCH   1  13
BRANCH  11  23
ATOM     23  O   UNL     1       3.191   5.356  20.296  0.00  0.00    +0.000 OA
ATOM     24  H   UNL     1       2.333   5.014  20.591  0.00  0.00    +0.000 HD
ENDBRANCH  11  23
TORSDOF 4
ENDMDL
MODEL 8
REMARK VINA RESULT:      -7.4      5.658      8.392
REMARK  Name = 
REMARK  4 active torsions:
REMARK  status: ('A' for Active; 'I' for Inactive)
REMARK    1  A    between atoms: C_2  and  C_11
REMARK    2  A    between atoms: N_3  and  C_4
REMARK    3  A    between atoms: C_4  and  C_5
REMARK    4  A    between atoms: C_21  and  O_22
REMARK                            x       y       z     vdW  Elec       q    Type
REMARK                         _______ _______ _______ _____ _____    ______ ____
ROOT
ATOM      1  C   UNL     1       6.218   6.396  17.999  0.00  0.00    +0.000 A 
ATOM      2  C   UNL     1       6.562   5.599  19.073  0.00  0.00    +0.000 A 
ATOM      3  N   UNL     1       5.697   4.787  19.727  0.00  0.00    +0.000 NA
ATOM      4  C   UNL     1       4.438   4.705  19.310  0.00  0.00    +0.000 A 
ATOM      5  N   UNL     1       3.653   3.862  19.973  0.00  0.00    +0.000 NA
ATOM      6  C   UNL     1       2.378   3.700  19.580  0.00  0.00    +0.000 A 
ATOM      7 BR   UNL     1       1.307   2.464  20.540  0.00  0.00    +0.000 Br
ATOM      8  C   UNL     1       1.818   4.379  18.518  0.00  0.00    +0.000 A 
ATOM      9  C   UNL     1       2.621   5.282  17.833  0.00  0.00    +0.000 A 
ATOM     10  C   UNL     1       3.971   5.464  18.212  0.00  0.00    +0.000 A 
ATOM     11  C   UNL     1       4.893   6.337  17.571  0.00  0.00    +0.000 A 
ENDROOT
BRANCH   1  13
ATOM     12  O   UNL     1       7.839   6.786  16.353  0.00  0.00    +0.000 OA
ATOM     13  C   UNL     1       7.300   7.197  17.377  0.00  0.00    +0.000 C 
ATOM     14  N   UNL     1       7.660   8.364  18.002  0.00  0.00    +0.000 N 
ATOM     15  H   UNL     1       7.077   8.702  18.761  0.00  0.00    +0.000 HD
BRANCH  14  16
ATOM     16  C   UNL     1       8.635   9.260  17.426  0.00  0.00    +0.000 C 
BRANCH  16  17
ATOM     17  C   UNL     1       8.937  10.402  18.359  0.00  0.00    +0.000 A 
ATOM     18  C   UNL     1       8.890  11.724  17.893  0.00  0.00    +0.000 A 
ATOM     19  C   UNL     1       9.183  12.788  18.748  0.00  0.00    +0.000 A 
ATOM     20  C   UNL     1       9.536  12.539  20.076  0.00  0.00    +0.000 A 
ATOM     21  C   UNL     1       9.594  11.229  20.545  0.00  0.00    +0.000 A 
ATOM     22  C   UNL     1       9.300  10.163  19.692  0.00  0.00    +0.000 A 
ENDBRANCH  16  17
ENDBRANCH  14  16
ENDBRANCH   1  13
BRANCH  11  23
ATOM     23  O   UNL     1       4.520   7.125  16.507  0.00  0.00    +0.000 OA
ATOM     24  H   UNL     1       3.554   7.175  16.438  0.00  0.00    +0.000 HD
ENDBRANCH  11  23
TORSDOF 4
ENDMDL
MODEL 9
REMARK VINA RESULT:      -7.4      5.650      8.386
REMARK  Name = 
REMARK  4 active torsions:
REMARK  status: ('A' for Active; 'I' for Inactive)
REMARK    1  A    between atoms: C_2  and  C_11
REMARK    2  A    between atoms: N_3  and  C_4
REMARK    3  A    between atoms: C_4  and  C_5
REMARK    4  A    between atoms: C_21  and  O_22
REMARK                            x       y       z     vdW  Elec       q    Type
REMARK                         _______ _______ _______ _____ _____    ______ ____
ROOT
ATOM      1  C   UNL     1       6.206   6.396  17.991  0.00  0.00    +0.000 A 
ATOM      2  C   UNL     1       6.552   5.595  19.061  0.00  0.00    +0.000 A 
ATOM      3  N   UNL     1       5.687   4.784  19.715  0.00  0.00    +0.000 NA
ATOM      4  C   UNL     1       4.427   4.706  19.302  0.00  0.00    +0.000 A 
ATOM      5  N   UNL     1       3.641   3.863  19.966  0.00  0.00    +0.000 NA
ATOM      6  C   UNL     1       2.365   3.707  19.577  0.00  0.00    +0.000 A 
ATOM      7 BR   UNL     1       1.294   2.471  20.538  0.00  0.00    +0.000 Br
ATOM      8  C   UNL     1       1.803   4.390  18.519  0.00  0.00    +0.000 A 
ATOM      9  C   UNL     1       2.606   5.293  17.834  0.00  0.00    +0.000 A 
ATOM     10  C   UNL     1       3.958   5.470  18.209  0.00  0.00    +0.000 A 
ATOM     11  C   UNL     1       4.880   6.342  17.567  0.00  0.00    +0.000 A 
ENDROOT
BRANCH   1  13
ATOM     12  O   UNL     1       7.835   6.777  16.350  0.00  0.00    +0.000 OA
ATOM     13  C   UNL     1       7.289   7.196  17.367  0.00  0.00    +0.000 C 
ATOM     14  N   UNL     1       7.640   8.370  17.983  0.00  0.00    +0.000 N 
ATOM     15  H   UNL     1       7.051   8.713  18.736  0.00  0.00    +0.000 HD
BRANCH  14  16
ATOM     16  C   UNL     1       8.614   9.265  17.404  0.00  0.00    +0.000 C 
BRANCH  16  17
ATOM     17  C   UNL     1       8.935  10.396  18.343  0.00  0.00    +0.000 A 
ATOM     18  C   UNL     1       9.275  10.130  19.678  0.00  0.00    +0.000 A 
ATOM     19  C   UNL     1       9.561  11.174  20.559  0.00  0.00    +0.000 A 
ATOM     20  C   UNL     1       9.499  12.496  20.117  0.00  0.00    +0.000 A 
ATOM     21  C   UNL     1       9.153  12.772  18.796  0.00  0.00    +0.000 A 
ATOM     22  C   UNL     1       8.869  11.728  17.912  0.00  0.00    +0.000 A 
ENDBRANCH  16  17
ENDBRANCH  14  16
ENDBRANCH   1  13
BRANCH  11  23
ATOM     23  O   UNL     1       4.505   7.135  16.507  0.00  0.00    +0.000 OA
ATOM     24  H   UNL     1       4.134   6.598  15.790  0.00  0.00    +0.000 HD
ENDBRANCH  11  23
TORSDOF 4
ENDMDL
