MODEL 1
REMARK VINA RESULT:      -7.6      0.000      0.000
REMARK  Name = 
REMARK  6 active torsions:
REMARK  status: ('A' for Active; 'I' for Inactive)
REMARK    1  A    between atoms: C_1  and  C_2
REMARK    2  A    between atoms: C_2  and  N_3
REMARK    3  A    between atoms: C_7  and  C_8
REMARK    4  A    between atoms: C_8  and  O_9
REMARK    5  A    between atoms: O_9  and  C_10
REMARK    6  A    between atoms: N_21  and  C_22
REMARK                            x       y       z     vdW  Elec       q    Type
REMARK                         _______ _______ _______ _____ _____    ______ ____
ROOT
ATOM      1  N   UNL     1      -0.515  10.904  18.945  0.00  0.00    +0.000 N 
ATOM      2  C   UNL     1       0.402   9.852  18.903  0.00  0.00    +0.000 A 
ATOM      3  N   UNL     1       1.247   9.743  17.841  0.00  0.00    +0.000 NA
ATOM      4  C   UNL     1       2.208   8.783  17.870  0.00  0.00    +0.000 A 
ATOM      5  C   UNL     1       2.352   7.862  18.895  0.00  0.00    +0.000 A 
ATOM      6  C   UNL     1       1.423   7.921  19.925  0.00  0.00    +0.000 A 
ATOM      7  C   UNL     1       0.481   8.949  19.944  0.00  0.00    +0.000 A 
ATOM      8  C   UNL     1      -0.367   9.058  21.125  0.00  0.00    +0.000 C 
ATOM      9  O   UNL     1      -0.902   8.032  21.544  0.00  0.00    +0.000 OA
ATOM     10  N   UNL     1      -0.238  10.225  21.871  0.00  0.00    +0.000 N 
ATOM     11  C   UNL     1      -0.122  10.020  23.305  0.00  0.00    +0.000 C 
ATOM     12  C   UNL     1      -0.370  11.559  21.334  0.00  0.00    +0.000 A 
ATOM     13  C   UNL     1      -0.366  12.648  22.229  0.00  0.00    +0.000 A 
ATOM     14  C   UNL     1      -0.617  13.943  21.793  0.00  0.00    +0.000 A 
ATOM     15  C   UNL     1      -0.897  14.116  20.461  0.00  0.00    +0.000 A 
ATOM     16 CL   UNL     1      -1.214  15.675  19.823  0.00  0.00    +0.000 Cl
ATOM     17  N   UNL     1      -0.925  13.120  19.561  0.00  0.00    +0.000 NA
ATOM     18  C   UNL     1      -0.629  11.854  19.968  0.00  0.00    +0.000 A 
ENDROOT
BRANCH   1  20
ATOM     19  C   UNL     1      -2.483   9.986  17.857  0.00  0.00    +0.000 C 
ATOM     20  C   UNL     1      -1.373  11.036  17.770  0.00  0.00    +0.000 C 
ENDBRANCH   1  20
BRANCH   5  21
ATOM     21  C   UNL     1       3.477   6.873  18.952  0.00  0.00    +0.000 C 
BRANCH  21  22
ATOM     22  O   UNL     1       3.152   5.730  18.165  0.00  0.00    +0.000 OA
BRANCH  22  23
ATOM     23  C   UNL     1       2.518   4.730  18.862  0.00  0.00    +0.000 A 
ATOM     24  C   UNL     1       2.880   4.603  20.208  0.00  0.00    +0.000 A 
ATOM     25  C   UNL     1       2.290   3.624  21.012  0.00  0.00    +0.000 A 
ATOM     26  C   UNL     1       1.342   2.760  20.472  0.00  0.00    +0.000 A 
ATOM     27  C   UNL     1       1.010   2.870  19.127  0.00  0.00    +0.000 A 
ATOM     28  F   UNL     1       0.112   2.030  18.598  0.00  0.00    +0.000 F 
ATOM     29  C   UNL     1       1.593   3.840  18.318  0.00  0.00    +0.000 A 
ENDBRANCH  22  23
ENDBRANCH  21  22
ENDBRANCH   5  21
TORSDOF 4
ENDMDL
MODEL 2
REMARK VINA RESULT:      -7.6      2.710      4.131
REMARK  Name = 
REMARK  6 active torsions:
REMARK  status: ('A' for Active; 'I' for Inactive)
REMARK    1  A    between atoms: C_1  and  C_2
REMARK    2  A    between atoms: C_2  and  N_3
REMARK    3  A    between atoms: C_7  and  C_8
REMARK    4  A    between atoms: C_8  and  O_9
REMARK    5  A    between atoms: O_9  and  C_10
REMARK    6  A    between atoms: N_21  and  C_22
REMARK                            x       y       z     vdW  Elec       q    Type
REMARK                         _______ _______ _______ _____ _____    ______ ____
ROOT
ATOM      1  N   UNL     1      -1.622  12.438  22.162  0.00  0.00    +0.000 N 
ATOM      2  C   UNL     1      -0.769  11.353  21.950  0.00  0.00    +0.000 A 
ATOM      3  N   UNL     1      -0.414  10.565  23.003  0.00  0.00    +0.000 NA
ATOM      4  C   UNL     1       0.323   9.450  22.762  0.00  0.00    +0.000 A 
ATOM      5  C   UNL     1       0.790   9.086  21.508  0.00  0.00    +0.000 A 
ATOM      6  C   UNL     1       0.505   9.949  20.459  0.00  0.00    +0.000 A 
ATOM      7  C   UNL     1      -0.315  11.055  20.681  0.00  0.00    +0.000 A 
ATOM      8  C   UNL     1      -0.711  11.839  19.517  0.00  0.00    +0.000 C 
ATOM      9  O   UNL     1       0.166  12.159  18.715  0.00  0.00    +0.000 OA
ATOM     10  N   UNL     1      -2.072  11.875  19.233  0.00  0.00    +0.000 N 
ATOM     11  C   UNL     1      -2.408  11.641  17.837  0.00  0.00    +0.000 C 
ATOM     12  C   UNL     1      -3.094  12.272  20.171  0.00  0.00    +0.000 A 
ATOM     13  C   UNL     1      -4.419  12.407  19.706  0.00  0.00    +0.000 A 
ATOM     14  C   UNL     1      -5.424  12.908  20.524  0.00  0.00    +0.000 A 
ATOM     15  C   UNL     1      -5.071  13.292  21.793  0.00  0.00    +0.000 A 
ATOM     16 CL   UNL     1      -6.239  13.916  22.882  0.00  0.00    +0.000 Cl
ATOM     17  N   UNL     1      -3.828  13.195  22.292  0.00  0.00    +0.000 NA
ATOM     18  C   UNL     1      -2.846  12.657  21.515  0.00  0.00    +0.000 A 
ENDROOT
BRANCH   1  20
ATOM     19  C   UNL     1      -0.426  14.516  22.547  0.00  0.00    +0.000 C 
ATOM     20  C   UNL     1      -1.203  13.373  23.203  0.00  0.00    +0.000 C 
ENDBRANCH   1  20
BRANCH   5  21
ATOM     21  C   UNL     1       1.520   7.803  21.251  0.00  0.00    +0.000 C 
BRANCH  21  22
ATOM     22  O   UNL     1       2.071   7.818  19.937  0.00  0.00    +0.000 OA
BRANCH  22  23
ATOM     23  C   UNL     1       2.375   6.574  19.440  0.00  0.00    +0.000 A 
ATOM     24  C   UNL     1       1.935   5.489  20.207  0.00  0.00    +0.000 A 
ATOM     25  C   UNL     1       2.182   4.178  19.790  0.00  0.00    +0.000 A 
ATOM     26  C   UNL     1       2.880   3.945  18.608  0.00  0.00    +0.000 A 
ATOM     27  C   UNL     1       3.342   5.026  17.868  0.00  0.00    +0.000 A 
ATOM     28  F   UNL     1       4.030   4.808  16.740  0.00  0.00    +0.000 F 
ATOM     29  C   UNL     1       3.103   6.335  18.275  0.00  0.00    +0.000 A 
ENDBRANCH  22  23
ENDBRANCH  21  22
ENDBRANCH   5  21
TORSDOF 4
ENDMDL
MODEL 3
REMARK VINA RESULT:      -7.5      0.786      1.183
REMARK  Name = 
REMARK  6 active torsions:
REMARK  status: ('A' for Active; 'I' for Inactive)
REMARK    1  A    between atoms: C_1  and  C_2
REMARK    2  A    between atoms: C_2  and  N_3
REMARK    3  A    between atoms: C_7  and  C_8
REMARK    4  A    between atoms: C_8  and  O_9
REMARK    5  A    between atoms: O_9  and  C_10
REMARK    6  A    between atoms: N_21  and  C_22
REMARK                            x       y       z     vdW  Elec       q    Type
REMARK                         _______ _______ _______ _____ _____    ______ ____
ROOT
ATOM      1  N   UNL     1      -0.459  10.845  18.936  0.00  0.00    +0.000 N 
ATOM      2  C   UNL     1       0.460   9.794  18.907  0.00  0.00    +0.000 A 
ATOM      3  N   UNL     1       1.309   9.676  17.849  0.00  0.00    +0.000 NA
ATOM      4  C   UNL     1       2.271   8.718  17.890  0.00  0.00    +0.000 A 
ATOM      5  C   UNL     1       2.413   7.806  18.924  0.00  0.00    +0.000 A 
ATOM      6  C   UNL     1       1.480   7.873  19.951  0.00  0.00    +0.000 A 
ATOM      7  C   UNL     1       0.537   8.900  19.957  0.00  0.00    +0.000 A 
ATOM      8  C   UNL     1      -0.315   9.019  21.134  0.00  0.00    +0.000 C 
ATOM      9  O   UNL     1      -0.850   7.996  21.561  0.00  0.00    +0.000 OA
ATOM     10  N   UNL     1      -0.191  10.193  21.869  0.00  0.00    +0.000 N 
ATOM     11  C   UNL     1      -0.079  10.002  23.306  0.00  0.00    +0.000 C 
ATOM     12  C   UNL     1      -0.323  11.521  21.320  0.00  0.00    +0.000 A 
ATOM     13  C   UNL     1      -0.323  12.619  22.205  0.00  0.00    +0.000 A 
ATOM     14  C   UNL     1      -0.575  13.909  21.756  0.00  0.00    +0.000 A 
ATOM     15  C   UNL     1      -0.851  14.070  20.421  0.00  0.00    +0.000 A 
ATOM     16 CL   UNL     1      -1.168  15.622  19.767  0.00  0.00    +0.000 Cl
ATOM     17  N   UNL     1      -0.874  13.065  19.530  0.00  0.00    +0.000 NA
ATOM     18  C   UNL     1      -0.578  11.803  19.951  0.00  0.00    +0.000 A 
ENDROOT
BRANCH   1  20
ATOM     19  C   UNL     1      -2.539  10.068  17.951  0.00  0.00    +0.000 C 
ATOM     20  C   UNL     1      -1.314  10.964  17.757  0.00  0.00    +0.000 C 
ENDBRANCH   1  20
BRANCH   5  21
ATOM     21  C   UNL     1       3.539   6.820  18.994  0.00  0.00    +0.000 C 
BRANCH  21  22
ATOM     22  O   UNL     1       3.244   5.695  18.170  0.00  0.00    +0.000 OA
BRANCH  22  23
ATOM     23  C   UNL     1       2.569   4.687  18.815  0.00  0.00    +0.000 A 
ATOM     24  C   UNL     1       1.604   4.019  18.054  0.00  0.00    +0.000 A 
ATOM     25  C   UNL     1       0.864   2.970  18.609  0.00  0.00    +0.000 A 
ATOM     26  C   UNL     1       1.079   2.592  19.932  0.00  0.00    +0.000 A 
ATOM     27  C   UNL     1       2.016   3.281  20.691  0.00  0.00    +0.000 A 
ATOM     28  F   UNL     1       2.214   2.934  21.969  0.00  0.00    +0.000 F 
ATOM     29  C   UNL     1       2.756   4.327  20.149  0.00  0.00    +0.000 A 
ENDBRANCH  22  23
ENDBRANCH  21  22
ENDBRANCH   5  21
TORSDOF 4
ENDMDL
MODEL 4
REMARK VINA RESULT:      -7.5      2.729      4.285
REMARK  Name = 
REMARK  6 active torsions:
REMARK  status: ('A' for Active; 'I' for Inactive)
REMARK    1  A    between atoms: C_1  and  C_2
REMARK    2  A    between atoms: C_2  and  N_3
REMARK    3  A    between atoms: C_7  and  C_8
REMARK    4  A    between atoms: C_8  and  O_9
REMARK    5  A    between atoms: O_9  and  C_10
REMARK    6  A    between atoms: N_21  and  C_22
REMARK                            x       y       z     vdW  Elec       q    Type
REMARK                         _______ _______ _______ _____ _____    ______ ____
ROOT
ATOM      1  N   UNL     1      -1.964  12.601  22.290  0.00  0.00    +0.000 N 
ATOM      2  C   UNL     1      -1.086  11.527  22.127  0.00  0.00    +0.000 A 
ATOM      3  N   UNL     1      -0.764  10.757  23.203  0.00  0.00    +0.000 NA
ATOM      4  C   UNL     1      -0.001   9.650  23.007  0.00  0.00    +0.000 A 
ATOM      5  C   UNL     1       0.522   9.279  21.778  0.00  0.00    +0.000 A 
ATOM      6  C   UNL     1       0.269  10.125  20.707  0.00  0.00    +0.000 A 
ATOM      7  C   UNL     1      -0.576  11.221  20.881  0.00  0.00    +0.000 A 
ATOM      8  C   UNL     1      -0.936  11.984  19.692  0.00  0.00    +0.000 C 
ATOM      9  O   UNL     1      -0.031  12.308  18.923  0.00  0.00    +0.000 OA
ATOM     10  N   UNL     1      -2.285  11.996  19.352  0.00  0.00    +0.000 N 
ATOM     11  C   UNL     1      -2.559  11.740  17.947  0.00  0.00    +0.000 C 
ATOM     12  C   UNL     1      -3.350  12.388  20.243  0.00  0.00    +0.000 A 
ATOM     13  C   UNL     1      -4.656  12.498  19.722  0.00  0.00    +0.000 A 
ATOM     14  C   UNL     1      -5.701  12.993  20.492  0.00  0.00    +0.000 A 
ATOM     15  C   UNL     1      -5.407  13.397  21.770  0.00  0.00    +0.000 A 
ATOM     16 CL   UNL     1      -6.627  14.017  22.801  0.00  0.00    +0.000 Cl
ATOM     17  N   UNL     1      -4.184  13.326  22.320  0.00  0.00    +0.000 NA
ATOM     18  C   UNL     1      -3.163  12.794  21.591  0.00  0.00    +0.000 A 
ENDROOT
BRANCH   1  20
ATOM     19  C   UNL     1      -0.533  14.500  22.783  0.00  0.00    +0.000 C 
ATOM     20  C   UNL     1      -1.602  13.554  23.335  0.00  0.00    +0.000 C 
ENDBRANCH   1  20
BRANCH   5  21
ATOM     21  C   UNL     1       1.282   8.004  21.567  0.00  0.00    +0.000 C 
BRANCH  21  22
ATOM     22  O   UNL     1       1.843   7.989  20.257  0.00  0.00    +0.000 OA
BRANCH  22  23
ATOM     23  C   UNL     1       2.122   6.732  19.779  0.00  0.00    +0.000 A 
ATOM     24  C   UNL     1       2.673   6.679  18.494  0.00  0.00    +0.000 A 
ATOM     25  C   UNL     1       3.003   5.451  17.914  0.00  0.00    +0.000 A 
ATOM     26  C   UNL     1       2.774   4.269  18.612  0.00  0.00    +0.000 A 
ATOM     27  C   UNL     1       2.197   4.327  19.874  0.00  0.00    +0.000 A 
ATOM     28  F   UNL     1       1.957   3.191  20.543  0.00  0.00    +0.000 F 
ATOM     29  C   UNL     1       1.863   5.543  20.460  0.00  0.00    +0.000 A 
ENDBRANCH  22  23
ENDBRANCH  21  22
ENDBRANCH   5  21
TORSDOF 4
ENDMDL
MODEL 5
REMARK VINA RESULT:      -7.4      2.167      3.532
REMARK  Name = 
REMARK  6 active torsions:
REMARK  status: ('A' for Active; 'I' for Inactive)
REMARK    1  A    between atoms: C_1  and  C_2
REMARK    2  A    between atoms: C_2  and  N_3
REMARK    3  A    between atoms: C_7  and  C_8
REMARK    4  A    between atoms: C_8  and  O_9
REMARK    5  A    between atoms: O_9  and  C_10
REMARK    6  A    between atoms: N_21  and  C_22
REMARK                            x       y       z     vdW  Elec       q    Type
REMARK                         _______ _______ _______ _____ _____    ______ ____
ROOT
ATOM      1  N   UNL     1      -0.968  12.088  21.160  0.00  0.00    +0.000 N 
ATOM      2  C   UNL     1      -0.193  10.927  21.164  0.00  0.00    +0.000 A 
ATOM      3  N   UNL     1       0.129  10.342  22.351  0.00  0.00    +0.000 NA
ATOM      4  C   UNL     1       0.786   9.153  22.333  0.00  0.00    +0.000 A 
ATOM      5  C   UNL     1       1.203   8.516  21.174  0.00  0.00    +0.000 A 
ATOM      6  C   UNL     1       0.955   9.170  19.976  0.00  0.00    +0.000 A 
ATOM      7  C   UNL     1       0.215  10.352  19.978  0.00  0.00    +0.000 A 
ATOM      8  C   UNL     1      -0.152  10.914  18.683  0.00  0.00    +0.000 C 
ATOM      9  O   UNL     1       0.729  11.007  17.828  0.00  0.00    +0.000 OA
ATOM     10  N   UNL     1      -1.513  10.987  18.406  0.00  0.00    +0.000 N 
ATOM     11  C   UNL     1      -1.891  10.504  17.087  0.00  0.00    +0.000 C 
ATOM     12  C   UNL     1      -2.487  11.632  19.252  0.00  0.00    +0.000 A 
ATOM     13  C   UNL     1      -3.809  11.763  18.778  0.00  0.00    +0.000 A 
ATOM     14  C   UNL     1      -4.762  12.484  19.485  0.00  0.00    +0.000 A 
ATOM     15  C   UNL     1      -4.360  13.088  20.650  0.00  0.00    +0.000 A 
ATOM     16 CL   UNL     1      -5.461  13.995  21.599  0.00  0.00    +0.000 Cl
ATOM     17  N   UNL     1      -3.116  13.007  21.150  0.00  0.00    +0.000 NA
ATOM     18  C   UNL     1      -2.187  12.259  20.491  0.00  0.00    +0.000 A 
ENDROOT
BRANCH   1  20
ATOM     19  C   UNL     1       0.778  13.769  21.324  0.00  0.00    +0.000 C 
ATOM     20  C   UNL     1      -0.468  13.180  21.991  0.00  0.00    +0.000 C 
ENDBRANCH   1  20
BRANCH   5  21
ATOM     21  C   UNL     1       1.841   7.160  21.174  0.00  0.00    +0.000 C 
BRANCH  21  22
ATOM     22  O   UNL     1       2.317   6.852  19.866  0.00  0.00    +0.000 OA
BRANCH  22  23
ATOM     23  C   UNL     1       2.011   5.582  19.441  0.00  0.00    +0.000 A 
ATOM     24  C   UNL     1       1.331   4.780  20.363  0.00  0.00    +0.000 A 
ATOM     25  C   UNL     1       0.963   3.473  20.031  0.00  0.00    +0.000 A 
ATOM     26  C   UNL     1       1.283   2.958  18.777  0.00  0.00    +0.000 A 
ATOM     27  C   UNL     1       1.986   3.749  17.878  0.00  0.00    +0.000 A 
ATOM     28  F   UNL     1       2.313   3.253  16.678  0.00  0.00    +0.000 F 
ATOM     29  C   UNL     1       2.359   5.051  18.200  0.00  0.00    +0.000 A 
ENDBRANCH  22  23
ENDBRANCH  21  22
ENDBRANCH   5  21
TORSDOF 4
ENDMDL
MODEL 6
REMARK VINA RESULT:      -7.2      1.129      1.313
REMARK  Name = 
REMARK  6 active torsions:
REMARK  status: ('A' for Active; 'I' for Inactive)
REMARK    1  A    between atoms: C_1  and  C_2
REMARK    2  A    between atoms: C_2  and  N_3
REMARK    3  A    between atoms: C_7  and  C_8
REMARK    4  A    between atoms: C_8  and  O_9
REMARK    5  A    between atoms: O_9  and  C_10
REMARK    6  A    between atoms: N_21  and  C_22
REMARK                            x       y       z     vdW  Elec       q    Type
REMARK                         _______ _______ _______ _____ _____    ______ ____
ROOT
ATOM      1  N   UNL     1      -0.412  10.822  18.936  0.00  0.00    +0.000 N 
ATOM      2  C   UNL     1       0.498   9.765  18.878  0.00  0.00    +0.000 A 
ATOM      3  N   UNL     1       1.338   9.664  17.811  0.00  0.00    +0.000 NA
ATOM      4  C   UNL     1       2.293   8.697  17.824  0.00  0.00    +0.000 A 
ATOM      5  C   UNL     1       2.435   7.763  18.838  0.00  0.00    +0.000 A 
ATOM      6  C   UNL     1       1.511   7.815  19.872  0.00  0.00    +0.000 A 
ATOM      7  C   UNL     1       0.575   8.849  19.907  0.00  0.00    +0.000 A 
ATOM      8  C   UNL     1      -0.267   8.949  21.094  0.00  0.00    +0.000 C 
ATOM      9  O   UNL     1      -0.807   7.922  21.502  0.00  0.00    +0.000 OA
ATOM     10  N   UNL     1      -0.128  10.107  21.852  0.00  0.00    +0.000 N 
ATOM     11  C   UNL     1      -0.007   9.884  23.284  0.00  0.00    +0.000 C 
ATOM     12  C   UNL     1      -0.254  11.447  21.332  0.00  0.00    +0.000 A 
ATOM     13  C   UNL     1      -0.239  12.525  22.240  0.00  0.00    +0.000 A 
ATOM     14  C   UNL     1      -0.483  13.827  21.821  0.00  0.00    +0.000 A 
ATOM     15  C   UNL     1      -0.768  14.018  20.492  0.00  0.00    +0.000 A 
ATOM     16 CL   UNL     1      -1.078  15.586  19.873  0.00  0.00    +0.000 Cl
ATOM     17  N   UNL     1      -0.805  13.033  19.580  0.00  0.00    +0.000 NA
ATOM     18  C   UNL     1      -0.516  11.760  19.971  0.00  0.00    +0.000 A 
ENDROOT
BRANCH   1  20
ATOM     19  C   UNL     1      -2.571  10.198  18.013  0.00  0.00    +0.000 C 
ATOM     20  C   UNL     1      -1.275  10.973  17.766  0.00  0.00    +0.000 C 
ENDBRANCH   1  20
BRANCH   5  21
ATOM     21  C   UNL     1       3.554   6.767  18.878  0.00  0.00    +0.000 C 
BRANCH  21  22
ATOM     22  O   UNL     1       3.456   5.888  17.760  0.00  0.00    +0.000 OA
BRANCH  22  23
ATOM     23  C   UNL     1       3.059   4.612  18.082  0.00  0.00    +0.000 A 
ATOM     24  C   UNL     1       1.680   4.377  18.041  0.00  0.00    +0.000 A 
ATOM     25  C   UNL     1       1.167   3.111  18.342  0.00  0.00    +0.000 A 
ATOM     26  C   UNL     1       2.030   2.078  18.694  0.00  0.00    +0.000 A 
ATOM     27  C   UNL     1       3.395   2.327  18.763  0.00  0.00    +0.000 A 
ATOM     28  F   UNL     1       4.229   1.341  19.120  0.00  0.00    +0.000 F 
ATOM     29  C   UNL     1       3.915   3.582  18.468  0.00  0.00    +0.000 A 
ENDBRANCH  22  23
ENDBRANCH  21  22
ENDBRANCH   5  21
TORSDOF 4
ENDMDL
MODEL 7
REMARK VINA RESULT:      -7.2      2.529      3.882
REMARK  Name = 
REMARK  6 active torsions:
REMARK  status: ('A' for Active; 'I' for Inactive)
REMARK    1  A    between atoms: C_1  and  C_2
REMARK    2  A    between atoms: C_2  and  N_3
REMARK    3  A    between atoms: C_7  and  C_8
REMARK    4  A    between atoms: C_8  and  O_9
REMARK    5  A    between atoms: O_9  and  C_10
REMARK    6  A    between atoms: N_21  and  C_22
REMARK                            x       y       z     vdW  Elec       q    Type
REMARK                         _______ _______ _______ _____ _____    ______ ____
ROOT
ATOM      1  N   UNL     1      -1.537  12.041  21.884  0.00  0.00    +0.000 N 
ATOM      2  C   UNL     1      -0.620  11.043  21.547  0.00  0.00    +0.000 A 
ATOM      3  N   UNL     1      -0.244  10.134  22.488  0.00  0.00    +0.000 NA
ATOM      4  C   UNL     1       0.559   9.104  22.114  0.00  0.00    +0.000 A 
ATOM      5  C   UNL     1       1.071   8.947  20.836  0.00  0.00    +0.000 A 
ATOM      6  C   UNL     1       0.761   9.934  19.911  0.00  0.00    +0.000 A 
ATOM      7  C   UNL     1      -0.124  10.953  20.262  0.00  0.00    +0.000 A 
ATOM      8  C   UNL     1      -0.539  11.871  19.208  0.00  0.00    +0.000 C 
ATOM      9  O   UNL     1       0.335  12.347  18.485  0.00  0.00    +0.000 OA
ATOM     10  N   UNL     1      -1.894  11.876  18.893  0.00  0.00    +0.000 N 
ATOM     11  C   UNL     1      -2.187  11.824  17.470  0.00  0.00    +0.000 C 
ATOM     12  C   UNL     1      -2.956  12.081  19.849  0.00  0.00    +0.000 A 
ATOM     13  C   UNL     1      -4.276  12.212  19.370  0.00  0.00    +0.000 A 
ATOM     14  C   UNL     1      -5.324  12.538  20.221  0.00  0.00    +0.000 A 
ATOM     15  C   UNL     1      -5.020  12.756  21.541  0.00  0.00    +0.000 A 
ATOM     16 CL   UNL     1      -6.243  13.158  22.673  0.00  0.00    +0.000 Cl
ATOM     17  N   UNL     1      -3.784  12.656  22.056  0.00  0.00    +0.000 NA
ATOM     18  C   UNL     1      -2.757  12.285  21.241  0.00  0.00    +0.000 A 
ENDROOT
BRANCH   1  20
ATOM     19  C   UNL     1      -0.479  14.110  22.590  0.00  0.00    +0.000 C 
ATOM     20  C   UNL     1      -1.193  12.840  23.058  0.00  0.00    +0.000 C 
ENDBRANCH   1  20
BRANCH   5  21
ATOM     21  C   UNL     1       1.877   7.753  20.422  0.00  0.00    +0.000 C 
BRANCH  21  22
ATOM     22  O   UNL     1       1.292   6.568  20.956  0.00  0.00    +0.000 OA
BRANCH  22  23
ATOM     23  C   UNL     1       1.874   5.405  20.513  0.00  0.00    +0.000 A 
ATOM     24  C   UNL     1       3.114   5.548  19.881  0.00  0.00    +0.000 A 
ATOM     25  C   UNL     1       3.798   4.428  19.400  0.00  0.00    +0.000 A 
ATOM     26  C   UNL     1       3.240   3.161  19.538  0.00  0.00    +0.000 A 
ATOM     27  C   UNL     1       1.994   3.029  20.137  0.00  0.00    +0.000 A 
ATOM     28  F   UNL     1       1.444   1.814  20.256  0.00  0.00    +0.000 F 
ATOM     29  C   UNL     1       1.304   4.137  20.618  0.00  0.00    +0.000 A 
ENDBRANCH  22  23
ENDBRANCH  21  22
ENDBRANCH   5  21
TORSDOF 4
ENDMDL
MODEL 8
REMARK VINA RESULT:      -7.1      2.338      2.803
REMARK  Name = 
REMARK  6 active torsions:
REMARK  status: ('A' for Active; 'I' for Inactive)
REMARK    1  A    between atoms: C_1  and  C_2
REMARK    2  A    between atoms: C_2  and  N_3
REMARK    3  A    between atoms: C_7  and  C_8
REMARK    4  A    between atoms: C_8  and  O_9
REMARK    5  A    between atoms: O_9  and  C_10
REMARK    6  A    between atoms: N_21  and  C_22
REMARK                            x       y       z     vdW  Elec       q    Type
REMARK                         _______ _______ _______ _____ _____    ______ ____
ROOT
ATOM      1  N   UNL     1      -0.077  10.421  18.803  0.00  0.00    +0.000 N 
ATOM      2  C   UNL     1       0.774   9.321  18.924  0.00  0.00    +0.000 A 
ATOM      3  N   UNL     1       1.667   9.054  17.931  0.00  0.00    +0.000 NA
ATOM      4  C   UNL     1       2.564   8.050  18.115  0.00  0.00    +0.000 A 
ATOM      5  C   UNL     1       2.594   7.235  19.236  0.00  0.00    +0.000 A 
ATOM      6  C   UNL     1       1.616   7.453  20.197  0.00  0.00    +0.000 A 
ATOM      7  C   UNL     1       0.740   8.529  20.054  0.00  0.00    +0.000 A 
ATOM      8  C   UNL     1      -0.163   8.809  21.165  0.00  0.00    +0.000 C 
ATOM      9  O   UNL     1      -0.782   7.864  21.652  0.00  0.00    +0.000 OA
ATOM     10  N   UNL     1      -0.002  10.039  21.794  0.00  0.00    +0.000 N 
ATOM     11  C   UNL     1       0.023   9.979  23.247  0.00  0.00    +0.000 C 
ATOM     12  C   UNL     1      -0.022  11.314  21.118  0.00  0.00    +0.000 A 
ATOM     13  C   UNL     1       0.001  12.489  21.897  0.00  0.00    +0.000 A 
ATOM     14  C   UNL     1      -0.145  13.743  21.317  0.00  0.00    +0.000 A 
ATOM     15  C   UNL     1      -0.341  13.791  19.960  0.00  0.00    +0.000 A 
ATOM     16 CL   UNL     1      -0.526  15.289  19.148  0.00  0.00    +0.000 Cl
ATOM     17  N   UNL     1      -0.381  12.709  19.165  0.00  0.00    +0.000 NA
ATOM     18  C   UNL     1      -0.187  11.478  19.717  0.00  0.00    +0.000 A 
ENDROOT
BRANCH   1  20
ATOM     19  C   UNL     1      -2.268   9.954  17.865  0.00  0.00    +0.000 C 
ATOM     20  C   UNL     1      -0.860  10.477  17.571  0.00  0.00    +0.000 C 
ENDBRANCH   1  20
BRANCH   5  21
ATOM     21  C   UNL     1       3.651   6.196  19.460  0.00  0.00    +0.000 C 
BRANCH  21  22
ATOM     22  O   UNL     1       3.609   5.233  18.411  0.00  0.00    +0.000 OA
BRANCH  22  23
ATOM     23  C   UNL     1       4.830   4.977  17.834  0.00  0.00    +0.000 A 
ATOM     24  C   UNL     1       5.948   5.340  18.592  0.00  0.00    +0.000 A 
ATOM     25  C   UNL     1       7.239   5.116  18.104  0.00  0.00    +0.000 A 
ATOM     26  C   UNL     1       7.417   4.538  16.850  0.00  0.00    +0.000 A 
ATOM     27  C   UNL     1       6.302   4.210  16.089  0.00  0.00    +0.000 A 
ATOM     28  F   UNL     1       6.468   3.671  14.874  0.00  0.00    +0.000 F 
ATOM     29  C   UNL     1       5.014   4.430  16.565  0.00  0.00    +0.000 A 
ENDBRANCH  22  23
ENDBRANCH  21  22
ENDBRANCH   5  21
TORSDOF 4
ENDMDL
MODEL 9
REMARK VINA RESULT:      -7.1      2.463      3.137
REMARK  Name = 
REMARK  6 active torsions:
REMARK  status: ('A' for Active; 'I' for Inactive)
REMARK    1  A    between atoms: C_1  and  C_2
REMARK    2  A    between atoms: C_2  and  N_3
REMARK    3  A    between atoms: C_7  and  C_8
REMARK    4  A    between atoms: C_8  and  O_9
REMARK    5  A    between atoms: O_9  and  C_10
REMARK    6  A    between atoms: N_21  and  C_22
REMARK                            x       y       z     vdW  Elec       q    Type
REMARK                         _______ _______ _______ _____ _____    ______ ____
ROOT
ATOM      1  N   UNL     1      -0.188  10.527  18.866  0.00  0.00    +0.000 N 
ATOM      2  C   UNL     1       0.663   9.424  18.955  0.00  0.00    +0.000 A 
ATOM      3  N   UNL     1       1.548   9.178  17.950  0.00  0.00    +0.000 NA
ATOM      4  C   UNL     1       2.445   8.169  18.104  0.00  0.00    +0.000 A 
ATOM      5  C   UNL     1       2.484   7.330  19.207  0.00  0.00    +0.000 A 
ATOM      6  C   UNL     1       1.514   7.528  20.180  0.00  0.00    +0.000 A 
ATOM      7  C   UNL     1       0.638   8.608  20.068  0.00  0.00    +0.000 A 
ATOM      8  C   UNL     1      -0.255   8.864  21.192  0.00  0.00    +0.000 C 
ATOM      9  O   UNL     1      -0.871   7.909  21.664  0.00  0.00    +0.000 OA
ATOM     10  N   UNL     1      -0.088  10.080  21.847  0.00  0.00    +0.000 N 
ATOM     11  C   UNL     1      -0.051   9.988  23.297  0.00  0.00    +0.000 C 
ATOM     12  C   UNL     1      -0.113  11.369  21.199  0.00  0.00    +0.000 A 
ATOM     13  C   UNL     1      -0.082  12.527  22.003  0.00  0.00    +0.000 A 
ATOM     14  C   UNL     1      -0.231  13.793  21.452  0.00  0.00    +0.000 A 
ATOM     15  C   UNL     1      -0.439  13.871  20.097  0.00  0.00    +0.000 A 
ATOM     16 CL   UNL     1      -0.629  15.386  19.320  0.00  0.00    +0.000 Cl
ATOM     17  N   UNL     1      -0.487  12.806  19.280  0.00  0.00    +0.000 NA
ATOM     18  C   UNL     1      -0.289  11.563  19.803  0.00  0.00    +0.000 A 
ENDROOT
BRANCH   1  20
ATOM     19  C   UNL     1      -2.370  10.029  17.921  0.00  0.00    +0.000 C 
ATOM     20  C   UNL     1      -0.981  10.610  17.642  0.00  0.00    +0.000 C 
ENDBRANCH   1  20
BRANCH   5  21
ATOM     21  C   UNL     1       3.542   6.286  19.399  0.00  0.00    +0.000 C 
BRANCH  21  22
ATOM     22  O   UNL     1       3.497   5.351  18.324  0.00  0.00    +0.000 OA
BRANCH  22  23
ATOM     23  C   UNL     1       4.628   5.338  17.543  0.00  0.00    +0.000 A 
ATOM     24  C   UNL     1       4.694   4.318  16.588  0.00  0.00    +0.000 A 
ATOM     25  C   UNL     1       5.797   4.216  15.735  0.00  0.00    +0.000 A 
ATOM     26  C   UNL     1       6.843   5.129  15.839  0.00  0.00    +0.000 A 
ATOM     27  C   UNL     1       6.784   6.120  16.810  0.00  0.00    +0.000 A 
ATOM     28  F   UNL     1       7.796   6.990  16.927  0.00  0.00    +0.000 F 
ATOM     29  C   UNL     1       5.693   6.229  17.666  0.00  0.00    +0.000 A 
ENDBRANCH  22  23
ENDBRANCH  21  22
ENDBRANCH   5  21
TORSDOF 4
ENDMDL
