MODEL 1
REMARK VINA RESULT:      -7.9      0.000      0.000
REMARK  Name = 
REMARK  4 active torsions:
REMARK  status: ('A' for Active; 'I' for Inactive)
REMARK    1  A    between atoms: C_1  and  O_2
REMARK    2  A    between atoms: O_2  and  C_3
REMARK    3  A    between atoms: C_11  and  C_12
REMARK    4  A    between atoms: C_13  and  C_14
REMARK                            x       y       z     vdW  Elec       q    Type
REMARK                         _______ _______ _______ _____ _____    ______ ____
ROOT
ATOM      1  C   UNL     1      11.578  16.619  19.961  0.00  0.00    +0.000 A 
ATOM      2  C   UNL     1      12.024  17.604  19.061  0.00  0.00    +0.000 A 
ATOM      3  C   UNL     1      11.985  17.395  17.693  0.00  0.00    +0.000 A 
ATOM      4  C   UNL     1      11.512  16.189  17.209  0.00  0.00    +0.000 A 
ATOM      5  C   UNL     1      11.071  15.177  18.082  0.00  0.00    +0.000 A 
ATOM      6  S   UNL     1      10.519  13.718  17.249  0.00  0.00    +0.000 S 
ATOM      7  C   UNL     1      10.077  12.635  18.564  0.00  0.00    +0.000 A 
ATOM      8  C   UNL     1       9.625  11.361  18.175  0.00  0.00    +0.000 A 
ATOM      9  C   UNL     1       9.229  10.410  19.115  0.00  0.00    +0.000 A 
ATOM     10  C   UNL     1       9.277  10.734  20.467  0.00  0.00    +0.000 A 
ATOM     11  C   UNL     1       9.728  12.003  20.863  0.00  0.00    +0.000 A 
ATOM     12  C   UNL     1      10.136  12.966  19.914  0.00  0.00    +0.000 A 
ATOM     13  C   UNL     1      10.599  14.301  20.402  0.00  0.00    +0.000 A 
ATOM     14  O   UNL     1      10.545  14.492  21.614  0.00  0.00    +0.000 OA
ATOM     15  C   UNL     1      11.095  15.375  19.472  0.00  0.00    +0.000 A 
ENDROOT
BRANCH   1  17
ATOM     16  C   UNL     1      11.156  18.074  21.800  0.00  0.00    +0.000 C 
ATOM     17  O   UNL     1      11.660  16.830  21.317  0.00  0.00    +0.000 OA
ENDBRANCH   1  17
BRANCH   9  18
ATOM     18  C   UNL     1       8.775   9.134  18.657  0.00  0.00    +0.000 C 
ATOM     19  C   UNL     1       8.322   8.090  18.266  0.00  0.00    +0.000 C 
BRANCH  19  20
ATOM     20  C   UNL     1       7.729   6.863  17.835  0.00  0.00    +0.000 A 
ATOM     21  C   UNL     1       7.601   5.780  18.696  0.00  0.00    +0.000 A 
ATOM     22  C   UNL     1       7.102   4.585  18.184  0.00  0.00    +0.000 A 
ATOM     23  C   UNL     1       6.740   4.521  16.842  0.00  0.00    +0.000 A 
ATOM     24  C   UNL     1       6.879   5.663  16.070  0.00  0.00    +0.000 A 
ATOM     25  N   UNL     1       7.368   6.834  16.535  0.00  0.00    +0.000 NA
ENDBRANCH  19  20
ENDBRANCH   9  18
TORSDOF 3
ENDMDL
MODEL 2
REMARK VINA RESULT:      -7.4      9.538     12.615
REMARK  Name = 
REMARK  4 active torsions:
REMARK  status: ('A' for Active; 'I' for Inactive)
REMARK    1  A    between atoms: C_1  and  O_2
REMARK    2  A    between atoms: O_2  and  C_3
REMARK    3  A    between atoms: C_11  and  C_12
REMARK    4  A    between atoms: C_13  and  C_14
REMARK                            x       y       z     vdW  Elec       q    Type
REMARK                         _______ _______ _______ _____ _____    ______ ____
ROOT
ATOM      1  C   UNL     1       4.147   4.629  17.621  0.00  0.00    +0.000 A 
ATOM      2  C   UNL     1       4.423   3.299  17.986  0.00  0.00    +0.000 A 
ATOM      3  C   UNL     1       3.912   2.755  19.153  0.00  0.00    +0.000 A 
ATOM      4  C   UNL     1       3.131   3.544  19.978  0.00  0.00    +0.000 A 
ATOM      5  C   UNL     1       2.847   4.883  19.650  0.00  0.00    +0.000 A 
ATOM      6  S   UNL     1       1.841   5.705  20.850  0.00  0.00    +0.000 S 
ATOM      7  C   UNL     1       1.688   7.338  20.211  0.00  0.00    +0.000 A 
ATOM      8  C   UNL     1       0.948   8.232  21.003  0.00  0.00    +0.000 A 
ATOM      9  C   UNL     1       0.738   9.553  20.607  0.00  0.00    +0.000 A 
ATOM     10  C   UNL     1       1.268   9.990  19.398  0.00  0.00    +0.000 A 
ATOM     11  C   UNL     1       2.010   9.103  18.603  0.00  0.00    +0.000 A 
ATOM     12  C   UNL     1       2.231   7.767  19.003  0.00  0.00    +0.000 A 
ATOM     13  C   UNL     1       3.024   6.872  18.106  0.00  0.00    +0.000 A 
ATOM     14  O   UNL     1       3.394   7.353  17.038  0.00  0.00    +0.000 OA
ATOM     15  C   UNL     1       3.349   5.448  18.466  0.00  0.00    +0.000 A 
ENDROOT
BRANCH   1  17
ATOM     16  C   UNL     1       5.420   4.265  15.641  0.00  0.00    +0.000 C 
ATOM     17  O   UNL     1       4.694   5.162  16.479  0.00  0.00    +0.000 OA
ENDBRANCH   1  17
BRANCH   9  18
ATOM     18  C   UNL     1      -0.028  10.414  21.454  0.00  0.00    +0.000 C 
ATOM     19  C   UNL     1      -0.657  11.196  22.119  0.00  0.00    +0.000 C 
BRANCH  19  20
ATOM     20  C   UNL     1      -1.358  12.170  22.894  0.00  0.00    +0.000 A 
ATOM     21  C   UNL     1      -2.697  12.004  23.226  0.00  0.00    +0.000 A 
ATOM     22  C   UNL     1      -3.343  13.037  23.902  0.00  0.00    +0.000 A 
ATOM     23  C   UNL     1      -2.628  14.185  24.228  0.00  0.00    +0.000 A 
ATOM     24  C   UNL     1      -1.288  14.245  23.879  0.00  0.00    +0.000 A 
ATOM     25  N   UNL     1      -0.636  13.265  23.216  0.00  0.00    +0.000 NA
ENDBRANCH  19  20
ENDBRANCH   9  18
TORSDOF 3
ENDMDL
MODEL 3
REMARK VINA RESULT:      -7.4      1.619      1.798
REMARK  Name = 
REMARK  4 active torsions:
REMARK  status: ('A' for Active; 'I' for Inactive)
REMARK    1  A    between atoms: C_1  and  O_2
REMARK    2  A    between atoms: O_2  and  C_3
REMARK    3  A    between atoms: C_11  and  C_12
REMARK    4  A    between atoms: C_13  and  C_14
REMARK                            x       y       z     vdW  Elec       q    Type
REMARK                         _______ _______ _______ _____ _____    ______ ____
ROOT
ATOM      1  C   UNL     1      10.395  16.138  19.701  0.00  0.00    +0.000 A 
ATOM      2  C   UNL     1       9.950  17.394  19.248  0.00  0.00    +0.000 A 
ATOM      3  C   UNL     1       8.905  17.501  18.346  0.00  0.00    +0.000 A 
ATOM      4  C   UNL     1       8.303  16.350  17.872  0.00  0.00    +0.000 A 
ATOM      5  C   UNL     1       8.732  15.077  18.294  0.00  0.00    +0.000 A 
ATOM      6  S   UNL     1       7.829  13.747  17.555  0.00  0.00    +0.000 S 
ATOM      7  C   UNL     1       8.596  12.310  18.221  0.00  0.00    +0.000 A 
ATOM      8  C   UNL     1       8.082  11.083  17.765  0.00  0.00    +0.000 A 
ATOM      9  C   UNL     1       8.589   9.866  18.222  0.00  0.00    +0.000 A 
ATOM     10  C   UNL     1       9.620   9.870  19.156  0.00  0.00    +0.000 A 
ATOM     11  C   UNL     1      10.138  11.091  19.615  0.00  0.00    +0.000 A 
ATOM     12  C   UNL     1       9.633  12.325  19.149  0.00  0.00    +0.000 A 
ATOM     13  C   UNL     1      10.224  13.589  19.683  0.00  0.00    +0.000 A 
ATOM     14  O   UNL     1      11.092  13.469  20.545  0.00  0.00    +0.000 OA
ATOM     15  C   UNL     1       9.784  14.950  19.216  0.00  0.00    +0.000 A 
ENDROOT
BRANCH   1  17
ATOM     16  C   UNL     1      12.324  17.182  20.629  0.00  0.00    +0.000 C 
ATOM     17  O   UNL     1      11.458  16.051  20.567  0.00  0.00    +0.000 OA
ENDBRANCH   1  17
BRANCH   9  18
ATOM     18  C   UNL     1       8.022   8.652  17.724  0.00  0.00    +0.000 C 
ATOM     19  C   UNL     1       7.484   7.642  17.350  0.00  0.00    +0.000 C 
BRANCH  19  20
ATOM     20  C   UNL     1       6.822   6.435  16.967  0.00  0.00    +0.000 A 
ATOM     21  C   UNL     1       5.784   5.907  17.725  0.00  0.00    +0.000 A 
ATOM     22  C   UNL     1       5.249   4.678  17.346  0.00  0.00    +0.000 A 
ATOM     23  C   UNL     1       5.760   4.033  16.225  0.00  0.00    +0.000 A 
ATOM     24  C   UNL     1       6.777   4.653  15.517  0.00  0.00    +0.000 A 
ATOM     25  N   UNL     1       7.324   5.839  15.864  0.00  0.00    +0.000 NA
ENDBRANCH  19  20
ENDBRANCH   9  18
TORSDOF 3
ENDMDL
MODEL 4
REMARK VINA RESULT:      -7.3      9.197     10.159
REMARK  Name = 
REMARK  4 active torsions:
REMARK  status: ('A' for Active; 'I' for Inactive)
REMARK    1  A    between atoms: C_1  and  O_2
REMARK    2  A    between atoms: O_2  and  C_3
REMARK    3  A    between atoms: C_11  and  C_12
REMARK    4  A    between atoms: C_13  and  C_14
REMARK                            x       y       z     vdW  Elec       q    Type
REMARK                         _______ _______ _______ _____ _____    ______ ____
ROOT
ATOM      1  C   UNL     1      -1.729  12.776  22.208  0.00  0.00    +0.000 A 
ATOM      2  C   UNL     1      -2.143  14.062  21.813  0.00  0.00    +0.000 A 
ATOM      3  C   UNL     1      -1.824  14.565  20.563  0.00  0.00    +0.000 A 
ATOM      4  C   UNL     1      -1.072  13.792  19.698  0.00  0.00    +0.000 A 
ATOM      5  C   UNL     1      -0.630  12.507  20.066  0.00  0.00    +0.000 A 
ATOM      6  S   UNL     1       0.323  11.702  18.812  0.00  0.00    +0.000 S 
ATOM      7  C   UNL     1       0.765  10.168  19.551  0.00  0.00    +0.000 A 
ATOM      8  C   UNL     1       1.571   9.326  18.765  0.00  0.00    +0.000 A 
ATOM      9  C   UNL     1       1.982   8.075  19.224  0.00  0.00    +0.000 A 
ATOM     10  C   UNL     1       1.578   7.650  20.485  0.00  0.00    +0.000 A 
ATOM     11  C   UNL     1       0.775   8.485  21.276  0.00  0.00    +0.000 A 
ATOM     12  C   UNL     1       0.362   9.756  20.818  0.00  0.00    +0.000 A 
ATOM     13  C   UNL     1      -0.499  10.594  21.707  0.00  0.00    +0.000 A 
ATOM     14  O   UNL     1      -0.838  10.091  22.776  0.00  0.00    +0.000 OA
ATOM     15  C   UNL     1      -0.952  11.978  21.326  0.00  0.00    +0.000 A 
ENDROOT
BRANCH   1  17
ATOM     16  C   UNL     1      -3.402  12.279  23.830  0.00  0.00    +0.000 C 
ATOM     17  O   UNL     1      -2.023  12.310  23.467  0.00  0.00    +0.000 OA
ENDBRANCH   1  17
BRANCH   9  18
ATOM     18  C   UNL     1       2.798   7.262  18.376  0.00  0.00    +0.000 C 
ATOM     19  C   UNL     1       3.523   6.556  17.724  0.00  0.00    +0.000 C 
BRANCH  19  20
ATOM     20  C   UNL     1       4.434   5.736  16.991  0.00  0.00    +0.000 A 
ATOM     21  C   UNL     1       5.220   6.259  15.971  0.00  0.00    +0.000 A 
ATOM     22  C   UNL     1       6.015   5.384  15.235  0.00  0.00    +0.000 A 
ATOM     23  C   UNL     1       6.004   4.029  15.550  0.00  0.00    +0.000 A 
ATOM     24  C   UNL     1       5.208   3.607  16.603  0.00  0.00    +0.000 A 
ATOM     25  N   UNL     1       4.419   4.429  17.330  0.00  0.00    +0.000 NA
ENDBRANCH  19  20
ENDBRANCH   9  18
TORSDOF 3
ENDMDL
MODEL 5
REMARK VINA RESULT:      -7.3      1.496      1.546
REMARK  Name = 
REMARK  4 active torsions:
REMARK  status: ('A' for Active; 'I' for Inactive)
REMARK    1  A    between atoms: C_1  and  O_2
REMARK    2  A    between atoms: O_2  and  C_3
REMARK    3  A    between atoms: C_11  and  C_12
REMARK    4  A    between atoms: C_13  and  C_14
REMARK                            x       y       z     vdW  Elec       q    Type
REMARK                         _______ _______ _______ _____ _____    ______ ____
ROOT
ATOM      1  C   UNL     1      10.708  16.994  19.725  0.00  0.00    +0.000 A 
ATOM      2  C   UNL     1      10.116  18.215  19.353  0.00  0.00    +0.000 A 
ATOM      3  C   UNL     1       8.934  18.249  18.633  0.00  0.00    +0.000 A 
ATOM      4  C   UNL     1       8.336  17.058  18.263  0.00  0.00    +0.000 A 
ATOM      5  C   UNL     1       8.909  15.819  18.606  0.00  0.00    +0.000 A 
ATOM      6  S   UNL     1       7.984  14.428  18.023  0.00  0.00    +0.000 S 
ATOM      7  C   UNL     1       8.938  13.047  18.552  0.00  0.00    +0.000 A 
ATOM      8  C   UNL     1       8.436  11.787  18.183  0.00  0.00    +0.000 A 
ATOM      9  C   UNL     1       9.087  10.609  18.549  0.00  0.00    +0.000 A 
ATOM     10  C   UNL     1      10.254  10.685  19.302  0.00  0.00    +0.000 A 
ATOM     11  C   UNL     1      10.761  11.940  19.672  0.00  0.00    +0.000 A 
ATOM     12  C   UNL     1      10.110  13.135  19.297  0.00  0.00    +0.000 A 
ATOM     13  C   UNL     1      10.699  14.439  19.730  0.00  0.00    +0.000 A 
ATOM     14  O   UNL     1      11.701  14.381  20.439  0.00  0.00    +0.000 OA
ATOM     15  C   UNL     1      10.103  15.766  19.343  0.00  0.00    +0.000 A 
ENDROOT
BRANCH   1  17
ATOM     16  C   UNL     1      11.944  17.708  21.632  0.00  0.00    +0.000 C 
ATOM     17  O   UNL     1      11.901  16.981  20.405  0.00  0.00    +0.000 OA
ENDBRANCH   1  17
BRANCH   9  18
ATOM     18  C   UNL     1       8.525   9.357  18.148  0.00  0.00    +0.000 C 
ATOM     19  C   UNL     1       7.985   8.324  17.844  0.00  0.00    +0.000 C 
BRANCH  19  20
ATOM     20  C   UNL     1       7.314   7.099  17.542  0.00  0.00    +0.000 A 
ATOM     21  C   UNL     1       7.617   5.922  18.215  0.00  0.00    +0.000 A 
ATOM     22  C   UNL     1       6.993   4.747  17.803  0.00  0.00    +0.000 A 
ATOM     23  C   UNL     1       6.086   4.794  16.750  0.00  0.00    +0.000 A 
ATOM     24  C   UNL     1       5.828   6.021  16.160  0.00  0.00    +0.000 A 
ATOM     25  N   UNL     1       6.424   7.176  16.530  0.00  0.00    +0.000 NA
ENDBRANCH  19  20
ENDBRANCH   9  18
TORSDOF 3
ENDMDL
MODEL 6
REMARK VINA RESULT:      -7.3      1.679      2.681
REMARK  Name = 
REMARK  4 active torsions:
REMARK  status: ('A' for Active; 'I' for Inactive)
REMARK    1  A    between atoms: C_1  and  O_2
REMARK    2  A    between atoms: O_2  and  C_3
REMARK    3  A    between atoms: C_11  and  C_12
REMARK    4  A    between atoms: C_13  and  C_14
REMARK                            x       y       z     vdW  Elec       q    Type
REMARK                         _______ _______ _______ _____ _____    ______ ____
ROOT
ATOM      1  C   UNL     1      11.214  16.186  21.389  0.00  0.00    +0.000 A 
ATOM      2  C   UNL     1      10.863  16.849  22.580  0.00  0.00    +0.000 A 
ATOM      3  C   UNL     1       9.984  16.279  23.485  0.00  0.00    +0.000 A 
ATOM      4  C   UNL     1       9.432  15.044  23.201  0.00  0.00    +0.000 A 
ATOM      5  C   UNL     1       9.750  14.359  22.013  0.00  0.00    +0.000 A 
ATOM      6  S   UNL     1       8.923  12.804  21.850  0.00  0.00    +0.000 S 
ATOM      7  C   UNL     1       9.468  12.209  20.286  0.00  0.00    +0.000 A 
ATOM      8  C   UNL     1       8.926  10.976  19.885  0.00  0.00    +0.000 A 
ATOM      9  C   UNL     1       9.283  10.383  18.673  0.00  0.00    +0.000 A 
ATOM     10  C   UNL     1      10.202  11.025  17.851  0.00  0.00    +0.000 A 
ATOM     11  C   UNL     1      10.746  12.257  18.244  0.00  0.00    +0.000 A 
ATOM     12  C   UNL     1      10.382  12.864  19.466  0.00  0.00    +0.000 A 
ATOM     13  C   UNL     1      11.004  14.174  19.830  0.00  0.00    +0.000 A 
ATOM     14  O   UNL     1      11.844  14.618  19.051  0.00  0.00    +0.000 OA
ATOM     15  C   UNL     1      10.647  14.919  21.088  0.00  0.00    +0.000 A 
ENDROOT
BRANCH   1  17
ATOM     16  C   UNL     1      12.035  18.211  20.439  0.00  0.00    +0.000 C 
ATOM     17  O   UNL     1      12.058  16.785  20.485  0.00  0.00    +0.000 OA
ENDBRANCH   1  17
BRANCH   9  18
ATOM     18  C   UNL     1       8.700   9.125  18.323  0.00  0.00    +0.000 C 
ATOM     19  C   UNL     1       8.141   8.100  18.030  0.00  0.00    +0.000 C 
BRANCH  19  20
ATOM     20  C   UNL     1       7.428   6.900  17.723  0.00  0.00    +0.000 A 
ATOM     21  C   UNL     1       6.994   6.040  18.724  0.00  0.00    +0.000 A 
ATOM     22  C   UNL     1       6.390   4.842  18.349  0.00  0.00    +0.000 A 
ATOM     23  C   UNL     1       6.232   4.557  16.997  0.00  0.00    +0.000 A 
ATOM     24  C   UNL     1       6.672   5.491  16.073  0.00  0.00    +0.000 A 
ATOM     25  N   UNL     1       7.270   6.657  16.404  0.00  0.00    +0.000 NA
ENDBRANCH  19  20
ENDBRANCH   9  18
TORSDOF 3
ENDMDL
MODEL 7
REMARK VINA RESULT:      -7.3      9.505     12.581
REMARK  Name = 
REMARK  4 active torsions:
REMARK  status: ('A' for Active; 'I' for Inactive)
REMARK    1  A    between atoms: C_1  and  O_2
REMARK    2  A    between atoms: O_2  and  C_3
REMARK    3  A    between atoms: C_11  and  C_12
REMARK    4  A    between atoms: C_13  and  C_14
REMARK                            x       y       z     vdW  Elec       q    Type
REMARK                         _______ _______ _______ _____ _____    ______ ____
ROOT
ATOM      1  C   UNL     1       4.042   5.465  17.558  0.00  0.00    +0.000 A 
ATOM      2  C   UNL     1       4.442   4.163  17.911  0.00  0.00    +0.000 A 
ATOM      3  C   UNL     1       3.999   3.569  19.080  0.00  0.00    +0.000 A 
ATOM      4  C   UNL     1       3.161   4.279  19.921  0.00  0.00    +0.000 A 
ATOM      5  C   UNL     1       2.753   5.589  19.605  0.00  0.00    +0.000 A 
ATOM      6  S   UNL     1       1.693   6.311  20.823  0.00  0.00    +0.000 S 
ATOM      7  C   UNL     1       1.385   7.926  20.197  0.00  0.00    +0.000 A 
ATOM      8  C   UNL     1       0.577   8.746  21.005  0.00  0.00    +0.000 A 
ATOM      9  C   UNL     1       0.243  10.045  20.620  0.00  0.00    +0.000 A 
ATOM     10  C   UNL     1       0.715  10.534  19.407  0.00  0.00    +0.000 A 
ATOM     11  C   UNL     1       1.523   9.722  18.596  0.00  0.00    +0.000 A 
ATOM     12  C   UNL     1       1.870   8.409  18.985  0.00  0.00    +0.000 A 
ATOM     13  C   UNL     1       2.728   7.594  18.072  0.00  0.00    +0.000 A 
ATOM     14  O   UNL     1       3.038   8.112  17.002  0.00  0.00    +0.000 OA
ATOM     15  C   UNL     1       3.186   6.203  18.418  0.00  0.00    +0.000 A 
ENDROOT
BRANCH   1  17
ATOM     16  C   UNL     1       5.735   5.516  15.883  0.00  0.00    +0.000 C 
ATOM     17  O   UNL     1       4.523   6.051  16.412  0.00  0.00    +0.000 OA
ENDBRANCH   1  17
BRANCH   9  18
ATOM     18  C   UNL     1      -0.586  10.828  21.482  0.00  0.00    +0.000 C 
ATOM     19  C   UNL     1      -1.249  11.550  22.182  0.00  0.00    +0.000 C 
BRANCH  19  20
ATOM     20  C   UNL     1      -1.982  12.445  23.020  0.00  0.00    +0.000 A 
ATOM     21  C   UNL     1      -1.463  13.680  23.388  0.00  0.00    +0.000 A 
ATOM     22  C   UNL     1      -2.190  14.461  24.284  0.00  0.00    +0.000 A 
ATOM     23  C   UNL     1      -3.406  13.986  24.766  0.00  0.00    +0.000 A 
ATOM     24  C   UNL     1      -3.853  12.753  24.318  0.00  0.00    +0.000 A 
ATOM     25  N   UNL     1      -3.167  11.969  23.457  0.00  0.00    +0.000 NA
ENDBRANCH  19  20
ENDBRANCH   9  18
TORSDOF 3
ENDMDL
MODEL 8
REMARK VINA RESULT:      -7.1      9.098     10.921
REMARK  Name = 
REMARK  4 active torsions:
REMARK  status: ('A' for Active; 'I' for Inactive)
REMARK    1  A    between atoms: C_1  and  O_2
REMARK    2  A    between atoms: O_2  and  C_3
REMARK    3  A    between atoms: C_11  and  C_12
REMARK    4  A    between atoms: C_13  and  C_14
REMARK                            x       y       z     vdW  Elec       q    Type
REMARK                         _______ _______ _______ _____ _____    ______ ____
ROOT
ATOM      1  C   UNL     1      -2.868  12.579  21.150  0.00  0.00    +0.000 A 
ATOM      2  C   UNL     1      -3.220  12.878  22.479  0.00  0.00    +0.000 A 
ATOM      3  C   UNL     1      -2.522  12.335  23.545  0.00  0.00    +0.000 A 
ATOM      4  C   UNL     1      -1.472  11.471  23.293  0.00  0.00    +0.000 A 
ATOM      5  C   UNL     1      -1.103  11.139  21.976  0.00  0.00    +0.000 A 
ATOM      6  S   UNL     1       0.257  10.012  21.887  0.00  0.00    +0.000 S 
ATOM      7  C   UNL     1       0.465   9.751  20.159  0.00  0.00    +0.000 A 
ATOM      8  C   UNL     1       1.482   8.849  19.800  0.00  0.00    +0.000 A 
ATOM      9  C   UNL     1       1.762   8.562  18.464  0.00  0.00    +0.000 A 
ATOM     10  C   UNL     1       1.022   9.189  17.467  0.00  0.00    +0.000 A 
ATOM     11  C   UNL     1       0.004  10.089  17.818  0.00  0.00    +0.000 A 
ATOM     12  C   UNL     1      -0.288  10.377  19.169  0.00  0.00    +0.000 A 
ATOM     13  C   UNL     1      -1.380  11.350  19.476  0.00  0.00    +0.000 A 
ATOM     14  O   UNL     1      -1.927  11.883  18.513  0.00  0.00    +0.000 OA
ATOM     15  C   UNL     1      -1.793  11.688  20.883  0.00  0.00    +0.000 A 
ENDROOT
BRANCH   1  17
ATOM     16  C   UNL     1      -4.876  13.637  20.429  0.00  0.00    +0.000 C 
ATOM     17  O   UNL     1      -3.596  13.098  20.107  0.00  0.00    +0.000 OA
ENDBRANCH   1  17
BRANCH   9  18
ATOM     18  C   UNL     1       2.812   7.640  18.162  0.00  0.00    +0.000 C 
ATOM     19  C   UNL     1       3.716   6.909  17.849  0.00  0.00    +0.000 C 
BRANCH  19  20
ATOM     20  C   UNL     1       4.776   6.055  17.415  0.00  0.00    +0.000 A 
ATOM     21  C   UNL     1       6.097   6.487  17.410  0.00  0.00    +0.000 A 
ATOM     22  C   UNL     1       7.067   5.636  16.884  0.00  0.00    +0.000 A 
ATOM     23  C   UNL     1       6.685   4.391  16.397  0.00  0.00    +0.000 A 
ATOM     24  C   UNL     1       5.347   4.039  16.471  0.00  0.00    +0.000 A 
ATOM     25  N   UNL     1       4.381   4.844  16.966  0.00  0.00    +0.000 NA
ENDBRANCH  19  20
ENDBRANCH   9  18
TORSDOF 3
ENDMDL
MODEL 9
REMARK VINA RESULT:      -7.1      9.161     10.083
REMARK  Name = 
REMARK  4 active torsions:
REMARK  status: ('A' for Active; 'I' for Inactive)
REMARK    1  A    between atoms: C_1  and  O_2
REMARK    2  A    between atoms: O_2  and  C_3
REMARK    3  A    between atoms: C_11  and  C_12
REMARK    4  A    between atoms: C_13  and  C_14
REMARK                            x       y       z     vdW  Elec       q    Type
REMARK                         _______ _______ _______ _____ _____    ______ ____
ROOT
ATOM      1  C   UNL     1      -1.688  12.125  21.873  0.00  0.00    +0.000 A 
ATOM      2  C   UNL     1      -2.104  13.383  21.401  0.00  0.00    +0.000 A 
ATOM      3  C   UNL     1      -1.700  13.854  20.163  0.00  0.00    +0.000 A 
ATOM      4  C   UNL     1      -0.859  13.075  19.389  0.00  0.00    +0.000 A 
ATOM      5  C   UNL     1      -0.412  11.818  19.837  0.00  0.00    +0.000 A 
ATOM      6  S   UNL     1       0.661  11.001  18.693  0.00  0.00    +0.000 S 
ATOM      7  C   UNL     1       1.084   9.506  19.519  0.00  0.00    +0.000 A 
ATOM      8  C   UNL     1       1.974   8.664  18.830  0.00  0.00    +0.000 A 
ATOM      9  C   UNL     1       2.382   7.442  19.366  0.00  0.00    +0.000 A 
ATOM     10  C   UNL     1       1.889   7.047  20.605  0.00  0.00    +0.000 A 
ATOM     11  C   UNL     1       1.001   7.884  21.299  0.00  0.00    +0.000 A 
ATOM     12  C   UNL     1       0.592   9.125  20.764  0.00  0.00    +0.000 A 
ATOM     13  C   UNL     1      -0.361   9.966  21.551  0.00  0.00    +0.000 A 
ATOM     14  O   UNL     1      -0.771   9.489  22.606  0.00  0.00    +0.000 OA
ATOM     15  C   UNL     1      -0.820  11.321  21.086  0.00  0.00    +0.000 A 
ENDROOT
BRANCH   1  17
ATOM     16  C   UNL     1      -3.251  12.277  23.665  0.00  0.00    +0.000 C 
ATOM     17  O   UNL     1      -2.069  11.692  23.121  0.00  0.00    +0.000 OA
ENDBRANCH   1  17
BRANCH   9  18
ATOM     18  C   UNL     1       3.286   6.627  18.615  0.00  0.00    +0.000 C 
ATOM     19  C   UNL     1       4.084   6.004  17.963  0.00  0.00    +0.000 C 
BRANCH  19  20
ATOM     20  C   UNL     1       5.032   5.316  17.145  0.00  0.00    +0.000 A 
ATOM     21  C   UNL     1       6.328   5.075  17.586  0.00  0.00    +0.000 A 
ATOM     22  C   UNL     1       7.226   4.484  16.701  0.00  0.00    +0.000 A 
ATOM     23  C   UNL     1       6.797   4.147  15.422  0.00  0.00    +0.000 A 
ATOM     24  C   UNL     1       5.477   4.402  15.085  0.00  0.00    +0.000 A 
ATOM     25  N   UNL     1       4.584   4.981  15.916  0.00  0.00    +0.000 NA
ENDBRANCH  19  20
ENDBRANCH   9  18
TORSDOF 3
ENDMDL
