MODEL 1
REMARK VINA RESULT:      -6.5      0.000      0.000
REMARK  Name = 
REMARK  0 active torsions:
REMARK  status: ('A' for Active; 'I' for Inactive)
REMARK                            x       y       z     vdW  Elec       q    Type
REMARK                         _______ _______ _______ _____ _____    ______ ____
ROOT
ATOM      1  N   UNL     1       8.034   5.676  19.670  0.00  0.00    +0.000 N 
ATOM      2  C   UNL     1       6.891   5.248  19.038  0.00  0.00    +0.000 A 
ATOM      3  N   UNL     1       5.727   5.467  19.579  0.00  0.00    +0.000 NA
ATOM      4  C   UNL     1       4.580   5.000  18.910  0.00  0.00    +0.000 A 
ATOM      5  C   UNL     1       3.331   5.212  19.495  0.00  0.00    +0.000 A 
ATOM      6  C   UNL     1       2.169   4.736  18.883  0.00  0.00    +0.000 A 
ATOM      7  C   UNL     1       2.247   4.051  17.670  0.00  0.00    +0.000 A 
ATOM      8  C   UNL     1       3.486   3.845  17.062  0.00  0.00    +0.000 A 
ATOM      9  C   UNL     1       4.643   4.315  17.686  0.00  0.00    +0.000 A 
ATOM     10  N   UNL     1       5.888   4.084  17.097  0.00  0.00    +0.000 N 
ATOM     11  C   UNL     1       7.049   4.480  17.705  0.00  0.00    +0.000 A 
ATOM     12  O   UNL     1       8.166   4.238  17.273  0.00  0.00    +0.000 OA
ATOM     13  H   UNL     1       7.916   5.824  20.664  0.00  0.00    +0.000 HD
ATOM     14  H   UNL     1       8.877   5.175  19.403  0.00  0.00    +0.000 HD
ATOM     15  H   UNL     1       5.970   3.579  16.227  0.00  0.00    +0.000 HD
ENDROOT
TORSDOF 0
ENDMDL
MODEL 2
REMARK VINA RESULT:      -6.4      1.606      1.606
REMARK  Name = 
REMARK  0 active torsions:
REMARK  status: ('A' for Active; 'I' for Inactive)
REMARK                            x       y       z     vdW  Elec       q    Type
REMARK                         _______ _______ _______ _____ _____    ______ ____
ROOT
ATOM      1  N   UNL     1       7.296   7.158  16.965  0.00  0.00    +0.000 N 
ATOM      2  C   UNL     1       6.331   6.184  17.062  0.00  0.00    +0.000 A 
ATOM      3  N   UNL     1       5.110   6.508  17.377  0.00  0.00    +0.000 NA
ATOM      4  C   UNL     1       4.152   5.481  17.482  0.00  0.00    +0.000 A 
ATOM      5  C   UNL     1       2.846   5.818  17.840  0.00  0.00    +0.000 A 
ATOM      6  C   UNL     1       1.872   4.827  17.989  0.00  0.00    +0.000 A 
ATOM      7  C   UNL     1       2.196   3.488  17.768  0.00  0.00    +0.000 A 
ATOM      8  C   UNL     1       3.492   3.136  17.392  0.00  0.00    +0.000 A 
ATOM      9  C   UNL     1       4.461   4.130  17.256  0.00  0.00    +0.000 A 
ATOM     10  N   UNL     1       5.768   3.778  16.910  0.00  0.00    +0.000 N 
ATOM     11  C   UNL     1       6.760   4.718  16.822  0.00  0.00    +0.000 A 
ATOM     12  O   UNL     1       7.933   4.458  16.597  0.00  0.00    +0.000 OA
ATOM     13  H   UNL     1       7.071   8.003  17.476  0.00  0.00    +0.000 HD
ATOM     14  H   UNL     1       8.248   6.822  17.080  0.00  0.00    +0.000 HD
ATOM     15  H   UNL     1       6.029   2.815  16.759  0.00  0.00    +0.000 HD
ENDROOT
TORSDOF 0
ENDMDL
MODEL 3
REMARK VINA RESULT:      -6.2      1.462      2.025
REMARK  Name = 
REMARK  0 active torsions:
REMARK  status: ('A' for Active; 'I' for Inactive)
REMARK                            x       y       z     vdW  Elec       q    Type
REMARK                         _______ _______ _______ _____ _____    ______ ____
ROOT
ATOM      1  N   UNL     1       7.482   6.041  15.816  0.00  0.00    +0.000 N 
ATOM      2  C   UNL     1       6.593   5.528  16.730  0.00  0.00    +0.000 A 
ATOM      3  N   UNL     1       5.365   5.957  16.755  0.00  0.00    +0.000 NA
ATOM      4  C   UNL     1       4.487   5.419  17.716  0.00  0.00    +0.000 A 
ATOM      5  C   UNL     1       3.174   5.890  17.762  0.00  0.00    +0.000 A 
ATOM      6  C   UNL     1       2.280   5.409  18.722  0.00  0.00    +0.000 A 
ATOM      7  C   UNL     1       2.691   4.440  19.637  0.00  0.00    +0.000 A 
ATOM      8  C   UNL     1       3.994   3.946  19.594  0.00  0.00    +0.000 A 
ATOM      9  C   UNL     1       4.884   4.439  18.640  0.00  0.00    +0.000 A 
ATOM     10  N   UNL     1       6.199   3.969  18.613  0.00  0.00    +0.000 N 
ATOM     11  C   UNL     1       7.117   4.470  17.728  0.00  0.00    +0.000 A 
ATOM     12  O   UNL     1       8.297   4.150  17.711  0.00  0.00    +0.000 OA
ATOM     13  H   UNL     1       7.216   6.951  15.460  0.00  0.00    +0.000 HD
ATOM     14  H   UNL     1       8.459   5.947  16.078  0.00  0.00    +0.000 HD
ATOM     15  H   UNL     1       6.523   3.279  19.274  0.00  0.00    +0.000 HD
ENDROOT
TORSDOF 0
ENDMDL
MODEL 4
REMARK VINA RESULT:      -6.2      2.125      2.570
REMARK  Name = 
REMARK  0 active torsions:
REMARK  status: ('A' for Active; 'I' for Inactive)
REMARK                            x       y       z     vdW  Elec       q    Type
REMARK                         _______ _______ _______ _____ _____    ______ ____
ROOT
ATOM      1  N   UNL     1       6.863   4.291  18.235  0.00  0.00    +0.000 N 
ATOM      2  C   UNL     1       5.505   4.209  18.434  0.00  0.00    +0.000 A 
ATOM      3  N   UNL     1       5.037   3.553  19.457  0.00  0.00    +0.000 NA
ATOM      4  C   UNL     1       3.640   3.477  19.620  0.00  0.00    +0.000 A 
ATOM      5  C   UNL     1       3.130   2.758  20.701  0.00  0.00    +0.000 A 
ATOM      6  C   UNL     1       1.751   2.628  20.882  0.00  0.00    +0.000 A 
ATOM      7  C   UNL     1       0.868   3.230  19.986  0.00  0.00    +0.000 A 
ATOM      8  C   UNL     1       1.361   3.968  18.909  0.00  0.00    +0.000 A 
ATOM      9  C   UNL     1       2.739   4.083  18.729  0.00  0.00    +0.000 A 
ATOM     10  N   UNL     1       3.237   4.795  17.635  0.00  0.00    +0.000 N 
ATOM     11  C   UNL     1       4.582   4.883  17.394  0.00  0.00    +0.000 A 
ATOM     12  O   UNL     1       5.068   5.427  16.413  0.00  0.00    +0.000 OA
ATOM     13  H   UNL     1       7.385   3.556  18.696  0.00  0.00    +0.000 HD
ATOM     14  H   UNL     1       7.137   4.482  17.275  0.00  0.00    +0.000 HD
ATOM     15  H   UNL     1       2.618   5.227  16.966  0.00  0.00    +0.000 HD
ENDROOT
TORSDOF 0
ENDMDL
MODEL 5
REMARK VINA RESULT:      -6.2      1.699      2.125
REMARK  Name = 
REMARK  0 active torsions:
REMARK  status: ('A' for Active; 'I' for Inactive)
REMARK                            x       y       z     vdW  Elec       q    Type
REMARK                         _______ _______ _______ _____ _____    ______ ____
ROOT
ATOM      1  N   UNL     1       6.236   6.615  16.693  0.00  0.00    +0.000 N 
ATOM      2  C   UNL     1       5.522   5.607  17.297  0.00  0.00    +0.000 A 
ATOM      3  N   UNL     1       4.228   5.560  17.169  0.00  0.00    +0.000 NA
ATOM      4  C   UNL     1       3.529   4.522  17.815  0.00  0.00    +0.000 A 
ATOM      5  C   UNL     1       2.139   4.478  17.700  0.00  0.00    +0.000 A 
ATOM      6  C   UNL     1       1.403   3.485  18.352  0.00  0.00    +0.000 A 
ATOM      7  C   UNL     1       2.056   2.519  19.118  0.00  0.00    +0.000 A 
ATOM      8  C   UNL     1       3.446   2.539  19.230  0.00  0.00    +0.000 A 
ATOM      9  C   UNL     1       4.173   3.539  18.584  0.00  0.00    +0.000 A 
ATOM     10  N   UNL     1       5.562   3.581  18.718  0.00  0.00    +0.000 N 
ATOM     11  C   UNL     1       6.305   4.579  18.146  0.00  0.00    +0.000 A 
ATOM     12  O   UNL     1       7.511   4.707  18.294  0.00  0.00    +0.000 OA
ATOM     13  H   UNL     1       5.680   7.434  16.481  0.00  0.00    +0.000 HD
ATOM     14  H   UNL     1       7.141   6.803  17.115  0.00  0.00    +0.000 HD
ATOM     15  H   UNL     1       6.055   2.901  19.278  0.00  0.00    +0.000 HD
ENDROOT
TORSDOF 0
ENDMDL
MODEL 6
REMARK VINA RESULT:      -6.1      1.891      2.166
REMARK  Name = 
REMARK  0 active torsions:
REMARK  status: ('A' for Active; 'I' for Inactive)
REMARK                            x       y       z     vdW  Elec       q    Type
REMARK                         _______ _______ _______ _____ _____    ______ ____
ROOT
ATOM      1  N   UNL     1       8.159   4.137  17.707  0.00  0.00    +0.000 N 
ATOM      2  C   UNL     1       7.020   4.906  17.689  0.00  0.00    +0.000 A 
ATOM      3  N   UNL     1       6.126   4.766  18.626  0.00  0.00    +0.000 NA
ATOM      4  C   UNL     1       4.965   5.560  18.567  0.00  0.00    +0.000 A 
ATOM      5  C   UNL     1       3.993   5.400  19.556  0.00  0.00    +0.000 A 
ATOM      6  C   UNL     1       2.810   6.143  19.517  0.00  0.00    +0.000 A 
ATOM      7  C   UNL     1       2.596   7.063  18.491  0.00  0.00    +0.000 A 
ATOM      8  C   UNL     1       3.564   7.248  17.504  0.00  0.00    +0.000 A 
ATOM      9  C   UNL     1       4.738   6.495  17.544  0.00  0.00    +0.000 A 
ATOM     10  N   UNL     1       5.696   6.655  16.541  0.00  0.00    +0.000 N 
ATOM     11  C   UNL     1       6.835   5.894  16.515  0.00  0.00    +0.000 A 
ATOM     12  O   UNL     1       7.668   5.939  15.622  0.00  0.00    +0.000 OA
ATOM     13  H   UNL     1       8.064   3.285  18.246  0.00  0.00    +0.000 HD
ATOM     14  H   UNL     1       8.609   4.030  16.802  0.00  0.00    +0.000 HD
ATOM     15  H   UNL     1       5.557   7.304  15.781  0.00  0.00    +0.000 HD
ENDROOT
TORSDOF 0
ENDMDL
MODEL 7
REMARK VINA RESULT:      -6.1      1.796      2.586
REMARK  Name = 
REMARK  0 active torsions:
REMARK  status: ('A' for Active; 'I' for Inactive)
REMARK                            x       y       z     vdW  Elec       q    Type
REMARK                         _______ _______ _______ _____ _____    ______ ____
ROOT
ATOM      1  N   UNL     1       7.641   5.658  15.122  0.00  0.00    +0.000 N 
ATOM      2  C   UNL     1       6.777   5.586  16.188  0.00  0.00    +0.000 A 
ATOM      3  N   UNL     1       5.678   6.285  16.184  0.00  0.00    +0.000 NA
ATOM      4  C   UNL     1       4.825   6.198  17.301  0.00  0.00    +0.000 A 
ATOM      5  C   UNL     1       3.656   6.961  17.312  0.00  0.00    +0.000 A 
ATOM      6  C   UNL     1       2.799   6.931  18.414  0.00  0.00    +0.000 A 
ATOM      7  C   UNL     1       3.099   6.124  19.513  0.00  0.00    +0.000 A 
ATOM      8  C   UNL     1       4.254   5.342  19.511  0.00  0.00    +0.000 A 
ATOM      9  C   UNL     1       5.110   5.386  18.410  0.00  0.00    +0.000 A 
ATOM     10  N   UNL     1       6.283   4.628  18.417  0.00  0.00    +0.000 N 
ATOM     11  C   UNL     1       7.177   4.688  17.381  0.00  0.00    +0.000 A 
ATOM     12  O   UNL     1       8.252   4.106  17.369  0.00  0.00    +0.000 OA
ATOM     13  H   UNL     1       7.534   6.501  14.570  0.00  0.00    +0.000 HD
ATOM     14  H   UNL     1       8.599   5.399  15.338  0.00  0.00    +0.000 HD
ATOM     15  H   UNL     1       6.528   4.048  19.206  0.00  0.00    +0.000 HD
ENDROOT
TORSDOF 0
ENDMDL
MODEL 8
REMARK VINA RESULT:      -6.1      1.935      2.089
REMARK  Name = 
REMARK  0 active torsions:
REMARK  status: ('A' for Active; 'I' for Inactive)
REMARK                            x       y       z     vdW  Elec       q    Type
REMARK                         _______ _______ _______ _____ _____    ______ ____
ROOT
ATOM      1  N   UNL     1       6.037   6.968  16.575  0.00  0.00    +0.000 N 
ATOM      2  C   UNL     1       5.339   5.819  16.860  0.00  0.00    +0.000 A 
ATOM      3  N   UNL     1       4.093   5.890  17.233  0.00  0.00    +0.000 NA
ATOM      4  C   UNL     1       3.416   4.692  17.532  0.00  0.00    +0.000 A 
ATOM      5  C   UNL     1       2.087   4.762  17.953  0.00  0.00    +0.000 A 
ATOM      6  C   UNL     1       1.387   3.602  18.293  0.00  0.00    +0.000 A 
ATOM      7  C   UNL     1       2.010   2.357  18.201  0.00  0.00    +0.000 A 
ATOM      8  C   UNL     1       3.332   2.267  17.765  0.00  0.00    +0.000 A 
ATOM      9  C   UNL     1       4.027   3.431  17.438  0.00  0.00    +0.000 A 
ATOM     10  N   UNL     1       5.360   3.349  17.031  0.00  0.00    +0.000 N 
ATOM     11  C   UNL     1       6.093   4.473  16.756  0.00  0.00    +0.000 A 
ATOM     12  O   UNL     1       7.281   4.464  16.469  0.00  0.00    +0.000 OA
ATOM     13  H   UNL     1       5.643   7.797  17.002  0.00  0.00    +0.000 HD
ATOM     14  H   UNL     1       7.046   6.879  16.651  0.00  0.00    +0.000 HD
ATOM     15  H   UNL     1       5.836   2.461  16.971  0.00  0.00    +0.000 HD
ENDROOT
TORSDOF 0
ENDMDL
MODEL 9
REMARK VINA RESULT:      -6.1      1.393      2.430
REMARK  Name = 
REMARK  0 active torsions:
REMARK  status: ('A' for Active; 'I' for Inactive)
REMARK                            x       y       z     vdW  Elec       q    Type
REMARK                         _______ _______ _______ _____ _____    ______ ____
ROOT
ATOM      1  N   UNL     1       7.235   4.762  15.580  0.00  0.00    +0.000 N 
ATOM      2  C   UNL     1       6.340   4.427  16.568  0.00  0.00    +0.000 A 
ATOM      3  N   UNL     1       5.100   4.172  16.263  0.00  0.00    +0.000 NA
ATOM      4  C   UNL     1       4.209   3.848  17.304  0.00  0.00    +0.000 A 
ATOM      5  C   UNL     1       2.873   3.594  16.987  0.00  0.00    +0.000 A 
ATOM      6  C   UNL     1       1.947   3.302  17.992  0.00  0.00    +0.000 A 
ATOM      7  C   UNL     1       2.355   3.250  19.325  0.00  0.00    +0.000 A 
ATOM      8  C   UNL     1       3.690   3.483  19.658  0.00  0.00    +0.000 A 
ATOM      9  C   UNL     1       4.606   3.784  18.649  0.00  0.00    +0.000 A 
ATOM     10  N   UNL     1       5.936   4.050  18.981  0.00  0.00    +0.000 N 
ATOM     11  C   UNL     1       6.852   4.404  18.026  0.00  0.00    +0.000 A 
ATOM     12  O   UNL     1       8.008   4.719  18.269  0.00  0.00    +0.000 OA
ATOM     13  H   UNL     1       6.796   5.120  14.740  0.00  0.00    +0.000 HD
ATOM     14  H   UNL     1       8.044   5.286  15.903  0.00  0.00    +0.000 HD
ATOM     15  H   UNL     1       6.251   4.031  19.940  0.00  0.00    +0.000 HD
ENDROOT
TORSDOF 0
ENDMDL
