MODEL 1
REMARK VINA RESULT:      -7.6      0.000      0.000
REMARK  Name = 
REMARK  4 active torsions:
REMARK  status: ('A' for Active; 'I' for Inactive)
REMARK    1  A    between atoms: C_1  and  C_2
REMARK    2  A    between atoms: C_2  and  C_3
REMARK    3  A    between atoms: C_5  and  N_6
REMARK    4  A    between atoms: N_6  and  C_7
REMARK                            x       y       z     vdW  Elec       q    Type
REMARK                         _______ _______ _______ _____ _____    ______ ____
ROOT
ATOM      1  C   UNL     1       2.079   5.386  19.403  0.00  0.00    +0.000 A 
ATOM      2  C   UNL     1       1.702   6.282  20.433  0.00  0.00    +0.000 A 
ATOM      3  C   UNL     1       1.775   7.681  20.300  0.00  0.00    +0.000 A 
ATOM      4  C   UNL     1       2.323   8.177  19.115  0.00  0.00    +0.000 A 
ATOM      5  C   UNL     1       2.668   7.322  18.064  0.00  0.00    +0.000 A 
ATOM      6  C   UNL     1       2.522   5.948  18.205  0.00  0.00    +0.000 A 
ATOM      7  F   UNL     1       2.828   5.168  17.160  0.00  0.00    +0.000 F 
ENDROOT
BRANCH   1   9
ATOM      8  C   UNL     1       1.132   3.210  18.495  0.00  0.00    +0.000 C 
ATOM      9  C   UNL     1       1.998   3.863  19.598  0.00  0.00    +0.000 C 
ATOM     10  C   UNL     1       1.372   3.544  20.989  0.00  0.00    +0.000 C 
ATOM     11  O   UNL     1       1.706   2.236  21.464  0.00  0.00    +0.000 OA
ATOM     12  C   UNL     1       3.112   2.124  21.586  0.00  0.00    +0.000 C 
ATOM     13  C   UNL     1       3.830   2.465  20.284  0.00  0.00    +0.000 C 
ATOM     14  N   UNL     1       5.073   1.944  20.048  0.00  0.00    +0.000 N 
ATOM     15  N   UNL     1       3.345   3.266  19.401  0.00  0.00    +0.000 NA
ATOM     16  H   UNL     1       5.660   1.720  20.838  0.00  0.00    +0.000 HD
ATOM     17  H   UNL     1       5.556   2.405  19.280  0.00  0.00    +0.000 HD
ENDBRANCH   1   9
BRANCH   3  18
ATOM     18  N   UNL     1       1.438   8.486  21.397  0.00  0.00    +0.000 N 
ATOM     19  H   UNL     1       1.902   8.177  22.250  0.00  0.00    +0.000 HD
BRANCH  18  20
ATOM     20  C   UNL     1       0.030   8.852  21.639  0.00  0.00    +0.000 C 
ATOM     21  C   UNL     1      -0.362  10.020  20.757  0.00  0.00    +0.000 C 
ATOM     22  C   UNL     1      -0.060  11.238  21.600  0.00  0.00    +0.000 C 
ATOM     23  O   UNL     1      -0.132  10.845  22.973  0.00  0.00    +0.000 OA
ATOM     24  C   UNL     1      -0.190   9.411  23.043  0.00  0.00    +0.000 C 
ENDBRANCH  18  20
ENDBRANCH   3  18
TORSDOF 3
ENDMDL
MODEL 2
REMARK VINA RESULT:      -7.5      4.858      7.601
REMARK  Name = 
REMARK  4 active torsions:
REMARK  status: ('A' for Active; 'I' for Inactive)
REMARK    1  A    between atoms: C_1  and  C_2
REMARK    2  A    between atoms: C_2  and  C_3
REMARK    3  A    between atoms: C_5  and  N_6
REMARK    4  A    between atoms: N_6  and  C_7
REMARK                            x       y       z     vdW  Elec       q    Type
REMARK                         _______ _______ _______ _____ _____    ______ ____
ROOT
ATOM      1  C   UNL     1       4.547   4.386  17.914  0.00  0.00    +0.000 A 
ATOM      2  C   UNL     1       4.830   3.832  16.641  0.00  0.00    +0.000 A 
ATOM      3  C   UNL     1       6.104   3.884  16.046  0.00  0.00    +0.000 A 
ATOM      4  C   UNL     1       7.095   4.590  16.732  0.00  0.00    +0.000 A 
ATOM      5  C   UNL     1       6.860   5.114  18.007  0.00  0.00    +0.000 A 
ATOM      6  C   UNL     1       5.607   4.988  18.594  0.00  0.00    +0.000 A 
ATOM      7  F   UNL     1       5.436   5.470  19.832  0.00  0.00    +0.000 F 
ENDROOT
BRANCH   1   9
ATOM      8  C   UNL     1       2.114   3.796  17.482  0.00  0.00    +0.000 C 
ATOM      9  C   UNL     1       3.135   4.320  18.519  0.00  0.00    +0.000 C 
ATOM     10  C   UNL     1       2.697   5.740  18.988  0.00  0.00    +0.000 C 
ATOM     11  O   UNL     1       1.667   5.706  19.981  0.00  0.00    +0.000 OA
ATOM     12  C   UNL     1       2.129   4.998  21.116  0.00  0.00    +0.000 C 
ATOM     13  C   UNL     1       2.630   3.603  20.758  0.00  0.00    +0.000 C 
ATOM     14  N   UNL     1       2.627   2.624  21.714  0.00  0.00    +0.000 N 
ATOM     15  N   UNL     1       3.106   3.301  19.601  0.00  0.00    +0.000 NA
ATOM     16  H   UNL     1       2.713   2.896  22.682  0.00  0.00    +0.000 HD
ATOM     17  H   UNL     1       3.184   1.814  21.452  0.00  0.00    +0.000 HD
ENDBRANCH   1   9
BRANCH   3  18
ATOM     18  N   UNL     1       6.273   3.364  14.756  0.00  0.00    +0.000 N 
ATOM     19  H   UNL     1       7.159   2.868  14.661  0.00  0.00    +0.000 HD
BRANCH  18  20
ATOM     20  C   UNL     1       5.983   4.203  13.579  0.00  0.00    +0.000 C 
ATOM     21  C   UNL     1       4.997   3.498  12.669  0.00  0.00    +0.000 C 
ATOM     22  C   UNL     1       5.869   2.721  11.710  0.00  0.00    +0.000 C 
ATOM     23  O   UNL     1       7.130   3.388  11.630  0.00  0.00    +0.000 OA
ATOM     24  C   UNL     1       7.202   4.372  12.674  0.00  0.00    +0.000 C 
ENDBRANCH  18  20
ENDBRANCH   3  18
TORSDOF 3
ENDMDL
MODEL 3
REMARK VINA RESULT:      -7.4      1.364      1.872
REMARK  Name = 
REMARK  4 active torsions:
REMARK  status: ('A' for Active; 'I' for Inactive)
REMARK    1  A    between atoms: C_1  and  C_2
REMARK    2  A    between atoms: C_2  and  C_3
REMARK    3  A    between atoms: C_5  and  N_6
REMARK    4  A    between atoms: N_6  and  C_7
REMARK                            x       y       z     vdW  Elec       q    Type
REMARK                         _______ _______ _______ _____ _____    ______ ____
ROOT
ATOM      1  C   UNL     1       2.295   5.610  19.730  0.00  0.00    +0.000 A 
ATOM      2  C   UNL     1       1.875   6.571  20.683  0.00  0.00    +0.000 A 
ATOM      3  C   UNL     1       1.686   7.930  20.371  0.00  0.00    +0.000 A 
ATOM      4  C   UNL     1       2.010   8.335  19.074  0.00  0.00    +0.000 A 
ATOM      5  C   UNL     1       2.389   7.406  18.101  0.00  0.00    +0.000 A 
ATOM      6  C   UNL     1       2.504   6.060  18.426  0.00  0.00    +0.000 A 
ATOM      7  F   UNL     1       2.832   5.199  17.453  0.00  0.00    +0.000 F 
ENDROOT
BRANCH   1   9
ATOM      8  C   UNL     1       2.355   3.942  21.646  0.00  0.00    +0.000 C 
ATOM      9  C   UNL     1       2.506   4.138  20.119  0.00  0.00    +0.000 C 
ATOM     10  C   UNL     1       3.932   3.679  19.689  0.00  0.00    +0.000 C 
ATOM     11  O   UNL     1       4.042   2.259  19.545  0.00  0.00    +0.000 OA
ATOM     12  C   UNL     1       3.128   1.814  18.560  0.00  0.00    +0.000 C 
ATOM     13  C   UNL     1       1.699   2.254  18.861  0.00  0.00    +0.000 C 
ATOM     14  N   UNL     1       0.654   1.531  18.354  0.00  0.00    +0.000 N 
ATOM     15  N   UNL     1       1.415   3.311  19.539  0.00  0.00    +0.000 NA
ATOM     16  H   UNL     1       0.794   1.021  17.494  0.00  0.00    +0.000 HD
ATOM     17  H   UNL     1      -0.234   2.025  18.412  0.00  0.00    +0.000 HD
ENDBRANCH   1   9
BRANCH   3  18
ATOM     18  N   UNL     1       1.329   8.818  21.396  0.00  0.00    +0.000 N 
ATOM     19  H   UNL     1       1.832   8.621  22.260  0.00  0.00    +0.000 HD
BRANCH  18  20
ATOM     20  C   UNL     1      -0.093   9.124  21.644  0.00  0.00    +0.000 C 
ATOM     21  C   UNL     1      -0.516  10.326  20.825  0.00  0.00    +0.000 C 
ATOM     22  C   UNL     1      -0.260  11.504  21.737  0.00  0.00    +0.000 C 
ATOM     23  O   UNL     1      -0.329  11.034  23.085  0.00  0.00    +0.000 OA
ATOM     24  C   UNL     1      -0.341   9.597  23.075  0.00  0.00    +0.000 C 
ENDBRANCH  18  20
ENDBRANCH   3  18
TORSDOF 3
ENDMDL
MODEL 4
REMARK VINA RESULT:      -7.4      4.805      7.715
REMARK  Name = 
REMARK  4 active torsions:
REMARK  status: ('A' for Active; 'I' for Inactive)
REMARK    1  A    between atoms: C_1  and  C_2
REMARK    2  A    between atoms: C_2  and  C_3
REMARK    3  A    between atoms: C_5  and  N_6
REMARK    4  A    between atoms: N_6  and  C_7
REMARK                            x       y       z     vdW  Elec       q    Type
REMARK                         _______ _______ _______ _____ _____    ______ ____
ROOT
ATOM      1  C   UNL     1       3.986   4.145  17.316  0.00  0.00    +0.000 A 
ATOM      2  C   UNL     1       4.748   3.550  16.280  0.00  0.00    +0.000 A 
ATOM      3  C   UNL     1       5.533   4.293  15.379  0.00  0.00    +0.000 A 
ATOM      4  C   UNL     1       5.475   5.684  15.486  0.00  0.00    +0.000 A 
ATOM      5  C   UNL     1       4.764   6.301  16.520  0.00  0.00    +0.000 A 
ATOM      6  C   UNL     1       4.052   5.533  17.434  0.00  0.00    +0.000 A 
ATOM      7  F   UNL     1       3.418   6.163  18.431  0.00  0.00    +0.000 F 
ENDROOT
BRANCH   1   9
ATOM      8  C   UNL     1       3.581   1.815  18.245  0.00  0.00    +0.000 C 
ATOM      9  C   UNL     1       3.130   3.295  18.269  0.00  0.00    +0.000 C 
ATOM     10  C   UNL     1       1.633   3.374  17.843  0.00  0.00    +0.000 C 
ATOM     11  O   UNL     1       0.732   3.056  18.908  0.00  0.00    +0.000 OA
ATOM     12  C   UNL     1       0.927   3.963  19.977  0.00  0.00    +0.000 C 
ATOM     13  C   UNL     1       2.379   3.998  20.442  0.00  0.00    +0.000 C 
ATOM     14  N   UNL     1       2.664   4.386  21.723  0.00  0.00    +0.000 N 
ATOM     15  N   UNL     1       3.373   3.724  19.670  0.00  0.00    +0.000 NA
ATOM     16  H   UNL     1       2.029   5.020  22.186  0.00  0.00    +0.000 HD
ATOM     17  H   UNL     1       3.649   4.599  21.863  0.00  0.00    +0.000 HD
ENDBRANCH   1   9
BRANCH   3  18
ATOM     18  N   UNL     1       6.203   3.620  14.348  0.00  0.00    +0.000 N 
ATOM     19  H   UNL     1       7.174   3.426  14.591  0.00  0.00    +0.000 HD
BRANCH  18  20
ATOM     20  C   UNL     1       6.067   4.084  12.955  0.00  0.00    +0.000 C 
ATOM     21  C   UNL     1       4.971   3.307  12.254  0.00  0.00    +0.000 C 
ATOM     22  C   UNL     1       5.690   2.132  11.632  0.00  0.00    +0.000 C 
ATOM     23  O   UNL     1       7.050   2.517  11.420  0.00  0.00    +0.000 OA
ATOM     24  C   UNL     1       7.297   3.752  12.112  0.00  0.00    +0.000 C 
ENDBRANCH  18  20
ENDBRANCH   3  18
TORSDOF 3
ENDMDL
MODEL 5
REMARK VINA RESULT:      -7.4      5.006      7.854
REMARK  Name = 
REMARK  4 active torsions:
REMARK  status: ('A' for Active; 'I' for Inactive)
REMARK    1  A    between atoms: C_1  and  C_2
REMARK    2  A    between atoms: C_2  and  C_3
REMARK    3  A    between atoms: C_5  and  N_6
REMARK    4  A    between atoms: N_6  and  C_7
REMARK                            x       y       z     vdW  Elec       q    Type
REMARK                         _______ _______ _______ _____ _____    ______ ____
ROOT
ATOM      1  C   UNL     1       4.243   4.629  16.970  0.00  0.00    +0.000 A 
ATOM      2  C   UNL     1       4.939   3.869  15.998  0.00  0.00    +0.000 A 
ATOM      3  C   UNL     1       5.754   4.448  15.007  0.00  0.00    +0.000 A 
ATOM      4  C   UNL     1       5.795   5.843  14.956  0.00  0.00    +0.000 A 
ATOM      5  C   UNL     1       5.152   6.621  15.923  0.00  0.00    +0.000 A 
ATOM      6  C   UNL     1       4.408   6.014  16.928  0.00  0.00    +0.000 A 
ATOM      7  F   UNL     1       3.841   6.796  17.856  0.00  0.00    +0.000 F 
ENDROOT
BRANCH   1   9
ATOM      8  C   UNL     1       1.854   4.206  17.723  0.00  0.00    +0.000 C 
ATOM      9  C   UNL     1       3.351   3.955  18.024  0.00  0.00    +0.000 C 
ATOM     10  C   UNL     1       3.685   4.523  19.436  0.00  0.00    +0.000 C 
ATOM     11  O   UNL     1       3.297   3.644  20.498  0.00  0.00    +0.000 OA
ATOM     12  C   UNL     1       3.973   2.409  20.356  0.00  0.00    +0.000 C 
ATOM     13  C   UNL     1       3.751   1.786  18.982  0.00  0.00    +0.000 C 
ATOM     14  N   UNL     1       3.872   0.432  18.832  0.00  0.00    +0.000 N 
ATOM     15  N   UNL     1       3.496   2.479  17.927  0.00  0.00    +0.000 NA
ATOM     16  H   UNL     1       4.487  -0.069  19.456  0.00  0.00    +0.000 HD
ATOM     17  H   UNL     1       3.935   0.145  17.858  0.00  0.00    +0.000 HD
ENDBRANCH   1   9
BRANCH   3  18
ATOM     18  N   UNL     1       6.353   3.617  14.050  0.00  0.00    +0.000 N 
ATOM     19  H   UNL     1       7.308   3.372  14.307  0.00  0.00    +0.000 HD
BRANCH  18  20
ATOM     20  C   UNL     1       6.234   3.940  12.616  0.00  0.00    +0.000 C 
ATOM     21  C   UNL     1       5.066   3.189  12.010  0.00  0.00    +0.000 C 
ATOM     22  C   UNL     1       5.674   1.898  11.513  0.00  0.00    +0.000 C 
ATOM     23  O   UNL     1       7.058   2.141  11.252  0.00  0.00    +0.000 OA
ATOM     24  C   UNL     1       7.419   3.417  11.806  0.00  0.00    +0.000 C 
ENDBRANCH  18  20
ENDBRANCH   3  18
TORSDOF 3
ENDMDL
MODEL 6
REMARK VINA RESULT:      -7.2      3.675      5.780
REMARK  Name = 
REMARK  4 active torsions:
REMARK  status: ('A' for Active; 'I' for Inactive)
REMARK    1  A    between atoms: C_1  and  C_2
REMARK    2  A    between atoms: C_2  and  C_3
REMARK    3  A    between atoms: C_5  and  N_6
REMARK    4  A    between atoms: N_6  and  C_7
REMARK                            x       y       z     vdW  Elec       q    Type
REMARK                         _______ _______ _______ _____ _____    ______ ____
ROOT
ATOM      1  C   UNL     1       4.729   5.916  17.834  0.00  0.00    +0.000 A 
ATOM      2  C   UNL     1       4.173   5.448  19.051  0.00  0.00    +0.000 A 
ATOM      3  C   UNL     1       3.000   5.981  19.615  0.00  0.00    +0.000 A 
ATOM      4  C   UNL     1       2.423   7.074  18.964  0.00  0.00    +0.000 A 
ATOM      5  C   UNL     1       2.923   7.534  17.743  0.00  0.00    +0.000 A 
ATOM      6  C   UNL     1       4.047   6.942  17.179  0.00  0.00    +0.000 A 
ATOM      7  F   UNL     1       4.469   7.389  15.989  0.00  0.00    +0.000 F 
ENDROOT
BRANCH   1   9
ATOM      8  C   UNL     1       6.852   4.629  18.374  0.00  0.00    +0.000 C 
ATOM      9  C   UNL     1       6.023   5.315  17.262  0.00  0.00    +0.000 C 
ATOM     10  C   UNL     1       6.883   6.439  16.611  0.00  0.00    +0.000 C 
ATOM     11  O   UNL     1       7.814   5.941  15.645  0.00  0.00    +0.000 OA
ATOM     12  C   UNL     1       7.111   5.279  14.611  0.00  0.00    +0.000 C 
ATOM     13  C   UNL     1       6.197   4.183  15.148  0.00  0.00    +0.000 C 
ATOM     14  N   UNL     1       5.852   3.139  14.334  0.00  0.00    +0.000 N 
ATOM     15  N   UNL     1       5.685   4.208  16.329  0.00  0.00    +0.000 NA
ATOM     16  H   UNL     1       5.828   3.293  13.336  0.00  0.00    +0.000 HD
ATOM     17  H   UNL     1       5.071   2.596  14.695  0.00  0.00    +0.000 HD
ENDBRANCH   1   9
BRANCH   3  18
ATOM     18  N   UNL     1       2.561   5.494  20.854  0.00  0.00    +0.000 N 
ATOM     19  H   UNL     1       3.340   5.291  21.479  0.00  0.00    +0.000 HD
BRANCH  18  20
ATOM     20  C   UNL     1       1.524   4.447  20.909  0.00  0.00    +0.000 C 
ATOM     21  C   UNL     1       2.039   3.247  21.680  0.00  0.00    +0.000 C 
ATOM     22  C   UNL     1       2.659   2.365  20.622  0.00  0.00    +0.000 C 
ATOM     23  O   UNL     1       2.017   2.659  19.379  0.00  0.00    +0.000 OA
ATOM     24  C   UNL     1       1.230   3.852  19.533  0.00  0.00    +0.000 C 
ENDBRANCH  18  20
ENDBRANCH   3  18
TORSDOF 3
ENDMDL
MODEL 7
REMARK VINA RESULT:      -7.2      1.620      2.110
REMARK  Name = 
REMARK  4 active torsions:
REMARK  status: ('A' for Active; 'I' for Inactive)
REMARK    1  A    between atoms: C_1  and  C_2
REMARK    2  A    between atoms: C_2  and  C_3
REMARK    3  A    between atoms: C_5  and  N_6
REMARK    4  A    between atoms: N_6  and  C_7
REMARK                            x       y       z     vdW  Elec       q    Type
REMARK                         _______ _______ _______ _____ _____    ______ ____
ROOT
ATOM      1  C   UNL     1       3.161   5.832  18.704  0.00  0.00    +0.000 A 
ATOM      2  C   UNL     1       2.333   6.653  19.508  0.00  0.00    +0.000 A 
ATOM      3  C   UNL     1       2.040   7.992  19.193  0.00  0.00    +0.000 A 
ATOM      4  C   UNL     1       2.672   8.532  18.071  0.00  0.00    +0.000 A 
ATOM      5  C   UNL     1       3.464   7.739  17.234  0.00  0.00    +0.000 A 
ATOM      6  C   UNL     1       3.680   6.401  17.540  0.00  0.00    +0.000 A 
ATOM      7  F   UNL     1       4.412   5.668  16.691  0.00  0.00    +0.000 F 
ENDROOT
BRANCH   1   9
ATOM      8  C   UNL     1       4.995   4.139  19.184  0.00  0.00    +0.000 C 
ATOM      9  C   UNL     1       3.469   4.377  19.095  0.00  0.00    +0.000 C 
ATOM     10  C   UNL     1       2.866   3.408  18.034  0.00  0.00    +0.000 C 
ATOM     11  O   UNL     1       2.657   2.086  18.541  0.00  0.00    +0.000 OA
ATOM     12  C   UNL     1       1.764   2.138  19.637  0.00  0.00    +0.000 C 
ATOM     13  C   UNL     1       2.239   3.101  20.720  0.00  0.00    +0.000 C 
ATOM     14  N   UNL     1       1.824   2.916  22.011  0.00  0.00    +0.000 N 
ATOM     15  N   UNL     1       2.983   4.123  20.477  0.00  0.00    +0.000 NA
ATOM     16  H   UNL     1       0.935   2.465  22.171  0.00  0.00    +0.000 HD
ATOM     17  H   UNL     1       1.999   3.725  22.603  0.00  0.00    +0.000 HD
ENDBRANCH   1   9
BRANCH   3  18
ATOM     18  N   UNL     1       1.260   8.744  20.082  0.00  0.00    +0.000 N 
ATOM     19  H   UNL     1       1.508   9.733  20.060  0.00  0.00    +0.000 HD
BRANCH  18  20
ATOM     20  C   UNL     1       1.043   8.263  21.459  0.00  0.00    +0.000 C 
ATOM     21  C   UNL     1      -0.427   8.363  21.818  0.00  0.00    +0.000 C 
ATOM     22  C   UNL     1      -0.564   9.734  22.438  0.00  0.00    +0.000 C 
ATOM     23  O   UNL     1       0.710  10.098  22.976  0.00  0.00    +0.000 OA
ATOM     24  C   UNL     1       1.697   9.170  22.500  0.00  0.00    +0.000 C 
ENDBRANCH  18  20
ENDBRANCH   3  18
TORSDOF 3
ENDMDL
MODEL 8
REMARK VINA RESULT:      -7.2      2.312      7.212
REMARK  Name = 
REMARK  4 active torsions:
REMARK  status: ('A' for Active; 'I' for Inactive)
REMARK    1  A    between atoms: C_1  and  C_2
REMARK    2  A    between atoms: C_2  and  C_3
REMARK    3  A    between atoms: C_5  and  N_6
REMARK    4  A    between atoms: N_6  and  C_7
REMARK                            x       y       z     vdW  Elec       q    Type
REMARK                         _______ _______ _______ _____ _____    ______ ____
ROOT
ATOM      1  C   UNL     1       1.118   9.236  19.998  0.00  0.00    +0.000 A 
ATOM      2  C   UNL     1       1.485   7.996  20.577  0.00  0.00    +0.000 A 
ATOM      3  C   UNL     1       2.217   7.012  19.888  0.00  0.00    +0.000 A 
ATOM      4  C   UNL     1       2.512   7.265  18.547  0.00  0.00    +0.000 A 
ATOM      5  C   UNL     1       2.199   8.493  17.956  0.00  0.00    +0.000 A 
ATOM      6  C   UNL     1       1.533   9.470  18.687  0.00  0.00    +0.000 A 
ATOM      7  F   UNL     1       1.287  10.646  18.094  0.00  0.00    +0.000 F 
ENDROOT
BRANCH   1   9
ATOM      8  C   UNL     1      -0.109   9.724  22.168  0.00  0.00    +0.000 C 
ATOM      9  C   UNL     1       0.303  10.276  20.783  0.00  0.00    +0.000 C 
ATOM     10  C   UNL     1      -0.982  10.650  19.985  0.00  0.00    +0.000 C 
ATOM     11  O   UNL     1      -1.522  11.921  20.360  0.00  0.00    +0.000 OA
ATOM     12  C   UNL     1      -0.558  12.930  20.126  0.00  0.00    +0.000 C 
ATOM     13  C   UNL     1       0.763  12.636  20.828  0.00  0.00    +0.000 C 
ATOM     14  N   UNL     1       1.599  13.672  21.147  0.00  0.00    +0.000 N 
ATOM     15  N   UNL     1       1.166  11.444  21.102  0.00  0.00    +0.000 NA
ATOM     16  H   UNL     1       1.569  14.506  20.579  0.00  0.00    +0.000 HD
ATOM     17  H   UNL     1       2.536  13.363  21.394  0.00  0.00    +0.000 HD
ENDBRANCH   1   9
BRANCH   3  18
ATOM     18  N   UNL     1       2.480   5.791  20.524  0.00  0.00    +0.000 N 
ATOM     19  H   UNL     1       3.401   5.781  20.958  0.00  0.00    +0.000 HD
BRANCH  18  20
ATOM     20  C   UNL     1       2.182   4.522  19.834  0.00  0.00    +0.000 C 
ATOM     21  C   UNL     1       1.042   3.807  20.531  0.00  0.00    +0.000 C 
ATOM     22  C   UNL     1       1.726   2.920  21.545  0.00  0.00    +0.000 C 
ATOM     23  O   UNL     1       3.044   2.645  21.065  0.00  0.00    +0.000 OA
ATOM     24  C   UNL     1       3.325   3.516  19.957  0.00  0.00    +0.000 C 
ENDBRANCH  18  20
ENDBRANCH   3  18
TORSDOF 3
ENDMDL
MODEL 9
REMARK VINA RESULT:      -7.2      1.015      1.123
REMARK  Name = 
REMARK  4 active torsions:
REMARK  status: ('A' for Active; 'I' for Inactive)
REMARK    1  A    between atoms: C_1  and  C_2
REMARK    2  A    between atoms: C_2  and  C_3
REMARK    3  A    between atoms: C_5  and  N_6
REMARK    4  A    between atoms: N_6  and  C_7
REMARK                            x       y       z     vdW  Elec       q    Type
REMARK                         _______ _______ _______ _____ _____    ______ ____
ROOT
ATOM      1  C   UNL     1       2.598   5.410  18.623  0.00  0.00    +0.000 A 
ATOM      2  C   UNL     1       1.983   6.535  19.227  0.00  0.00    +0.000 A 
ATOM      3  C   UNL     1       2.261   7.861  18.846  0.00  0.00    +0.000 A 
ATOM      4  C   UNL     1       3.251   8.048  17.879  0.00  0.00    +0.000 A 
ATOM      5  C   UNL     1       3.848   6.960  17.235  0.00  0.00    +0.000 A 
ATOM      6  C   UNL     1       3.502   5.662  17.590  0.00  0.00    +0.000 A 
ATOM      7  F   UNL     1       4.069   4.649  16.921  0.00  0.00    +0.000 F 
ENDROOT
BRANCH   1   9
ATOM      8  C   UNL     1       1.464   3.222  18.005  0.00  0.00    +0.000 C 
ATOM      9  C   UNL     1       2.276   3.979  19.082  0.00  0.00    +0.000 C 
ATOM     10  C   UNL     1       1.447   4.024  20.401  0.00  0.00    +0.000 C 
ATOM     11  O   UNL     1       1.530   2.810  21.154  0.00  0.00    +0.000 OA
ATOM     12  C   UNL     1       2.880   2.561  21.499  0.00  0.00    +0.000 C 
ATOM     13  C   UNL     1       3.791   2.544  20.277  0.00  0.00    +0.000 C 
ATOM     14  N   UNL     1       4.966   1.844  20.325  0.00  0.00    +0.000 N 
ATOM     15  N   UNL     1       3.537   3.201  19.198  0.00  0.00    +0.000 NA
ATOM     16  H   UNL     1       5.415   1.718  21.220  0.00  0.00    +0.000 HD
ATOM     17  H   UNL     1       5.600   2.080  19.565  0.00  0.00    +0.000 HD
ENDBRANCH   1   9
BRANCH   3  18
ATOM     18  N   UNL     1       1.650   8.910  19.546  0.00  0.00    +0.000 N 
ATOM     19  H   UNL     1       2.311   9.655  19.764  0.00  0.00    +0.000 HD
BRANCH  18  20
ATOM     20  C   UNL     1       0.756   8.617  20.681  0.00  0.00    +0.000 C 
ATOM     21  C   UNL     1      -0.418   9.577  20.679  0.00  0.00    +0.000 C 
ATOM     22  C   UNL     1       0.046  10.730  21.538  0.00  0.00    +0.000 C 
ATOM     23  O   UNL     1       1.034  10.230  22.442  0.00  0.00    +0.000 OA
ATOM     24  C   UNL     1       1.416   8.908  22.027  0.00  0.00    +0.000 C 
ENDBRANCH  18  20
ENDBRANCH   3  18
TORSDOF 3
ENDMDL
