MODEL 1
REMARK VINA RESULT:      -6.5      0.000      0.000
REMARK  Name = 
REMARK  8 active torsions:
REMARK  status: ('A' for Active; 'I' for Inactive)
REMARK    1  A    between atoms: C_1  and  O_2
REMARK    2  A    between atoms: O_2  and  C_3
REMARK    3  A    between atoms: C_5  and  N_6
REMARK    4  A    between atoms: C_7  and  C_9
REMARK    5  A    between atoms: C_9  and  C_10
REMARK    6  A    between atoms: C_14  and  N_15
REMARK    7  A    between atoms: C_17  and  C_18
REMARK    8  A    between atoms: C_17  and  C_19
REMARK                            x       y       z     vdW  Elec       q    Type
REMARK                         _______ _______ _______ _____ _____    ______ ____
ROOT
ATOM      1  N   UNL     1       4.952   5.956  18.333  0.00  0.00    +0.000 N 
ATOM      2  C   UNL     1       3.785   6.689  18.375  0.00  0.00    +0.000 C 
ATOM      3  O   UNL     1       3.442   7.463  17.478  0.00  0.00    +0.000 OA
ATOM      4  H   UNL     1       5.178   5.365  19.128  0.00  0.00    +0.000 HD
ENDROOT
BRANCH   1   7
ATOM      5  C   UNL     1       7.037   4.802  15.867  0.00  0.00    +0.000 C 
ATOM      6  C   UNL     1       7.184   5.279  17.333  0.00  0.00    +0.000 C 
ATOM      7  C   UNL     1       5.868   6.057  17.182  0.00  0.00    +0.000 C 
ATOM      8  C   UNL     1       5.511   5.153  15.958  0.00  0.00    +0.000 C 
ATOM      9  C   UNL     1       4.641   3.926  16.247  0.00  0.00    +0.000 C 
ATOM     10  C   UNL     1       4.940   5.951  14.782  0.00  0.00    +0.000 C 
BRANCH   5  12
ATOM     11  C   UNL     1       7.797   4.999  13.562  0.00  0.00    +0.000 C 
ATOM     12  O   UNL     1       7.806   5.528  14.879  0.00  0.00    +0.000 OA
ENDBRANCH   5  12
ENDBRANCH   1   7
BRANCH   2  13
ATOM     13  C   UNL     1       2.928   6.462  19.600  0.00  0.00    +0.000 C 
BRANCH  13  14
ATOM     14  C   UNL     1       2.306   5.089  19.646  0.00  0.00    +0.000 A 
ATOM     15  C   UNL     1       1.798   4.503  18.483  0.00  0.00    +0.000 A 
ATOM     16  C   UNL     1       1.181   3.254  18.540  0.00  0.00    +0.000 A 
ATOM     17  C   UNL     1       1.064   2.586  19.759  0.00  0.00    +0.000 A 
ATOM     18  C   UNL     1       1.532   3.166  20.939  0.00  0.00    +0.000 A 
ATOM     19  C   UNL     1       2.194   4.395  20.865  0.00  0.00    +0.000 A 
BRANCH  18  20
ATOM     20  N   UNL     1       1.535   2.430  22.130  0.00  0.00    +0.000 N 
ATOM     21  H   UNL     1       0.760   1.782  22.217  0.00  0.00    +0.000 HD
ATOM     22  H   UNL     1       1.662   2.998  22.961  0.00  0.00    +0.000 HD
ENDBRANCH  18  20
ENDBRANCH  13  14
ENDBRANCH   2  13
TORSDOF 5
ENDMDL
MODEL 2
REMARK VINA RESULT:      -6.5      2.818      7.055
REMARK  Name = 
REMARK  8 active torsions:
REMARK  status: ('A' for Active; 'I' for Inactive)
REMARK    1  A    between atoms: C_1  and  O_2
REMARK    2  A    between atoms: O_2  and  C_3
REMARK    3  A    between atoms: C_5  and  N_6
REMARK    4  A    between atoms: C_7  and  C_9
REMARK    5  A    between atoms: C_9  and  C_10
REMARK    6  A    between atoms: C_14  and  N_15
REMARK    7  A    between atoms: C_17  and  C_18
REMARK    8  A    between atoms: C_17  and  C_19
REMARK                            x       y       z     vdW  Elec       q    Type
REMARK                         _______ _______ _______ _____ _____    ______ ____
ROOT
ATOM      1  N   UNL     1       5.440   3.697  17.681  0.00  0.00    +0.000 N 
ATOM      2  C   UNL     1       5.394   4.376  16.483  0.00  0.00    +0.000 C 
ATOM      3  O   UNL     1       4.343   4.616  15.884  0.00  0.00    +0.000 OA
ATOM      4  H   UNL     1       6.349   3.510  18.094  0.00  0.00    +0.000 HD
ENDROOT
BRANCH   1   7
ATOM      5  C   UNL     1       3.205   3.254  20.245  0.00  0.00    +0.000 C 
ATOM      6  C   UNL     1       4.414   2.482  19.660  0.00  0.00    +0.000 C 
ATOM      7  C   UNL     1       4.204   3.220  18.329  0.00  0.00    +0.000 C 
ATOM      8  C   UNL     1       3.385   4.307  19.096  0.00  0.00    +0.000 C 
ATOM      9  C   UNL     1       4.158   5.548  19.552  0.00  0.00    +0.000 C 
ATOM     10  C   UNL     1       2.105   4.712  18.359  0.00  0.00    +0.000 C 
BRANCH   5  12
ATOM     11  C   UNL     1       1.197   2.636  21.477  0.00  0.00    +0.000 C 
ATOM     12  O   UNL     1       1.946   2.541  20.274  0.00  0.00    +0.000 OA
ENDBRANCH   5  12
ENDBRANCH   1   7
BRANCH   2  13
ATOM     13  C   UNL     1       6.734   4.832  15.952  0.00  0.00    +0.000 C 
BRANCH  13  14
ATOM     14  C   UNL     1       6.897   4.602  14.470  0.00  0.00    +0.000 A 
ATOM     15  C   UNL     1       7.686   5.464  13.703  0.00  0.00    +0.000 A 
ATOM     16  C   UNL     1       7.795   5.276  12.326  0.00  0.00    +0.000 A 
ATOM     17  C   UNL     1       7.113   4.228  11.707  0.00  0.00    +0.000 A 
ATOM     18  C   UNL     1       6.292   3.375  12.446  0.00  0.00    +0.000 A 
ATOM     19  C   UNL     1       6.228   3.541  13.833  0.00  0.00    +0.000 A 
BRANCH  18  20
ATOM     20  N   UNL     1       5.725   2.248  11.840  0.00  0.00    +0.000 N 
ATOM     21  H   UNL     1       5.092   2.462  11.078  0.00  0.00    +0.000 HD
ATOM     22  H   UNL     1       5.328   1.586  12.500  0.00  0.00    +0.000 HD
ENDBRANCH  18  20
ENDBRANCH  13  14
ENDBRANCH   2  13
TORSDOF 5
ENDMDL
MODEL 3
REMARK VINA RESULT:      -6.4      2.160      2.843
REMARK  Name = 
REMARK  8 active torsions:
REMARK  status: ('A' for Active; 'I' for Inactive)
REMARK    1  A    between atoms: C_1  and  O_2
REMARK    2  A    between atoms: O_2  and  C_3
REMARK    3  A    between atoms: C_5  and  N_6
REMARK    4  A    between atoms: C_7  and  C_9
REMARK    5  A    between atoms: C_9  and  C_10
REMARK    6  A    between atoms: C_14  and  N_15
REMARK    7  A    between atoms: C_17  and  C_18
REMARK    8  A    between atoms: C_17  and  C_19
REMARK                            x       y       z     vdW  Elec       q    Type
REMARK                         _______ _______ _______ _____ _____    ______ ____
ROOT
ATOM      1  N   UNL     1       5.335   3.408  17.278  0.00  0.00    +0.000 N 
ATOM      2  C   UNL     1       5.393   3.570  18.645  0.00  0.00    +0.000 C 
ATOM      3  O   UNL     1       6.264   4.237  19.210  0.00  0.00    +0.000 OA
ATOM      4  H   UNL     1       4.604   2.816  16.893  0.00  0.00    +0.000 HD
ENDROOT
BRANCH   1   7
ATOM      5  C   UNL     1       6.445   5.323  14.658  0.00  0.00    +0.000 C 
ATOM      6  C   UNL     1       6.098   3.831  14.894  0.00  0.00    +0.000 C 
ATOM      7  C   UNL     1       6.332   4.046  16.397  0.00  0.00    +0.000 C 
ATOM      8  C   UNL     1       6.147   5.581  16.176  0.00  0.00    +0.000 C 
ATOM      9  C   UNL     1       4.741   6.141  16.412  0.00  0.00    +0.000 C 
ATOM     10  C   UNL     1       7.190   6.415  16.926  0.00  0.00    +0.000 C 
BRANCH   5  12
ATOM     11  C   UNL     1       8.034   5.459  12.817  0.00  0.00    +0.000 C 
ATOM     12  O   UNL     1       7.793   5.601  14.210  0.00  0.00    +0.000 OA
ENDBRANCH   5  12
ENDBRANCH   1   7
BRANCH   2  13
ATOM     13  C   UNL     1       4.289   2.885  19.420  0.00  0.00    +0.000 C 
BRANCH  13  14
ATOM     14  C   UNL     1       3.162   3.813  19.796  0.00  0.00    +0.000 A 
ATOM     15  C   UNL     1       1.923   3.298  20.190  0.00  0.00    +0.000 A 
ATOM     16  C   UNL     1       0.869   4.160  20.490  0.00  0.00    +0.000 A 
ATOM     17  C   UNL     1       1.045   5.540  20.395  0.00  0.00    +0.000 A 
ATOM     18  C   UNL     1       2.261   6.078  19.971  0.00  0.00    +0.000 A 
ATOM     19  C   UNL     1       3.327   5.208  19.720  0.00  0.00    +0.000 A 
BRANCH  18  20
ATOM     20  N   UNL     1       2.470   7.461  20.012  0.00  0.00    +0.000 N 
ATOM     21  H   UNL     1       3.356   7.734  20.422  0.00  0.00    +0.000 HD
ATOM     22  H   UNL     1       1.687   7.981  20.398  0.00  0.00    +0.000 HD
ENDBRANCH  18  20
ENDBRANCH  13  14
ENDBRANCH   2  13
TORSDOF 5
ENDMDL
MODEL 4
REMARK VINA RESULT:      -6.4      4.050      6.863
REMARK  Name = 
REMARK  8 active torsions:
REMARK  status: ('A' for Active; 'I' for Inactive)
REMARK    1  A    between atoms: C_1  and  O_2
REMARK    2  A    between atoms: O_2  and  C_3
REMARK    3  A    between atoms: C_5  and  N_6
REMARK    4  A    between atoms: C_7  and  C_9
REMARK    5  A    between atoms: C_9  and  C_10
REMARK    6  A    between atoms: C_14  and  N_15
REMARK    7  A    between atoms: C_17  and  C_18
REMARK    8  A    between atoms: C_17  and  C_19
REMARK                            x       y       z     vdW  Elec       q    Type
REMARK                         _______ _______ _______ _____ _____    ______ ____
ROOT
ATOM      1  N   UNL     1       1.827   8.182  19.637  0.00  0.00    +0.000 N 
ATOM      2  C   UNL     1       2.189   6.863  19.803  0.00  0.00    +0.000 C 
ATOM      3  O   UNL     1       1.674   6.123  20.644  0.00  0.00    +0.000 OA
ATOM      4  H   UNL     1       2.324   8.734  18.943  0.00  0.00    +0.000 HD
ENDROOT
BRANCH   1   7
ATOM      5  C   UNL     1       0.341  10.609  21.551  0.00  0.00    +0.000 C 
ATOM      6  C   UNL     1       1.259   9.386  21.798  0.00  0.00    +0.000 C 
ATOM      7  C   UNL     1       0.772   8.789  20.470  0.00  0.00    +0.000 C 
ATOM      8  C   UNL     1       0.308  10.216  20.033  0.00  0.00    +0.000 C 
ATOM      9  C   UNL     1       1.299  11.028  19.194  0.00  0.00    +0.000 C 
ATOM     10  C   UNL     1      -1.075  10.212  19.376  0.00  0.00    +0.000 C 
BRANCH   5  12
ATOM     11  C   UNL     1      -1.267  11.791  22.946  0.00  0.00    +0.000 C 
ATOM     12  O   UNL     1      -0.929  10.603  22.245  0.00  0.00    +0.000 OA
ENDBRANCH   5  12
ENDBRANCH   1   7
BRANCH   2  13
ATOM     13  C   UNL     1       3.263   6.368  18.860  0.00  0.00    +0.000 C 
BRANCH  13  14
ATOM     14  C   UNL     1       3.235   4.874  18.657  0.00  0.00    +0.000 A 
ATOM     15  C   UNL     1       2.319   4.297  17.772  0.00  0.00    +0.000 A 
ATOM     16  C   UNL     1       2.265   2.912  17.625  0.00  0.00    +0.000 A 
ATOM     17  C   UNL     1       3.121   2.095  18.363  0.00  0.00    +0.000 A 
ATOM     18  C   UNL     1       4.020   2.645  19.279  0.00  0.00    +0.000 A 
ATOM     19  C   UNL     1       4.102   4.037  19.383  0.00  0.00    +0.000 A 
BRANCH  18  20
ATOM     20  N   UNL     1       4.967   1.830  19.909  0.00  0.00    +0.000 N 
ATOM     21  H   UNL     1       5.866   2.276  20.054  0.00  0.00    +0.000 HD
ATOM     22  H   UNL     1       5.053   0.908  19.494  0.00  0.00    +0.000 HD
ENDBRANCH  18  20
ENDBRANCH  13  14
ENDBRANCH   2  13
TORSDOF 5
ENDMDL
MODEL 5
REMARK VINA RESULT:      -6.3      2.674      6.994
REMARK  Name = 
REMARK  8 active torsions:
REMARK  status: ('A' for Active; 'I' for Inactive)
REMARK    1  A    between atoms: C_1  and  O_2
REMARK    2  A    between atoms: O_2  and  C_3
REMARK    3  A    between atoms: C_5  and  N_6
REMARK    4  A    between atoms: C_7  and  C_9
REMARK    5  A    between atoms: C_9  and  C_10
REMARK    6  A    between atoms: C_14  and  N_15
REMARK    7  A    between atoms: C_17  and  C_18
REMARK    8  A    between atoms: C_17  and  C_19
REMARK                            x       y       z     vdW  Elec       q    Type
REMARK                         _______ _______ _______ _____ _____    ______ ____
ROOT
ATOM      1  N   UNL     1       4.237   5.111  17.400  0.00  0.00    +0.000 N 
ATOM      2  C   UNL     1       5.348   4.842  16.631  0.00  0.00    +0.000 C 
ATOM      3  O   UNL     1       6.123   3.911  16.867  0.00  0.00    +0.000 OA
ATOM      4  H   UNL     1       3.667   5.918  17.158  0.00  0.00    +0.000 HD
ENDROOT
BRANCH   1   7
ATOM      5  C   UNL     1       2.318   3.974  20.006  0.00  0.00    +0.000 C 
ATOM      6  C   UNL     1       3.414   5.050  19.800  0.00  0.00    +0.000 C 
ATOM      7  C   UNL     1       3.904   4.275  18.568  0.00  0.00    +0.000 C 
ATOM      8  C   UNL     1       2.516   3.558  18.506  0.00  0.00    +0.000 C 
ATOM      9  C   UNL     1       1.468   4.180  17.580  0.00  0.00    +0.000 C 
ATOM     10  C   UNL     1       2.641   2.054  18.245  0.00  0.00    +0.000 C 
BRANCH   5  12
ATOM     11  C   UNL     1       1.530   2.619  21.869  0.00  0.00    +0.000 C 
ATOM     12  O   UNL     1       2.599   2.959  20.998  0.00  0.00    +0.000 OA
ENDBRANCH   5  12
ENDBRANCH   1   7
BRANCH   2  13
ATOM     13  C   UNL     1       5.549   5.762  15.448  0.00  0.00    +0.000 C 
BRANCH  13  14
ATOM     14  C   UNL     1       6.130   5.066  14.243  0.00  0.00    +0.000 A 
ATOM     15  C   UNL     1       7.396   5.417  13.765  0.00  0.00    +0.000 A 
ATOM     16  C   UNL     1       7.909   4.804  12.622  0.00  0.00    +0.000 A 
ATOM     17  C   UNL     1       7.158   3.841  11.949  0.00  0.00    +0.000 A 
ATOM     18  C   UNL     1       5.877   3.498  12.386  0.00  0.00    +0.000 A 
ATOM     19  C   UNL     1       5.392   4.082  13.560  0.00  0.00    +0.000 A 
BRANCH  18  20
ATOM     20  N   UNL     1       5.192   2.436  11.786  0.00  0.00    +0.000 N 
ATOM     21  H   UNL     1       5.090   1.621  12.381  0.00  0.00    +0.000 HD
ATOM     22  H   UNL     1       5.534   2.200  10.860  0.00  0.00    +0.000 HD
ENDBRANCH  18  20
ENDBRANCH  13  14
ENDBRANCH   2  13
TORSDOF 5
ENDMDL
MODEL 6
REMARK VINA RESULT:      -6.3      4.397      5.973
REMARK  Name = 
REMARK  8 active torsions:
REMARK  status: ('A' for Active; 'I' for Inactive)
REMARK    1  A    between atoms: C_1  and  O_2
REMARK    2  A    between atoms: O_2  and  C_3
REMARK    3  A    between atoms: C_5  and  N_6
REMARK    4  A    between atoms: C_7  and  C_9
REMARK    5  A    between atoms: C_9  and  C_10
REMARK    6  A    between atoms: C_14  and  N_15
REMARK    7  A    between atoms: C_17  and  C_18
REMARK    8  A    between atoms: C_17  and  C_19
REMARK                            x       y       z     vdW  Elec       q    Type
REMARK                         _______ _______ _______ _____ _____    ______ ____
ROOT
ATOM      1  N   UNL     1       2.630   7.299  17.976  0.00  0.00    +0.000 N 
ATOM      2  C   UNL     1       2.054   8.279  18.757  0.00  0.00    +0.000 C 
ATOM      3  O   UNL     1       1.725   8.099  19.932  0.00  0.00    +0.000 OA
ATOM      4  H   UNL     1       2.842   7.519  17.007  0.00  0.00    +0.000 HD
ENDROOT
BRANCH   1   7
ATOM      5  C   UNL     1       3.364   3.951  17.865  0.00  0.00    +0.000 C 
ATOM      6  C   UNL     1       2.083   4.823  17.879  0.00  0.00    +0.000 C 
ATOM      7  C   UNL     1       2.897   5.955  18.523  0.00  0.00    +0.000 C 
ATOM      8  C   UNL     1       4.202   5.268  18.008  0.00  0.00    +0.000 C 
ATOM      9  C   UNL     1       4.751   5.765  16.667  0.00  0.00    +0.000 C 
ATOM     10  C   UNL     1       5.310   5.240  19.065  0.00  0.00    +0.000 C 
BRANCH   5  12
ATOM     11  C   UNL     1       3.485   1.619  18.555  0.00  0.00    +0.000 C 
ATOM     12  O   UNL     1       3.491   2.987  18.936  0.00  0.00    +0.000 OA
ENDBRANCH   5  12
ENDBRANCH   1   7
BRANCH   2  13
ATOM     13  C   UNL     1       1.869   9.616  18.075  0.00  0.00    +0.000 C 
BRANCH  13  14
ATOM     14  C   UNL     1       0.550  10.272  18.400  0.00  0.00    +0.000 A 
ATOM     15  C   UNL     1       0.498  11.360  19.276  0.00  0.00    +0.000 A 
ATOM     16  C   UNL     1      -0.729  11.932  19.610  0.00  0.00    +0.000 A 
ATOM     17  C   UNL     1      -1.910  11.418  19.075  0.00  0.00    +0.000 A 
ATOM     18  C   UNL     1      -1.887  10.310  18.226  0.00  0.00    +0.000 A 
ATOM     19  C   UNL     1      -0.649   9.775  17.857  0.00  0.00    +0.000 A 
BRANCH  18  20
ATOM     20  N   UNL     1      -3.060   9.891  17.587  0.00  0.00    +0.000 N 
ATOM     21  H   UNL     1      -3.097   8.894  17.405  0.00  0.00    +0.000 HD
ATOM     22  H   UNL     1      -3.301  10.445  16.772  0.00  0.00    +0.000 HD
ENDBRANCH  18  20
ENDBRANCH  13  14
ENDBRANCH   2  13
TORSDOF 5
ENDMDL
MODEL 7
REMARK VINA RESULT:      -6.2      2.628      4.043
REMARK  Name = 
REMARK  8 active torsions:
REMARK  status: ('A' for Active; 'I' for Inactive)
REMARK    1  A    between atoms: C_1  and  O_2
REMARK    2  A    between atoms: O_2  and  C_3
REMARK    3  A    between atoms: C_5  and  N_6
REMARK    4  A    between atoms: C_7  and  C_9
REMARK    5  A    between atoms: C_9  and  C_10
REMARK    6  A    between atoms: C_14  and  N_15
REMARK    7  A    between atoms: C_17  and  C_18
REMARK    8  A    between atoms: C_17  and  C_19
REMARK                            x       y       z     vdW  Elec       q    Type
REMARK                         _______ _______ _______ _____ _____    ______ ____
ROOT
ATOM      1  N   UNL     1       4.575   5.855  18.520  0.00  0.00    +0.000 N 
ATOM      2  C   UNL     1       3.277   5.529  18.850  0.00  0.00    +0.000 C 
ATOM      3  O   UNL     1       2.644   4.629  18.292  0.00  0.00    +0.000 OA
ATOM      4  H   UNL     1       5.014   6.632  19.005  0.00  0.00    +0.000 HD
ENDROOT
BRANCH   1   7
ATOM      5  C   UNL     1       6.463   5.482  15.681  0.00  0.00    +0.000 C 
ATOM      6  C   UNL     1       4.955   5.554  16.029  0.00  0.00    +0.000 C 
ATOM      7  C   UNL     1       5.294   5.121  17.462  0.00  0.00    +0.000 C 
ATOM      8  C   UNL     1       6.770   5.572  17.217  0.00  0.00    +0.000 C 
ATOM      9  C   UNL     1       7.132   6.991  17.662  0.00  0.00    +0.000 C 
ATOM     10  C   UNL     1       7.792   4.564  17.751  0.00  0.00    +0.000 C 
BRANCH   5  12
ATOM     11  C   UNL     1       6.452   4.108  13.670  0.00  0.00    +0.000 C 
ATOM     12  O   UNL     1       6.905   4.281  15.005  0.00  0.00    +0.000 OA
ENDBRANCH   5  12
ENDBRANCH   1   7
BRANCH   2  13
ATOM     13  C   UNL     1       2.676   6.345  19.973  0.00  0.00    +0.000 C 
BRANCH  13  14
ATOM     14  C   UNL     1       2.082   7.651  19.508  0.00  0.00    +0.000 A 
ATOM     15  C   UNL     1       2.311   8.109  18.207  0.00  0.00    +0.000 A 
ATOM     16  C   UNL     1       1.800   9.340  17.798  0.00  0.00    +0.000 A 
ATOM     17  C   UNL     1       1.062  10.121  18.686  0.00  0.00    +0.000 A 
ATOM     18  C   UNL     1       0.850   9.702  20.001  0.00  0.00    +0.000 A 
ATOM     19  C   UNL     1       1.323   8.445  20.387  0.00  0.00    +0.000 A 
BRANCH  18  20
ATOM     20  N   UNL     1      -0.006  10.426  20.839  0.00  0.00    +0.000 N 
ATOM     21  H   UNL     1       0.427  11.233  21.274  0.00  0.00    +0.000 HD
ATOM     22  H   UNL     1      -0.510   9.849  21.505  0.00  0.00    +0.000 HD
ENDBRANCH  18  20
ENDBRANCH  13  14
ENDBRANCH   2  13
TORSDOF 5
ENDMDL
MODEL 8
REMARK VINA RESULT:      -6.2      4.600      6.207
REMARK  Name = 
REMARK  8 active torsions:
REMARK  status: ('A' for Active; 'I' for Inactive)
REMARK    1  A    between atoms: C_1  and  O_2
REMARK    2  A    between atoms: O_2  and  C_3
REMARK    3  A    between atoms: C_5  and  N_6
REMARK    4  A    between atoms: C_7  and  C_9
REMARK    5  A    between atoms: C_9  and  C_10
REMARK    6  A    between atoms: C_14  and  N_15
REMARK    7  A    between atoms: C_17  and  C_18
REMARK    8  A    between atoms: C_17  and  C_19
REMARK                            x       y       z     vdW  Elec       q    Type
REMARK                         _______ _______ _______ _____ _____    ______ ____
ROOT
ATOM      1  N   UNL     1       2.483   7.440  18.020  0.00  0.00    +0.000 N 
ATOM      2  C   UNL     1       1.945   8.429  18.815  0.00  0.00    +0.000 C 
ATOM      3  O   UNL     1       1.613   8.246  19.988  0.00  0.00    +0.000 OA
ATOM      4  H   UNL     1       2.700   7.664  17.053  0.00  0.00    +0.000 HD
ENDROOT
BRANCH   1   7
ATOM      5  C   UNL     1       3.173   4.084  17.870  0.00  0.00    +0.000 C 
ATOM      6  C   UNL     1       1.906   4.975  17.842  0.00  0.00    +0.000 C 
ATOM      7  C   UNL     1       2.704   6.081  18.549  0.00  0.00    +0.000 C 
ATOM      8  C   UNL     1       4.023   5.385  18.083  0.00  0.00    +0.000 C 
ATOM      9  C   UNL     1       4.644   5.901  16.782  0.00  0.00    +0.000 C 
ATOM     10  C   UNL     1       5.077   5.317  19.192  0.00  0.00    +0.000 C 
BRANCH   5  12
ATOM     11  C   UNL     1       3.390   1.745  18.513  0.00  0.00    +0.000 C 
ATOM     12  O   UNL     1       3.235   3.095  18.925  0.00  0.00    +0.000 OA
ENDBRANCH   5  12
ENDBRANCH   1   7
BRANCH   2  13
ATOM     13  C   UNL     1       1.805   9.781  18.150  0.00  0.00    +0.000 C 
BRANCH  13  14
ATOM     14  C   UNL     1       0.402  10.331  18.211  0.00  0.00    +0.000 A 
ATOM     15  C   UNL     1      -0.670   9.593  17.701  0.00  0.00    +0.000 A 
ATOM     16  C   UNL     1      -1.958  10.127  17.716  0.00  0.00    +0.000 A 
ATOM     17  C   UNL     1      -2.181  11.402  18.236  0.00  0.00    +0.000 A 
ATOM     18  C   UNL     1      -1.122  12.173  18.719  0.00  0.00    +0.000 A 
ATOM     19  C   UNL     1       0.158  11.610  18.745  0.00  0.00    +0.000 A 
BRANCH  18  20
ATOM     20  N   UNL     1      -1.375  13.389  19.362  0.00  0.00    +0.000 N 
ATOM     21  H   UNL     1      -2.309  13.752  19.210  0.00  0.00    +0.000 HD
ATOM     22  H   UNL     1      -0.656  14.090  19.209  0.00  0.00    +0.000 HD
ENDBRANCH  18  20
ENDBRANCH  13  14
ENDBRANCH   2  13
TORSDOF 5
ENDMDL
MODEL 9
REMARK VINA RESULT:      -6.2      4.925      7.945
REMARK  Name = 
REMARK  8 active torsions:
REMARK  status: ('A' for Active; 'I' for Inactive)
REMARK    1  A    between atoms: C_1  and  O_2
REMARK    2  A    between atoms: O_2  and  C_3
REMARK    3  A    between atoms: C_5  and  N_6
REMARK    4  A    between atoms: C_7  and  C_9
REMARK    5  A    between atoms: C_9  and  C_10
REMARK    6  A    between atoms: C_14  and  N_15
REMARK    7  A    between atoms: C_17  and  C_18
REMARK    8  A    between atoms: C_17  and  C_19
REMARK                            x       y       z     vdW  Elec       q    Type
REMARK                         _______ _______ _______ _____ _____    ______ ____
ROOT
ATOM      1  N   UNL     1       6.725   7.732  17.383  0.00  0.00    +0.000 N 
ATOM      2  C   UNL     1       7.870   8.266  17.936  0.00  0.00    +0.000 C 
ATOM      3  O   UNL     1       8.585   7.652  18.731  0.00  0.00    +0.000 OA
ATOM      4  H   UNL     1       6.173   8.316  16.761  0.00  0.00    +0.000 HD
ENDROOT
BRANCH   1   7
ATOM      5  C   UNL     1       4.674   4.984  17.327  0.00  0.00    +0.000 C 
ATOM      6  C   UNL     1       4.842   6.245  18.211  0.00  0.00    +0.000 C 
ATOM      7  C   UNL     1       6.292   6.362  17.717  0.00  0.00    +0.000 C 
ATOM      8  C   UNL     1       5.916   5.461  16.497  0.00  0.00    +0.000 C 
ATOM      9  C   UNL     1       5.519   6.188  15.208  0.00  0.00    +0.000 C 
ATOM     10  C   UNL     1       6.972   4.391  16.206  0.00  0.00    +0.000 C 
BRANCH   5  12
ATOM     11  C   UNL     1       3.773   2.762  17.752  0.00  0.00    +0.000 C 
ATOM     12  O   UNL     1       4.801   3.710  18.001  0.00  0.00    +0.000 OA
ENDBRANCH   5  12
ENDBRANCH   1   7
BRANCH   2  13
ATOM     13  C   UNL     1       8.209   9.668  17.480  0.00  0.00    +0.000 C 
BRANCH  13  14
ATOM     14  C   UNL     1       9.190  10.367  18.386  0.00  0.00    +0.000 A 
ATOM     15  C   UNL     1       8.987  10.386  19.769  0.00  0.00    +0.000 A 
ATOM     16  C   UNL     1       9.871  11.075  20.598  0.00  0.00    +0.000 A 
ATOM     17  C   UNL     1      10.960  11.753  20.050  0.00  0.00    +0.000 A 
ATOM     18  C   UNL     1      11.165  11.778  18.670  0.00  0.00    +0.000 A 
ATOM     19  C   UNL     1      10.302  11.043  17.851  0.00  0.00    +0.000 A 
BRANCH  18  20
ATOM     20  N   UNL     1      12.333  12.341  18.143  0.00  0.00    +0.000 N 
ATOM     21  H   UNL     1      13.140  11.727  18.176  0.00  0.00    +0.000 HD
ATOM     22  H   UNL     1      12.537  13.269  18.502  0.00  0.00    +0.000 HD
ENDBRANCH  18  20
ENDBRANCH  13  14
ENDBRANCH   2  13
TORSDOF 5
ENDMDL
