MODEL 1
REMARK VINA RESULT:      -8.2      0.000      0.000
REMARK  Name = 
REMARK  4 active torsions:
REMARK  status: ('A' for Active; 'I' for Inactive)
REMARK    1  A    between atoms: C_1  and  N_2
REMARK    2  A    between atoms: N_2  and  C_3
REMARK    3  A    between atoms: C_3  and  C_4
REMARK    4  A    between atoms: N_6  and  C_7
REMARK                            x       y       z     vdW  Elec       q    Type
REMARK                         _______ _______ _______ _____ _____    ______ ____
ROOT
ATOM      1  C   UNL     1       3.667   2.111  17.677  0.00  0.00    +0.000 C 
ATOM      2  N   UNL     1       4.053   3.354  18.346  0.00  0.00    +0.000 N 
ATOM      3  C   UNL     1       4.775   4.271  17.592  0.00  0.00    +0.000 C 
ATOM      4  N   UNL     1       4.564   4.420  16.313  0.00  0.00    +0.000 NA
ATOM      5  S   UNL     1       5.594   5.514  15.663  0.00  0.00    +0.000 S 
ATOM      6  O   UNL     1       4.879   6.727  15.315  0.00  0.00    +0.000 OA
ATOM      7  O   UNL     1       6.516   4.863  14.756  0.00  0.00    +0.000 OA
ATOM      8  C   UNL     1       6.455   5.839  17.134  0.00  0.00    +0.000 A 
ATOM      9  C   UNL     1       7.575   6.635  17.296  0.00  0.00    +0.000 A 
ATOM     10  C   UNL     1       8.132   6.684  18.567  0.00  0.00    +0.000 A 
ATOM     11  C   UNL     1       7.568   5.939  19.623  0.00  0.00    +0.000 A 
ATOM     12  C   UNL     1       6.442   5.128  19.415  0.00  0.00    +0.000 A 
ATOM     13  C   UNL     1       5.883   5.095  18.149  0.00  0.00    +0.000 A 
ENDROOT
BRANCH   2  14
ATOM     14  C   UNL     1       3.298   3.796  19.540  0.00  0.00    +0.000 C 
BRANCH  14  15
ATOM     15  C   UNL     1       2.401   5.021  19.363  0.00  0.00    +0.000 C 
ATOM     16  O   UNL     1       1.292   4.922  18.841  0.00  0.00    +0.000 OA
ATOM     17  N   UNL     1       2.963   6.219  19.799  0.00  0.00    +0.000 N 
ATOM     18  H   UNL     1       3.976   6.261  19.760  0.00  0.00    +0.000 HD
BRANCH  17  19
ATOM     19  C   UNL     1       2.259   7.434  19.659  0.00  0.00    +0.000 A 
ATOM     20  C   UNL     1       1.483   7.953  20.702  0.00  0.00    +0.000 A 
ATOM     21  C   UNL     1       0.714   9.103  20.504  0.00  0.00    +0.000 A 
ATOM     22  C   UNL     1       0.706   9.720  19.257  0.00  0.00    +0.000 A 
ATOM     23 CL   UNL     1      -0.313  11.077  18.978  0.00  0.00    +0.000 Cl
ATOM     24  C   UNL     1       1.507   9.231  18.225  0.00  0.00    +0.000 A 
ATOM     25  C   UNL     1       2.312   8.106  18.436  0.00  0.00    +0.000 A 
ENDBRANCH  17  19
ENDBRANCH  14  15
ENDBRANCH   2  14
TORSDOF 3
ENDMDL
MODEL 2
REMARK VINA RESULT:      -8.2      0.200      1.006
REMARK  Name = 
REMARK  4 active torsions:
REMARK  status: ('A' for Active; 'I' for Inactive)
REMARK    1  A    between atoms: C_1  and  N_2
REMARK    2  A    between atoms: N_2  and  C_3
REMARK    3  A    between atoms: C_3  and  C_4
REMARK    4  A    between atoms: N_6  and  C_7
REMARK                            x       y       z     vdW  Elec       q    Type
REMARK                         _______ _______ _______ _____ _____    ______ ____
ROOT
ATOM      1  C   UNL     1       3.736   2.211  17.760  0.00  0.00    +0.000 C 
ATOM      2  N   UNL     1       4.140   3.448  18.429  0.00  0.00    +0.000 N 
ATOM      3  C   UNL     1       4.827   4.379  17.661  0.00  0.00    +0.000 C 
ATOM      4  N   UNL     1       4.568   4.542  16.392  0.00  0.00    +0.000 NA
ATOM      5  S   UNL     1       5.566   5.651  15.718  0.00  0.00    +0.000 S 
ATOM      6  O   UNL     1       4.831   6.864  15.413  0.00  0.00    +0.000 OA
ATOM      7  O   UNL     1       6.457   5.017  14.769  0.00  0.00    +0.000 OA
ATOM      8  C   UNL     1       6.480   5.964  17.159  0.00  0.00    +0.000 A 
ATOM      9  C   UNL     1       7.600   6.765  17.289  0.00  0.00    +0.000 A 
ATOM     10  C   UNL     1       8.204   6.802  18.539  0.00  0.00    +0.000 A 
ATOM     11  C   UNL     1       7.684   6.040  19.607  0.00  0.00    +0.000 A 
ATOM     12  C   UNL     1       6.556   5.224  19.431  0.00  0.00    +0.000 A 
ATOM     13  C   UNL     1       5.950   5.203  18.186  0.00  0.00    +0.000 A 
ENDROOT
BRANCH   2  14
ATOM     14  C   UNL     1       3.427   3.870  19.656  0.00  0.00    +0.000 C 
BRANCH  14  15
ATOM     15  C   UNL     1       2.443   5.030  19.507  0.00  0.00    +0.000 C 
ATOM     16  O   UNL     1       1.266   4.826  19.211  0.00  0.00    +0.000 OA
ATOM     17  N   UNL     1       3.001   6.293  19.692  0.00  0.00    +0.000 N 
ATOM     18  H   UNL     1       3.987   6.367  19.464  0.00  0.00    +0.000 HD
BRANCH  17  19
ATOM     19  C   UNL     1       2.213   7.454  19.543  0.00  0.00    +0.000 A 
ATOM     20  C   UNL     1       2.167   8.154  18.331  0.00  0.00    +0.000 A 
ATOM     21  C   UNL     1       1.461   9.357  18.240  0.00  0.00    +0.000 A 
ATOM     22  C   UNL     1       0.822   9.868  19.365  0.00  0.00    +0.000 A 
ATOM     23 CL   UNL     1       0.035  11.396  19.284  0.00  0.00    +0.000 Cl
ATOM     24  C   UNL     1       0.831   9.156  20.565  0.00  0.00    +0.000 A 
ATOM     25  C   UNL     1       1.499   7.930  20.645  0.00  0.00    +0.000 A 
ENDBRANCH  17  19
ENDBRANCH  14  15
ENDBRANCH   2  14
TORSDOF 3
ENDMDL
MODEL 3
REMARK VINA RESULT:      -7.5      3.085      4.996
REMARK  Name = 
REMARK  4 active torsions:
REMARK  status: ('A' for Active; 'I' for Inactive)
REMARK    1  A    between atoms: C_1  and  N_2
REMARK    2  A    between atoms: N_2  and  C_3
REMARK    3  A    between atoms: C_3  and  C_4
REMARK    4  A    between atoms: N_6  and  C_7
REMARK                            x       y       z     vdW  Elec       q    Type
REMARK                         _______ _______ _______ _____ _____    ______ ____
ROOT
ATOM      1  C   UNL     1       2.130   8.402  18.554  0.00  0.00    +0.000 C 
ATOM      2  N   UNL     1       2.145   7.408  19.627  0.00  0.00    +0.000 N 
ATOM      3  C   UNL     1       2.827   6.225  19.374  0.00  0.00    +0.000 C 
ATOM      4  N   UNL     1       3.903   6.201  18.636  0.00  0.00    +0.000 NA
ATOM      5  S   UNL     1       4.462   4.674  18.446  0.00  0.00    +0.000 S 
ATOM      6  O   UNL     1       5.692   4.496  19.195  0.00  0.00    +0.000 OA
ATOM      7  O   UNL     1       4.317   4.251  17.069  0.00  0.00    +0.000 OA
ATOM      8  C   UNL     1       3.200   3.911  19.360  0.00  0.00    +0.000 A 
ATOM      9  C   UNL     1       2.987   2.555  19.532  0.00  0.00    +0.000 A 
ATOM     10  C   UNL     1       1.860   2.183  20.253  0.00  0.00    +0.000 A 
ATOM     11  C   UNL     1       0.984   3.162  20.765  0.00  0.00    +0.000 A 
ATOM     12  C   UNL     1       1.224   4.529  20.553  0.00  0.00    +0.000 A 
ATOM     13  C   UNL     1       2.357   4.894  19.846  0.00  0.00    +0.000 A 
ENDROOT
BRANCH   2  14
ATOM     14  C   UNL     1       1.898   7.846  21.020  0.00  0.00    +0.000 C 
BRANCH  14  15
ATOM     15  C   UNL     1       0.617   8.642  21.267  0.00  0.00    +0.000 C 
ATOM     16  O   UNL     1      -0.482   8.088  21.263  0.00  0.00    +0.000 OA
ATOM     17  N   UNL     1       0.809  10.009  21.449  0.00  0.00    +0.000 N 
ATOM     18  H   UNL     1       1.625  10.397  20.984  0.00  0.00    +0.000 HD
BRANCH  17  19
ATOM     19  C   UNL     1      -0.293  10.868  21.646  0.00  0.00    +0.000 A 
ATOM     20  C   UNL     1      -0.879  11.026  22.908  0.00  0.00    +0.000 A 
ATOM     21  C   UNL     1      -2.031  11.802  23.058  0.00  0.00    +0.000 A 
ATOM     22  C   UNL     1      -2.608  12.401  21.942  0.00  0.00    +0.000 A 
ATOM     23 CL   UNL     1      -4.080  13.276  22.103  0.00  0.00    +0.000 Cl
ATOM     24  C   UNL     1      -2.007  12.281  20.689  0.00  0.00    +0.000 A 
ATOM     25  C   UNL     1      -0.828  11.542  20.546  0.00  0.00    +0.000 A 
ENDBRANCH  17  19
ENDBRANCH  14  15
ENDBRANCH   2  14
TORSDOF 3
ENDMDL
MODEL 4
REMARK VINA RESULT:      -7.5      3.123      5.151
REMARK  Name = 
REMARK  4 active torsions:
REMARK  status: ('A' for Active; 'I' for Inactive)
REMARK    1  A    between atoms: C_1  and  N_2
REMARK    2  A    between atoms: N_2  and  C_3
REMARK    3  A    between atoms: C_3  and  C_4
REMARK    4  A    between atoms: N_6  and  C_7
REMARK                            x       y       z     vdW  Elec       q    Type
REMARK                         _______ _______ _______ _____ _____    ______ ____
ROOT
ATOM      1  C   UNL     1       2.020   8.445  18.662  0.00  0.00    +0.000 C 
ATOM      2  N   UNL     1       2.050   7.429  19.714  0.00  0.00    +0.000 N 
ATOM      3  C   UNL     1       2.765   6.269  19.442  0.00  0.00    +0.000 C 
ATOM      4  N   UNL     1       3.849   6.290  18.715  0.00  0.00    +0.000 NA
ATOM      5  S   UNL     1       4.449   4.782  18.499  0.00  0.00    +0.000 S 
ATOM      6  O   UNL     1       5.676   4.620  19.256  0.00  0.00    +0.000 OA
ATOM      7  O   UNL     1       4.329   4.385  17.111  0.00  0.00    +0.000 OA
ATOM      8  C   UNL     1       3.198   3.967  19.383  0.00  0.00    +0.000 A 
ATOM      9  C   UNL     1       3.019   2.602  19.524  0.00  0.00    +0.000 A 
ATOM     10  C   UNL     1       1.894   2.186  20.225  0.00  0.00    +0.000 A 
ATOM     11  C   UNL     1       0.989   3.131  20.748  0.00  0.00    +0.000 A 
ATOM     12  C   UNL     1       1.195   4.508  20.568  0.00  0.00    +0.000 A 
ATOM     13  C   UNL     1       2.325   4.917  19.881  0.00  0.00    +0.000 A 
ENDROOT
BRANCH   2  14
ATOM     14  C   UNL     1       1.779   7.830  21.113  0.00  0.00    +0.000 C 
BRANCH  14  15
ATOM     15  C   UNL     1       0.469   8.577  21.365  0.00  0.00    +0.000 C 
ATOM     16  O   UNL     1      -0.601   7.974  21.427  0.00  0.00    +0.000 OA
ATOM     17  N   UNL     1       0.602   9.960  21.471  0.00  0.00    +0.000 N 
ATOM     18  H   UNL     1       1.381  10.360  20.960  0.00  0.00    +0.000 HD
BRANCH  17  19
ATOM     19  C   UNL     1      -0.533  10.776  21.665  0.00  0.00    +0.000 A 
ATOM     20  C   UNL     1      -1.098  11.503  20.609  0.00  0.00    +0.000 A 
ATOM     21  C   UNL     1      -2.158  12.383  20.846  0.00  0.00    +0.000 A 
ATOM     22  C   UNL     1      -2.636  12.550  22.142  0.00  0.00    +0.000 A 
ATOM     23 CL   UNL     1      -3.873  13.703  22.457  0.00  0.00    +0.000 Cl
ATOM     24  C   UNL     1      -2.104  11.801  23.192  0.00  0.00    +0.000 A 
ATOM     25  C   UNL     1      -1.075  10.886  22.947  0.00  0.00    +0.000 A 
ENDBRANCH  17  19
ENDBRANCH  14  15
ENDBRANCH   2  14
TORSDOF 3
ENDMDL
MODEL 5
REMARK VINA RESULT:      -7.2      2.994      4.844
REMARK  Name = 
REMARK  4 active torsions:
REMARK  status: ('A' for Active; 'I' for Inactive)
REMARK    1  A    between atoms: C_1  and  N_2
REMARK    2  A    between atoms: N_2  and  C_3
REMARK    3  A    between atoms: C_3  and  C_4
REMARK    4  A    between atoms: N_6  and  C_7
REMARK                            x       y       z     vdW  Elec       q    Type
REMARK                         _______ _______ _______ _____ _____    ______ ____
ROOT
ATOM      1  C   UNL     1       2.273   8.306  18.057  0.00  0.00    +0.000 C 
ATOM      2  N   UNL     1       2.250   7.451  19.244  0.00  0.00    +0.000 N 
ATOM      3  C   UNL     1       2.926   6.241  19.156  0.00  0.00    +0.000 C 
ATOM      4  N   UNL     1       4.021   6.120  18.455  0.00  0.00    +0.000 NA
ATOM      5  S   UNL     1       4.569   4.577  18.469  0.00  0.00    +0.000 S 
ATOM      6  O   UNL     1       5.777   4.484  19.266  0.00  0.00    +0.000 OA
ATOM      7  O   UNL     1       4.455   3.990  17.150  0.00  0.00    +0.000 OA
ATOM      8  C   UNL     1       3.276   3.940  19.435  0.00  0.00    +0.000 A 
ATOM      9  C   UNL     1       3.045   2.617  19.766  0.00  0.00    +0.000 A 
ATOM     10  C   UNL     1       1.896   2.344  20.497  0.00  0.00    +0.000 A 
ATOM     11  C   UNL     1       1.017   3.385  20.861  0.00  0.00    +0.000 A 
ATOM     12  C   UNL     1       1.277   4.714  20.490  0.00  0.00    +0.000 A 
ATOM     13  C   UNL     1       2.431   4.981  19.775  0.00  0.00    +0.000 A 
ENDROOT
BRANCH   2  14
ATOM     14  C   UNL     1       1.972   8.058  20.566  0.00  0.00    +0.000 C 
BRANCH  14  15
ATOM     15  C   UNL     1       0.675   8.857  20.689  0.00  0.00    +0.000 C 
ATOM     16  O   UNL     1      -0.330   8.358  21.193  0.00  0.00    +0.000 OA
ATOM     17  N   UNL     1       0.733  10.143  20.156  0.00  0.00    +0.000 N 
ATOM     18  H   UNL     1       1.393  10.266  19.394  0.00  0.00    +0.000 HD
BRANCH  17  19
ATOM     19  C   UNL     1      -0.406  10.976  20.166  0.00  0.00    +0.000 A 
ATOM     20  C   UNL     1      -0.772  11.696  21.310  0.00  0.00    +0.000 A 
ATOM     21  C   UNL     1      -1.960  12.433  21.327  0.00  0.00    +0.000 A 
ATOM     22  C   UNL     1      -2.789  12.430  20.210  0.00  0.00    +0.000 A 
ATOM     23 CL   UNL     1      -4.299  13.253  20.260  0.00  0.00    +0.000 Cl
ATOM     24  C   UNL     1      -2.411  11.746  19.054  0.00  0.00    +0.000 A 
ATOM     25  C   UNL     1      -1.201  11.046  19.020  0.00  0.00    +0.000 A 
ENDBRANCH  17  19
ENDBRANCH  14  15
ENDBRANCH   2  14
TORSDOF 3
ENDMDL
MODEL 6
REMARK VINA RESULT:      -7.0      2.849      4.439
REMARK  Name = 
REMARK  4 active torsions:
REMARK  status: ('A' for Active; 'I' for Inactive)
REMARK    1  A    between atoms: C_1  and  N_2
REMARK    2  A    between atoms: N_2  and  C_3
REMARK    3  A    between atoms: C_3  and  C_4
REMARK    4  A    between atoms: N_6  and  C_7
REMARK                            x       y       z     vdW  Elec       q    Type
REMARK                         _______ _______ _______ _____ _____    ______ ____
ROOT
ATOM      1  C   UNL     1       2.002   7.707  20.083  0.00  0.00    +0.000 C 
ATOM      2  N   UNL     1       2.487   7.535  18.714  0.00  0.00    +0.000 N 
ATOM      3  C   UNL     1       2.777   6.237  18.313  0.00  0.00    +0.000 C 
ATOM      4  N   UNL     1       2.088   5.217  18.746  0.00  0.00    +0.000 NA
ATOM      5  S   UNL     1       2.684   3.806  18.170  0.00  0.00    +0.000 S 
ATOM      6  O   UNL     1       1.775   3.243  17.189  0.00  0.00    +0.000 OA
ATOM      7  O   UNL     1       3.256   3.023  19.246  0.00  0.00    +0.000 OA
ATOM      8  C   UNL     1       3.999   4.518  17.289  0.00  0.00    +0.000 A 
ATOM      9  C   UNL     1       5.013   3.863  16.615  0.00  0.00    +0.000 A 
ATOM     10  C   UNL     1       6.000   4.655  16.042  0.00  0.00    +0.000 A 
ATOM     11  C   UNL     1       5.951   6.058  16.166  0.00  0.00    +0.000 A 
ATOM     12  C   UNL     1       4.915   6.686  16.876  0.00  0.00    +0.000 A 
ATOM     13  C   UNL     1       3.927   5.892  17.432  0.00  0.00    +0.000 A 
ENDROOT
BRANCH   2  14
ATOM     14  C   UNL     1       2.197   8.581  17.707  0.00  0.00    +0.000 C 
BRANCH  14  15
ATOM     15  C   UNL     1       1.409   9.796  18.197  0.00  0.00    +0.000 C 
ATOM     16  O   UNL     1       1.951  10.894  18.318  0.00  0.00    +0.000 OA
ATOM     17  N   UNL     1       0.079   9.535  18.517  0.00  0.00    +0.000 N 
ATOM     18  H   UNL     1      -0.114   8.586  18.823  0.00  0.00    +0.000 HD
BRANCH  17  19
ATOM     19  C   UNL     1      -0.752  10.558  19.019  0.00  0.00    +0.000 A 
ATOM     20  C   UNL     1      -0.625  11.022  20.334  0.00  0.00    +0.000 A 
ATOM     21  C   UNL     1      -1.526  11.964  20.840  0.00  0.00    +0.000 A 
ATOM     22  C   UNL     1      -2.565  12.423  20.037  0.00  0.00    +0.000 A 
ATOM     23 CL   UNL     1      -3.735  13.506  20.683  0.00  0.00    +0.000 Cl
ATOM     24  C   UNL     1      -2.675  11.994  18.713  0.00  0.00    +0.000 A 
ATOM     25  C   UNL     1      -1.746  11.087  18.193  0.00  0.00    +0.000 A 
ENDBRANCH  17  19
ENDBRANCH  14  15
ENDBRANCH   2  14
TORSDOF 3
ENDMDL
MODEL 7
REMARK VINA RESULT:      -7.0      3.056      5.061
REMARK  Name = 
REMARK  4 active torsions:
REMARK  status: ('A' for Active; 'I' for Inactive)
REMARK    1  A    between atoms: C_1  and  N_2
REMARK    2  A    between atoms: N_2  and  C_3
REMARK    3  A    between atoms: C_3  and  C_4
REMARK    4  A    between atoms: N_6  and  C_7
REMARK                            x       y       z     vdW  Elec       q    Type
REMARK                         _______ _______ _______ _____ _____    ______ ____
ROOT
ATOM      1  C   UNL     1       2.153   8.343  18.805  0.00  0.00    +0.000 C 
ATOM      2  N   UNL     1       2.035   7.175  19.678  0.00  0.00    +0.000 N 
ATOM      3  C   UNL     1       2.784   6.057  19.332  0.00  0.00    +0.000 C 
ATOM      4  N   UNL     1       3.960   6.168  18.776  0.00  0.00    +0.000 NA
ATOM      5  S   UNL     1       4.588   4.700  18.413  0.00  0.00    +0.000 S 
ATOM      6  O   UNL     1       5.695   4.398  19.300  0.00  0.00    +0.000 OA
ATOM      7  O   UNL     1       4.666   4.526  16.977  0.00  0.00    +0.000 OA
ATOM      8  C   UNL     1       3.226   3.783  18.974  0.00  0.00    +0.000 A 
ATOM      9  C   UNL     1       3.031   2.418  18.873  0.00  0.00    +0.000 A 
ATOM     10  C   UNL     1       1.819   1.920  19.335  0.00  0.00    +0.000 A 
ATOM     11  C   UNL     1       0.846   2.791  19.868  0.00  0.00    +0.000 A 
ATOM     12  C   UNL     1       1.074   4.175  19.936  0.00  0.00    +0.000 A 
ATOM     13  C   UNL     1       2.289   4.662  19.488  0.00  0.00    +0.000 A 
ENDROOT
BRANCH   2  14
ATOM     14  C   UNL     1       1.567   7.359  21.071  0.00  0.00    +0.000 C 
BRANCH  14  15
ATOM     15  C   UNL     1       1.193   8.783  21.481  0.00  0.00    +0.000 C 
ATOM     16  O   UNL     1       1.944   9.456  22.187  0.00  0.00    +0.000 OA
ATOM     17  N   UNL     1      -0.052   9.210  21.026  0.00  0.00    +0.000 N 
ATOM     18  H   UNL     1      -0.737   8.474  20.884  0.00  0.00    +0.000 HD
BRANCH  17  19
ATOM     19  C   UNL     1      -0.540  10.490  21.365  0.00  0.00    +0.000 A 
ATOM     20  C   UNL     1      -0.535  11.541  20.440  0.00  0.00    +0.000 A 
ATOM     21  C   UNL     1      -0.927  12.825  20.831  0.00  0.00    +0.000 A 
ATOM     22  C   UNL     1      -1.303  13.059  22.150  0.00  0.00    +0.000 A 
ATOM     23 CL   UNL     1      -1.691  14.655  22.660  0.00  0.00    +0.000 Cl
ATOM     24  C   UNL     1      -1.347  12.008  23.066  0.00  0.00    +0.000 A 
ATOM     25  C   UNL     1      -0.998  10.714  22.665  0.00  0.00    +0.000 A 
ENDBRANCH  17  19
ENDBRANCH  14  15
ENDBRANCH   2  14
TORSDOF 3
ENDMDL
MODEL 8
REMARK VINA RESULT:      -6.9      2.928      4.615
REMARK  Name = 
REMARK  4 active torsions:
REMARK  status: ('A' for Active; 'I' for Inactive)
REMARK    1  A    between atoms: C_1  and  N_2
REMARK    2  A    between atoms: N_2  and  C_3
REMARK    3  A    between atoms: C_3  and  C_4
REMARK    4  A    between atoms: N_6  and  C_7
REMARK                            x       y       z     vdW  Elec       q    Type
REMARK                         _______ _______ _______ _____ _____    ______ ____
ROOT
ATOM      1  C   UNL     1       1.896   7.800  20.151  0.00  0.00    +0.000 C 
ATOM      2  N   UNL     1       2.414   7.647  18.791  0.00  0.00    +0.000 N 
ATOM      3  C   UNL     1       2.692   6.353  18.369  0.00  0.00    +0.000 C 
ATOM      4  N   UNL     1       1.972   5.338  18.762  0.00  0.00    +0.000 NA
ATOM      5  S   UNL     1       2.559   3.928  18.171  0.00  0.00    +0.000 S 
ATOM      6  O   UNL     1       1.666   3.404  17.155  0.00  0.00    +0.000 OA
ATOM      7  O   UNL     1       3.088   3.112  19.244  0.00  0.00    +0.000 OA
ATOM      8  C   UNL     1       3.909   4.634  17.341  0.00  0.00    +0.000 A 
ATOM      9  C   UNL     1       4.929   3.975  16.679  0.00  0.00    +0.000 A 
ATOM     10  C   UNL     1       5.944   4.761  16.149  0.00  0.00    +0.000 A 
ATOM     11  C   UNL     1       5.918   6.162  16.304  0.00  0.00    +0.000 A 
ATOM     12  C   UNL     1       4.874   6.794  16.999  0.00  0.00    +0.000 A 
ATOM     13  C   UNL     1       3.858   6.006  17.512  0.00  0.00    +0.000 A 
ENDROOT
BRANCH   2  14
ATOM     14  C   UNL     1       2.170   8.721  17.801  0.00  0.00    +0.000 C 
BRANCH  14  15
ATOM     15  C   UNL     1       1.091   9.743  18.157  0.00  0.00    +0.000 C 
ATOM     16  O   UNL     1      -0.079   9.573  17.814  0.00  0.00    +0.000 OA
ATOM     17  N   UNL     1       1.555  10.861  18.846  0.00  0.00    +0.000 N 
ATOM     18  H   UNL     1       2.521  11.113  18.661  0.00  0.00    +0.000 HD
BRANCH  17  19
ATOM     19  C   UNL     1       0.672  11.902  19.202  0.00  0.00    +0.000 A 
ATOM     20  C   UNL     1       0.539  13.049  18.410  0.00  0.00    +0.000 A 
ATOM     21  C   UNL     1      -0.265  14.111  18.836  0.00  0.00    +0.000 A 
ATOM     22  C   UNL     1      -0.917  14.032  20.062  0.00  0.00    +0.000 A 
ATOM     23 CL   UNL     1      -1.827  15.372  20.637  0.00  0.00    +0.000 Cl
ATOM     24  C   UNL     1      -0.820  12.876  20.838  0.00  0.00    +0.000 A 
ATOM     25  C   UNL     1      -0.053  11.795  20.391  0.00  0.00    +0.000 A 
ENDBRANCH  17  19
ENDBRANCH  14  15
ENDBRANCH   2  14
TORSDOF 3
ENDMDL
MODEL 9
REMARK VINA RESULT:      -6.9      2.983      4.605
REMARK  Name = 
REMARK  4 active torsions:
REMARK  status: ('A' for Active; 'I' for Inactive)
REMARK    1  A    between atoms: C_1  and  N_2
REMARK    2  A    between atoms: N_2  and  C_3
REMARK    3  A    between atoms: C_3  and  C_4
REMARK    4  A    between atoms: N_6  and  C_7
REMARK                            x       y       z     vdW  Elec       q    Type
REMARK                         _______ _______ _______ _____ _____    ______ ____
ROOT
ATOM      1  C   UNL     1       1.884   7.870  20.215  0.00  0.00    +0.000 C 
ATOM      2  N   UNL     1       2.323   7.687  18.831  0.00  0.00    +0.000 N 
ATOM      3  C   UNL     1       2.600   6.387  18.429  0.00  0.00    +0.000 C 
ATOM      4  N   UNL     1       1.925   5.371  18.893  0.00  0.00    +0.000 NA
ATOM      5  S   UNL     1       2.501   3.955  18.306  0.00  0.00    +0.000 S 
ATOM      6  O   UNL     1       1.560   3.386  17.361  0.00  0.00    +0.000 OA
ATOM      7  O   UNL     1       3.109   3.179  19.367  0.00  0.00    +0.000 OA
ATOM      8  C   UNL     1       3.786   4.661  17.377  0.00  0.00    +0.000 A 
ATOM      9  C   UNL     1       4.776   4.001  16.672  0.00  0.00    +0.000 A 
ATOM     10  C   UNL     1       5.743   4.788  16.061  0.00  0.00    +0.000 A 
ATOM     11  C   UNL     1       5.699   6.193  16.178  0.00  0.00    +0.000 A 
ATOM     12  C   UNL     1       4.687   6.826  16.918  0.00  0.00    +0.000 A 
ATOM     13  C   UNL     1       3.718   6.036  17.512  0.00  0.00    +0.000 A 
ENDROOT
BRANCH   2  14
ATOM     14  C   UNL     1       1.999   8.727  17.828  0.00  0.00    +0.000 C 
BRANCH  14  15
ATOM     15  C   UNL     1       1.048   9.835  18.279  0.00  0.00    +0.000 C 
ATOM     16  O   UNL     1      -0.163   9.751  18.076  0.00  0.00    +0.000 OA
ATOM     17  N   UNL     1       1.671  10.925  18.883  0.00  0.00    +0.000 N 
ATOM     18  H   UNL     1       2.625  11.099  18.583  0.00  0.00    +0.000 HD
BRANCH  17  19
ATOM     19  C   UNL     1       0.914  12.037  19.311  0.00  0.00    +0.000 A 
ATOM     20  C   UNL     1       0.320  12.071  20.579  0.00  0.00    +0.000 A 
ATOM     21  C   UNL     1      -0.509  13.137  20.940  0.00  0.00    +0.000 A 
ATOM     22  C   UNL     1      -0.758  14.156  20.026  0.00  0.00    +0.000 A 
ATOM     23 CL   UNL     1      -1.854  15.419  20.428  0.00  0.00    +0.000 Cl
ATOM     24  C   UNL     1      -0.138  14.148  18.776  0.00  0.00    +0.000 A 
ATOM     25  C   UNL     1       0.727  13.105  18.431  0.00  0.00    +0.000 A 
ENDBRANCH  17  19
ENDBRANCH  14  15
ENDBRANCH   2  14
TORSDOF 3
ENDMDL
