MODEL 1
REMARK VINA RESULT:      -6.4      0.000      0.000
REMARK  Name = 
REMARK  9 active torsions:
REMARK  status: ('A' for Active; 'I' for Inactive)
REMARK    1  A    between atoms: C_1  and  C_2
REMARK    2  A    between atoms: C_2  and  C_3
REMARK    3  A    between atoms: C_3  and  N_4
REMARK    4  A    between atoms: C_8  and  C_9
REMARK    5  A    between atoms: C_12  and  O_13
REMARK    6  A    between atoms: O_13  and  C_14
REMARK    7  A    between atoms: C_15  and  O_16
REMARK    8  A    between atoms: O_16  and  C_17
REMARK    9  A    between atoms: N_21  and  C_22
REMARK                            x       y       z     vdW  Elec       q    Type
REMARK                         _______ _______ _______ _____ _____    ______ ____
ROOT
ATOM      1  N   UNL     1       4.905   4.948  18.068  0.00  0.00    +0.000 NA
ATOM      2  C   UNL     1       4.006   5.866  18.062  0.00  0.00    +0.000 C 
ATOM      3  S   UNL     1       4.072   7.378  17.178  0.00  0.00    +0.000 S 
ATOM      4  C   UNL     1       2.712   8.025  18.012  0.00  0.00    +0.000 C 
ATOM      5  C   UNL     1       2.327   9.305  17.905  0.00  0.00    +0.000 C 
ATOM      6  C   UNL     1       2.086   6.968  18.865  0.00  0.00    +0.000 C 
ATOM      7  O   UNL     1       1.019   7.112  19.441  0.00  0.00    +0.000 OA
ATOM      8  N   UNL     1       2.863   5.817  18.832  0.00  0.00    +0.000 N 
ENDROOT
BRANCH   5   9
ATOM      9  C   UNL     1       1.249   9.894  18.700  0.00  0.00    +0.000 A 
ATOM     10  C   UNL     1       1.490  10.380  19.981  0.00  0.00    +0.000 A 
ATOM     11  C   UNL     1       0.465  11.027  20.671  0.00  0.00    +0.000 A 
ATOM     12  C   UNL     1      -0.806  11.199  20.100  0.00  0.00    +0.000 A 
ATOM     13  C   UNL     1      -1.063  10.687  18.817  0.00  0.00    +0.000 A 
ATOM     14  C   UNL     1      -0.026  10.035  18.130  0.00  0.00    +0.000 A 
BRANCH  12  15
ATOM     15  O   UNL     1      -1.651  11.885  20.936  0.00  0.00    +0.000 OA
ATOM     16  C   UNL     1      -1.262  12.098  22.283  0.00  0.00    +0.000 C 
ENDBRANCH  12  15
BRANCH  13  17
ATOM     17  O   UNL     1      -2.315  10.847  18.285  0.00  0.00    +0.000 OA
ATOM     18  C   UNL     1      -2.935   9.732  17.659  0.00  0.00    +0.000 C 
ENDBRANCH  13  17
ENDBRANCH   5   9
BRANCH   8  19
ATOM     19  C   UNL     1       2.448   4.657  19.538  0.00  0.00    +0.000 A 
ATOM     20  C   UNL     1       1.815   3.604  18.865  0.00  0.00    +0.000 A 
ATOM     21  C   UNL     1       1.311   2.513  19.575  0.00  0.00    +0.000 A 
ATOM     22  C   UNL     1       1.475   2.441  20.958  0.00  0.00    +0.000 A 
ATOM     23  C   UNL     1       2.131   3.466  21.635  0.00  0.00    +0.000 A 
ATOM     24  C   UNL     1       2.598   4.578  20.932  0.00  0.00    +0.000 A 
ENDBRANCH   8  19
BRANCH   1  25
ATOM     25  C   UNL     1       6.130   5.107  17.291  0.00  0.00    +0.000 C 
BRANCH  25  27
ATOM     26  C   UNL     1       5.537   4.555  14.876  0.00  0.00    +0.000 C 
ATOM     27  C   UNL     1       6.163   4.063  16.173  0.00  0.00    +0.000 C 
ENDBRANCH  25  27
ENDBRANCH   1  25
TORSDOF 6
ENDMDL
MODEL 2
REMARK VINA RESULT:      -6.4      0.676      1.434
REMARK  Name = 
REMARK  9 active torsions:
REMARK  status: ('A' for Active; 'I' for Inactive)
REMARK    1  A    between atoms: C_1  and  C_2
REMARK    2  A    between atoms: C_2  and  C_3
REMARK    3  A    between atoms: C_3  and  N_4
REMARK    4  A    between atoms: C_8  and  C_9
REMARK    5  A    between atoms: C_12  and  O_13
REMARK    6  A    between atoms: O_13  and  C_14
REMARK    7  A    between atoms: C_15  and  O_16
REMARK    8  A    between atoms: O_16  and  C_17
REMARK    9  A    between atoms: N_21  and  C_22
REMARK                            x       y       z     vdW  Elec       q    Type
REMARK                         _______ _______ _______ _____ _____    ______ ____
ROOT
ATOM      1  N   UNL     1       4.939   4.855  18.295  0.00  0.00    +0.000 NA
ATOM      2  C   UNL     1       4.040   5.769  18.212  0.00  0.00    +0.000 C 
ATOM      3  S   UNL     1       4.140   7.241  17.265  0.00  0.00    +0.000 S 
ATOM      4  C   UNL     1       2.746   7.919  18.012  0.00  0.00    +0.000 C 
ATOM      5  C   UNL     1       2.364   9.192  17.832  0.00  0.00    +0.000 C 
ATOM      6  C   UNL     1       2.086   6.898  18.884  0.00  0.00    +0.000 C 
ATOM      7  O   UNL     1       0.995   7.064  19.408  0.00  0.00    +0.000 OA
ATOM      8  N   UNL     1       2.865   5.750  18.934  0.00  0.00    +0.000 N 
ENDROOT
BRANCH   5   9
ATOM      9  C   UNL     1       1.251   9.812  18.556  0.00  0.00    +0.000 A 
ATOM     10  C   UNL     1       1.421  10.291  19.850  0.00  0.00    +0.000 A 
ATOM     11  C   UNL     1       0.370  10.967  20.471  0.00  0.00    +0.000 A 
ATOM     12  C   UNL     1      -0.855  11.175  19.817  0.00  0.00    +0.000 A 
ATOM     13  C   UNL     1      -1.040  10.669  18.519  0.00  0.00    +0.000 A 
ATOM     14  C   UNL     1       0.022   9.988  17.902  0.00  0.00    +0.000 A 
BRANCH  12  15
ATOM     15  O   UNL     1      -1.734  11.884  20.595  0.00  0.00    +0.000 OA
ATOM     16  C   UNL     1      -1.246  12.552  21.749  0.00  0.00    +0.000 C 
ENDBRANCH  12  15
BRANCH  13  17
ATOM     17  O   UNL     1      -2.249  10.864  17.905  0.00  0.00    +0.000 OA
ATOM     18  C   UNL     1      -3.077   9.736  17.661  0.00  0.00    +0.000 C 
ENDBRANCH  13  17
ENDBRANCH   5   9
BRANCH   8  19
ATOM     19  C   UNL     1       2.422   4.620  19.672  0.00  0.00    +0.000 A 
ATOM     20  C   UNL     1       2.556   4.586  21.066  0.00  0.00    +0.000 A 
ATOM     21  C   UNL     1       2.221   3.433  21.779  0.00  0.00    +0.000 A 
ATOM     22  C   UNL     1       1.706   2.322  21.113  0.00  0.00    +0.000 A 
ATOM     23  C   UNL     1       1.538   2.355  19.731  0.00  0.00    +0.000 A 
ATOM     24  C   UNL     1       1.912   3.491  19.011  0.00  0.00    +0.000 A 
ENDBRANCH   8  19
BRANCH   1  25
ATOM     25  C   UNL     1       6.195   4.984  17.565  0.00  0.00    +0.000 C 
BRANCH  25  27
ATOM     26  C   UNL     1       7.763   6.853  18.295  0.00  0.00    +0.000 C 
ATOM     27  C   UNL     1       7.302   5.422  18.526  0.00  0.00    +0.000 C 
ENDBRANCH  25  27
ENDBRANCH   1  25
TORSDOF 6
ENDMDL
MODEL 3
REMARK VINA RESULT:      -6.4      1.075      2.171
REMARK  Name = 
REMARK  9 active torsions:
REMARK  status: ('A' for Active; 'I' for Inactive)
REMARK    1  A    between atoms: C_1  and  C_2
REMARK    2  A    between atoms: C_2  and  C_3
REMARK    3  A    between atoms: C_3  and  N_4
REMARK    4  A    between atoms: C_8  and  C_9
REMARK    5  A    between atoms: C_12  and  O_13
REMARK    6  A    between atoms: O_13  and  C_14
REMARK    7  A    between atoms: C_15  and  O_16
REMARK    8  A    between atoms: O_16  and  C_17
REMARK    9  A    between atoms: N_21  and  C_22
REMARK                            x       y       z     vdW  Elec       q    Type
REMARK                         _______ _______ _______ _____ _____    ______ ____
ROOT
ATOM      1  N   UNL     1       4.840   5.072  18.181  0.00  0.00    +0.000 NA
ATOM      2  C   UNL     1       3.964   6.008  18.104  0.00  0.00    +0.000 C 
ATOM      3  S   UNL     1       4.093   7.476  17.154  0.00  0.00    +0.000 S 
ATOM      4  C   UNL     1       2.723   8.191  17.913  0.00  0.00    +0.000 C 
ATOM      5  C   UNL     1       2.373   9.473  17.735  0.00  0.00    +0.000 C 
ATOM      6  C   UNL     1       2.046   7.189  18.793  0.00  0.00    +0.000 C 
ATOM      7  O   UNL     1       0.965   7.384  19.326  0.00  0.00    +0.000 OA
ATOM      8  N   UNL     1       2.796   6.021  18.837  0.00  0.00    +0.000 N 
ENDROOT
BRANCH   5   9
ATOM      9  C   UNL     1       1.284  10.122  18.467  0.00  0.00    +0.000 A 
ATOM     10  C   UNL     1      -0.040   9.944  18.083  0.00  0.00    +0.000 A 
ATOM     11  C   UNL     1      -1.059  10.494  18.862  0.00  0.00    +0.000 A 
ATOM     12  C   UNL     1      -0.775  11.223  20.028  0.00  0.00    +0.000 A 
ATOM     13  C   UNL     1       0.563  11.428  20.407  0.00  0.00    +0.000 A 
ATOM     14  C   UNL     1       1.582  10.873  19.615  0.00  0.00    +0.000 A 
BRANCH  12  15
ATOM     15  O   UNL     1      -1.919  11.646  20.656  0.00  0.00    +0.000 OA
ATOM     16  C   UNL     1      -2.695  12.670  20.054  0.00  0.00    +0.000 C 
ENDBRANCH  12  15
BRANCH  13  17
ATOM     17  O   UNL     1       0.821  12.160  21.536  0.00  0.00    +0.000 OA
ATOM     18  C   UNL     1       0.810  13.578  21.444  0.00  0.00    +0.000 C 
ENDBRANCH  13  17
ENDBRANCH   5   9
BRANCH   8  19
ATOM     19  C   UNL     1       2.331   4.904  19.582  0.00  0.00    +0.000 A 
ATOM     20  C   UNL     1       1.482   3.960  18.990  0.00  0.00    +0.000 A 
ATOM     21  C   UNL     1       0.939   2.923  19.752  0.00  0.00    +0.000 A 
ATOM     22  C   UNL     1       1.276   2.792  21.098  0.00  0.00    +0.000 A 
ATOM     23  C   UNL     1       2.145   3.706  21.690  0.00  0.00    +0.000 A 
ATOM     24  C   UNL     1       2.654   4.768  20.941  0.00  0.00    +0.000 A 
ENDBRANCH   8  19
BRANCH   1  25
ATOM     25  C   UNL     1       6.092   5.167  17.438  0.00  0.00    +0.000 C 
BRANCH  25  27
ATOM     26  C   UNL     1       7.774   6.936  18.166  0.00  0.00    +0.000 C 
ATOM     27  C   UNL     1       7.227   5.535  18.397  0.00  0.00    +0.000 C 
ENDBRANCH  25  27
ENDBRANCH   1  25
TORSDOF 6
ENDMDL
MODEL 4
REMARK VINA RESULT:      -6.4      0.681      1.101
REMARK  Name = 
REMARK  9 active torsions:
REMARK  status: ('A' for Active; 'I' for Inactive)
REMARK    1  A    between atoms: C_1  and  C_2
REMARK    2  A    between atoms: C_2  and  C_3
REMARK    3  A    between atoms: C_3  and  N_4
REMARK    4  A    between atoms: C_8  and  C_9
REMARK    5  A    between atoms: C_12  and  O_13
REMARK    6  A    between atoms: O_13  and  C_14
REMARK    7  A    between atoms: C_15  and  O_16
REMARK    8  A    between atoms: O_16  and  C_17
REMARK    9  A    between atoms: N_21  and  C_22
REMARK                            x       y       z     vdW  Elec       q    Type
REMARK                         _______ _______ _______ _____ _____    ______ ____
ROOT
ATOM      1  N   UNL     1       4.806   5.097  17.948  0.00  0.00    +0.000 NA
ATOM      2  C   UNL     1       3.902   6.007  18.009  0.00  0.00    +0.000 C 
ATOM      3  S   UNL     1       3.913   7.540  17.158  0.00  0.00    +0.000 S 
ATOM      4  C   UNL     1       2.593   8.156  18.073  0.00  0.00    +0.000 C 
ATOM      5  C   UNL     1       2.194   9.436  18.016  0.00  0.00    +0.000 C 
ATOM      6  C   UNL     1       2.017   7.075  18.932  0.00  0.00    +0.000 C 
ATOM      7  O   UNL     1       0.979   7.198  19.563  0.00  0.00    +0.000 OA
ATOM      8  N   UNL     1       2.799   5.932  18.833  0.00  0.00    +0.000 N 
ENDROOT
BRANCH   5   9
ATOM      9  C   UNL     1       1.153   9.998  18.878  0.00  0.00    +0.000 A 
ATOM     10  C   UNL     1       1.447  10.418  20.170  0.00  0.00    +0.000 A 
ATOM     11  C   UNL     1       0.455  11.043  20.928  0.00  0.00    +0.000 A 
ATOM     12  C   UNL     1      -0.833  11.257  20.413  0.00  0.00    +0.000 A 
ATOM     13  C   UNL     1      -1.143  10.810  19.117  0.00  0.00    +0.000 A 
ATOM     14  C   UNL     1      -0.139  10.181  18.362  0.00  0.00    +0.000 A 
BRANCH  12  15
ATOM     15  O   UNL     1      -1.639  11.911  21.311  0.00  0.00    +0.000 OA
ATOM     16  C   UNL     1      -1.410  11.729  22.699  0.00  0.00    +0.000 C 
ENDBRANCH  12  15
BRANCH  13  17
ATOM     17  O   UNL     1      -2.411  11.010  18.640  0.00  0.00    +0.000 OA
ATOM     18  C   UNL     1      -2.578  11.343  17.268  0.00  0.00    +0.000 C 
ENDBRANCH  13  17
ENDBRANCH   5   9
BRANCH   8  19
ATOM     19  C   UNL     1       2.427   4.752  19.531  0.00  0.00    +0.000 A 
ATOM     20  C   UNL     1       1.789   3.702  18.861  0.00  0.00    +0.000 A 
ATOM     21  C   UNL     1       1.327   2.590  19.568  0.00  0.00    +0.000 A 
ATOM     22  C   UNL     1       1.541   2.495  20.942  0.00  0.00    +0.000 A 
ATOM     23  C   UNL     1       2.203   3.519  21.615  0.00  0.00    +0.000 A 
ATOM     24  C   UNL     1       2.628   4.651  20.917  0.00  0.00    +0.000 A 
ENDBRANCH   8  19
BRANCH   1  25
ATOM     25  C   UNL     1       5.990   5.283  17.115  0.00  0.00    +0.000 C 
BRANCH  25  27
ATOM     26  C   UNL     1       7.389   5.718  19.198  0.00  0.00    +0.000 C 
ATOM     27  C   UNL     1       7.240   4.913  17.916  0.00  0.00    +0.000 C 
ENDBRANCH  25  27
ENDBRANCH   1  25
TORSDOF 6
ENDMDL
MODEL 5
REMARK VINA RESULT:      -6.3      0.577      1.090
REMARK  Name = 
REMARK  9 active torsions:
REMARK  status: ('A' for Active; 'I' for Inactive)
REMARK    1  A    between atoms: C_1  and  C_2
REMARK    2  A    between atoms: C_2  and  C_3
REMARK    3  A    between atoms: C_3  and  N_4
REMARK    4  A    between atoms: C_8  and  C_9
REMARK    5  A    between atoms: C_12  and  O_13
REMARK    6  A    between atoms: O_13  and  C_14
REMARK    7  A    between atoms: C_15  and  O_16
REMARK    8  A    between atoms: O_16  and  C_17
REMARK    9  A    between atoms: N_21  and  C_22
REMARK                            x       y       z     vdW  Elec       q    Type
REMARK                         _______ _______ _______ _____ _____    ______ ____
ROOT
ATOM      1  N   UNL     1       4.705   4.981  18.288  0.00  0.00    +0.000 NA
ATOM      2  C   UNL     1       3.829   5.918  18.230  0.00  0.00    +0.000 C 
ATOM      3  S   UNL     1       3.946   7.393  17.290  0.00  0.00    +0.000 S 
ATOM      4  C   UNL     1       2.586   8.102  18.073  0.00  0.00    +0.000 C 
ATOM      5  C   UNL     1       2.234   9.386  17.910  0.00  0.00    +0.000 C 
ATOM      6  C   UNL     1       1.920   7.093  18.953  0.00  0.00    +0.000 C 
ATOM      7  O   UNL     1       0.846   7.284  19.503  0.00  0.00    +0.000 OA
ATOM      8  N   UNL     1       2.670   5.925  18.979  0.00  0.00    +0.000 N 
ENDROOT
BRANCH   5   9
ATOM      9  C   UNL     1       1.155  10.029  18.662  0.00  0.00    +0.000 A 
ATOM     10  C   UNL     1       1.400  10.624  19.894  0.00  0.00    +0.000 A 
ATOM     11  C   UNL     1       0.373  11.317  20.536  0.00  0.00    +0.000 A 
ATOM     12  C   UNL     1      -0.904  11.427  19.963  0.00  0.00    +0.000 A 
ATOM     13  C   UNL     1      -1.165  10.805  18.729  0.00  0.00    +0.000 A 
ATOM     14  C   UNL     1      -0.126  10.108  18.092  0.00  0.00    +0.000 A 
BRANCH  12  15
ATOM     15  O   UNL     1      -1.751  12.173  20.744  0.00  0.00    +0.000 OA
ATOM     16  C   UNL     1      -1.789  13.580  20.566  0.00  0.00    +0.000 C 
ENDBRANCH  12  15
BRANCH  13  17
ATOM     17  O   UNL     1      -2.423  10.906  18.197  0.00  0.00    +0.000 OA
ATOM     18  C   UNL     1      -3.003   9.755  17.599  0.00  0.00    +0.000 C 
ENDBRANCH  13  17
ENDBRANCH   5   9
BRANCH   8  19
ATOM     19  C   UNL     1       2.215   4.802  19.720  0.00  0.00    +0.000 A 
ATOM     20  C   UNL     1       2.564   4.652  21.068  0.00  0.00    +0.000 A 
ATOM     21  C   UNL     1       2.207   3.496  21.765  0.00  0.00    +0.000 A 
ATOM     22  C   UNL     1       1.459   2.501  21.137  0.00  0.00    +0.000 A 
ATOM     23  C   UNL     1       1.078   2.654  19.806  0.00  0.00    +0.000 A 
ATOM     24  C   UNL     1       1.470   3.789  19.095  0.00  0.00    +0.000 A 
ENDBRANCH   8  19
BRANCH   1  25
ATOM     25  C   UNL     1       5.948   5.082  17.530  0.00  0.00    +0.000 C 
BRANCH  25  27
ATOM     26  C   UNL     1       6.874   4.596  15.208  0.00  0.00    +0.000 C 
ATOM     27  C   UNL     1       5.844   4.227  16.265  0.00  0.00    +0.000 C 
ENDBRANCH  25  27
ENDBRANCH   1  25
TORSDOF 6
ENDMDL
MODEL 6
REMARK VINA RESULT:      -6.3      0.913      1.906
REMARK  Name = 
REMARK  9 active torsions:
REMARK  status: ('A' for Active; 'I' for Inactive)
REMARK    1  A    between atoms: C_1  and  C_2
REMARK    2  A    between atoms: C_2  and  C_3
REMARK    3  A    between atoms: C_3  and  N_4
REMARK    4  A    between atoms: C_8  and  C_9
REMARK    5  A    between atoms: C_12  and  O_13
REMARK    6  A    between atoms: O_13  and  C_14
REMARK    7  A    between atoms: C_15  and  O_16
REMARK    8  A    between atoms: O_16  and  C_17
REMARK    9  A    between atoms: N_21  and  C_22
REMARK                            x       y       z     vdW  Elec       q    Type
REMARK                         _______ _______ _______ _____ _____    ______ ____
ROOT
ATOM      1  N   UNL     1       5.004   4.762  18.199  0.00  0.00    +0.000 NA
ATOM      2  C   UNL     1       4.146   5.710  18.086  0.00  0.00    +0.000 C 
ATOM      3  S   UNL     1       4.316   7.154  17.107  0.00  0.00    +0.000 S 
ATOM      4  C   UNL     1       2.946   7.908  17.826  0.00  0.00    +0.000 C 
ATOM      5  C   UNL     1       2.620   9.192  17.614  0.00  0.00    +0.000 C 
ATOM      6  C   UNL     1       2.236   6.937  18.715  0.00  0.00    +0.000 C 
ATOM      7  O   UNL     1       1.149   7.161  19.225  0.00  0.00    +0.000 OA
ATOM      8  N   UNL     1       2.966   5.759  18.798  0.00  0.00    +0.000 N 
ENDROOT
BRANCH   5   9
ATOM      9  C   UNL     1       1.529   9.875  18.313  0.00  0.00    +0.000 A 
ATOM     10  C   UNL     1       0.207   9.694  17.922  0.00  0.00    +0.000 A 
ATOM     11  C   UNL     1      -0.814  10.278  18.672  0.00  0.00    +0.000 A 
ATOM     12  C   UNL     1      -0.535  11.045  19.814  0.00  0.00    +0.000 A 
ATOM     13  C   UNL     1       0.801  11.253  20.198  0.00  0.00    +0.000 A 
ATOM     14  C   UNL     1       1.822  10.663  19.436  0.00  0.00    +0.000 A 
BRANCH  12  15
ATOM     15  O   UNL     1      -1.681  11.499  20.416  0.00  0.00    +0.000 OA
ATOM     16  C   UNL     1      -2.282  12.692  19.939  0.00  0.00    +0.000 C 
ENDBRANCH  12  15
BRANCH  13  17
ATOM     17  O   UNL     1       1.054  12.022  21.304  0.00  0.00    +0.000 OA
ATOM     18  C   UNL     1       1.195  13.426  21.138  0.00  0.00    +0.000 C 
ENDBRANCH  13  17
ENDBRANCH   5   9
BRANCH   8  19
ATOM     19  C   UNL     1       2.469   4.666  19.558  0.00  0.00    +0.000 A 
ATOM     20  C   UNL     1       1.705   3.664  18.946  0.00  0.00    +0.000 A 
ATOM     21  C   UNL     1       1.127   2.650  19.713  0.00  0.00    +0.000 A 
ATOM     22  C   UNL     1       1.346   2.600  21.088  0.00  0.00    +0.000 A 
ATOM     23  C   UNL     1       2.131   3.572  21.704  0.00  0.00    +0.000 A 
ATOM     24  C   UNL     1       2.674   4.611  20.946  0.00  0.00    +0.000 A 
ENDBRANCH   8  19
BRANCH   1  25
ATOM     25  C   UNL     1       6.271   4.820  17.477  0.00  0.00    +0.000 C 
BRANCH  25  27
ATOM     26  C   UNL     1       6.484   4.867  14.939  0.00  0.00    +0.000 C 
ATOM     27  C   UNL     1       6.148   4.036  16.168  0.00  0.00    +0.000 C 
ENDBRANCH  25  27
ENDBRANCH   1  25
TORSDOF 6
ENDMDL
MODEL 7
REMARK VINA RESULT:      -6.2      1.016      2.272
REMARK  Name = 
REMARK  9 active torsions:
REMARK  status: ('A' for Active; 'I' for Inactive)
REMARK    1  A    between atoms: C_1  and  C_2
REMARK    2  A    between atoms: C_2  and  C_3
REMARK    3  A    between atoms: C_3  and  N_4
REMARK    4  A    between atoms: C_8  and  C_9
REMARK    5  A    between atoms: C_12  and  O_13
REMARK    6  A    between atoms: O_13  and  C_14
REMARK    7  A    between atoms: C_15  and  O_16
REMARK    8  A    between atoms: O_16  and  C_17
REMARK    9  A    between atoms: N_21  and  C_22
REMARK                            x       y       z     vdW  Elec       q    Type
REMARK                         _______ _______ _______ _____ _____    ______ ____
ROOT
ATOM      1  N   UNL     1       4.786   4.922  18.290  0.00  0.00    +0.000 NA
ATOM      2  C   UNL     1       3.915   5.864  18.225  0.00  0.00    +0.000 C 
ATOM      3  S   UNL     1       4.052   7.343  17.293  0.00  0.00    +0.000 S 
ATOM      4  C   UNL     1       2.686   8.055  18.062  0.00  0.00    +0.000 C 
ATOM      5  C   UNL     1       2.342   9.341  17.900  0.00  0.00    +0.000 C 
ATOM      6  C   UNL     1       2.003   7.046  18.929  0.00  0.00    +0.000 C 
ATOM      7  O   UNL     1       0.923   7.240  19.465  0.00  0.00    +0.000 OA
ATOM      8  N   UNL     1       2.747   5.874  18.958  0.00  0.00    +0.000 N 
ENDROOT
BRANCH   5   9
ATOM      9  C   UNL     1       1.257   9.987  18.641  0.00  0.00    +0.000 A 
ATOM     10  C   UNL     1       0.072  10.343  18.006  0.00  0.00    +0.000 A 
ATOM     11  C   UNL     1      -0.979  10.863  18.761  0.00  0.00    +0.000 A 
ATOM     12  C   UNL     1      -0.868  11.034  20.150  0.00  0.00    +0.000 A 
ATOM     13  C   UNL     1       0.337  10.701  20.793  0.00  0.00    +0.000 A 
ATOM     14  C   UNL     1       1.391  10.180  20.024  0.00  0.00    +0.000 A 
BRANCH  12  15
ATOM     15  O   UNL     1      -2.024  11.529  20.697  0.00  0.00    +0.000 OA
ATOM     16  C   UNL     1      -2.160  12.932  20.864  0.00  0.00    +0.000 C 
ENDBRANCH  12  15
BRANCH  13  17
ATOM     17  O   UNL     1       0.434  10.895  22.145  0.00  0.00    +0.000 OA
ATOM     18  C   UNL     1      -0.129   9.921  23.014  0.00  0.00    +0.000 C 
ENDBRANCH  13  17
ENDBRANCH   5   9
BRANCH   8  19
ATOM     19  C   UNL     1       2.276   4.750  19.689  0.00  0.00    +0.000 A 
ATOM     20  C   UNL     1       2.553   4.625  21.056  0.00  0.00    +0.000 A 
ATOM     21  C   UNL     1       2.184   3.469  21.748  0.00  0.00    +0.000 A 
ATOM     22  C   UNL     1       1.494   2.450  21.093  0.00  0.00    +0.000 A 
ATOM     23  C   UNL     1       1.185   2.577  19.741  0.00  0.00    +0.000 A 
ATOM     24  C   UNL     1       1.590   3.712  19.037  0.00  0.00    +0.000 A 
ENDBRANCH   8  19
BRANCH   1  25
ATOM     25  C   UNL     1       6.038   5.020  17.548  0.00  0.00    +0.000 C 
BRANCH  25  27
ATOM     26  C   UNL     1       7.764   6.748  18.272  0.00  0.00    +0.000 C 
ATOM     27  C   UNL     1       7.176   5.365  18.512  0.00  0.00    +0.000 C 
ENDBRANCH  25  27
ENDBRANCH   1  25
TORSDOF 6
ENDMDL
MODEL 8
REMARK VINA RESULT:      -6.1      0.876      2.047
REMARK  Name = 
REMARK  9 active torsions:
REMARK  status: ('A' for Active; 'I' for Inactive)
REMARK    1  A    between atoms: C_1  and  C_2
REMARK    2  A    between atoms: C_2  and  C_3
REMARK    3  A    between atoms: C_3  and  N_4
REMARK    4  A    between atoms: C_8  and  C_9
REMARK    5  A    between atoms: C_12  and  O_13
REMARK    6  A    between atoms: O_13  and  C_14
REMARK    7  A    between atoms: C_15  and  O_16
REMARK    8  A    between atoms: O_16  and  C_17
REMARK    9  A    between atoms: N_21  and  C_22
REMARK                            x       y       z     vdW  Elec       q    Type
REMARK                         _______ _______ _______ _____ _____    ______ ____
ROOT
ATOM      1  N   UNL     1       4.645   4.961  18.226  0.00  0.00    +0.000 NA
ATOM      2  C   UNL     1       3.786   5.915  18.206  0.00  0.00    +0.000 C 
ATOM      3  S   UNL     1       3.908   7.404  17.288  0.00  0.00    +0.000 S 
ATOM      4  C   UNL     1       2.583   8.125  18.117  0.00  0.00    +0.000 C 
ATOM      5  C   UNL     1       2.251   9.418  17.984  0.00  0.00    +0.000 C 
ATOM      6  C   UNL     1       1.919   7.114  18.997  0.00  0.00    +0.000 C 
ATOM      7  O   UNL     1       0.863   7.316  19.576  0.00  0.00    +0.000 OA
ATOM      8  N   UNL     1       2.647   5.932  18.983  0.00  0.00    +0.000 N 
ENDROOT
BRANCH   5   9
ATOM      9  C   UNL     1       1.204  10.069  18.774  0.00  0.00    +0.000 A 
ATOM     10  C   UNL     1       0.035  10.521  18.173  0.00  0.00    +0.000 A 
ATOM     11  C   UNL     1      -0.985  11.044  18.969  0.00  0.00    +0.000 A 
ATOM     12  C   UNL     1      -0.856  11.123  20.365  0.00  0.00    +0.000 A 
ATOM     13  C   UNL     1       0.334  10.691  20.974  0.00  0.00    +0.000 A 
ATOM     14  C   UNL     1       1.356  10.169  20.165  0.00  0.00    +0.000 A 
BRANCH  12  15
ATOM     15  O   UNL     1      -1.983  11.639  20.952  0.00  0.00    +0.000 OA
ATOM     16  C   UNL     1      -2.110  13.047  21.076  0.00  0.00    +0.000 C 
ENDBRANCH  12  15
BRANCH  13  17
ATOM     17  O   UNL     1       0.449  10.795  22.335  0.00  0.00    +0.000 OA
ATOM     18  C   UNL     1      -0.117   9.775  23.146  0.00  0.00    +0.000 C 
ENDBRANCH  13  17
ENDBRANCH   5   9
BRANCH   8  19
ATOM     19  C   UNL     1       2.188   4.805  19.717  0.00  0.00    +0.000 A 
ATOM     20  C   UNL     1       2.543   4.641  21.062  0.00  0.00    +0.000 A 
ATOM     21  C   UNL     1       2.183   3.480  21.751  0.00  0.00    +0.000 A 
ATOM     22  C   UNL     1       1.425   2.497  21.117  0.00  0.00    +0.000 A 
ATOM     23  C   UNL     1       1.038   2.663  19.790  0.00  0.00    +0.000 A 
ATOM     24  C   UNL     1       1.434   3.802  19.087  0.00  0.00    +0.000 A 
ENDBRANCH   8  19
BRANCH   1  25
ATOM     25  C   UNL     1       5.870   5.052  17.438  0.00  0.00    +0.000 C 
BRANCH  25  27
ATOM     26  C   UNL     1       5.833   4.895  14.897  0.00  0.00    +0.000 C 
ATOM     27  C   UNL     1       5.758   4.139  16.215  0.00  0.00    +0.000 C 
ENDBRANCH  25  27
ENDBRANCH   1  25
TORSDOF 6
ENDMDL
MODEL 9
REMARK VINA RESULT:      -5.9      4.546      6.993
REMARK  Name = 
REMARK  9 active torsions:
REMARK  status: ('A' for Active; 'I' for Inactive)
REMARK    1  A    between atoms: C_1  and  C_2
REMARK    2  A    between atoms: C_2  and  C_3
REMARK    3  A    between atoms: C_3  and  N_4
REMARK    4  A    between atoms: C_8  and  C_9
REMARK    5  A    between atoms: C_12  and  O_13
REMARK    6  A    between atoms: O_13  and  C_14
REMARK    7  A    between atoms: C_15  and  O_16
REMARK    8  A    between atoms: O_16  and  C_17
REMARK    9  A    between atoms: N_21  and  C_22
REMARK                            x       y       z     vdW  Elec       q    Type
REMARK                         _______ _______ _______ _____ _____    ______ ____
ROOT
ATOM      1  N   UNL     1      -1.541   9.797  17.849  0.00  0.00    +0.000 NA
ATOM      2  C   UNL     1      -1.011  10.820  18.416  0.00  0.00    +0.000 C 
ATOM      3  S   UNL     1      -1.715  12.421  18.537  0.00  0.00    +0.000 S 
ATOM      4  C   UNL     1      -0.244  13.121  19.091  0.00  0.00    +0.000 C 
ATOM      5  C   UNL     1      -0.063  14.444  19.217  0.00  0.00    +0.000 C 
ATOM      6  C   UNL     1       0.763  12.048  19.361  0.00  0.00    +0.000 C 
ATOM      7  O   UNL     1       1.835  12.253  19.909  0.00  0.00    +0.000 OA
ATOM      8  N   UNL     1       0.256  10.819  18.961  0.00  0.00    +0.000 N 
ENDROOT
BRANCH   5   9
ATOM      9  C   UNL     1       1.220  15.055  19.571  0.00  0.00    +0.000 A 
ATOM     10  C   UNL     1       1.490  15.439  20.879  0.00  0.00    +0.000 A 
ATOM     11  C   UNL     1       2.758  15.923  21.202  0.00  0.00    +0.000 A 
ATOM     12  C   UNL     1       3.769  16.030  20.233  0.00  0.00    +0.000 A 
ATOM     13  C   UNL     1       3.492  15.667  18.903  0.00  0.00    +0.000 A 
ATOM     14  C   UNL     1       2.212  15.183  18.587  0.00  0.00    +0.000 A 
BRANCH  12  15
ATOM     15  O   UNL     1       4.941  16.499  20.769  0.00  0.00    +0.000 OA
ATOM     16  C   UNL     1       5.793  15.595  21.455  0.00  0.00    +0.000 C 
ENDBRANCH  12  15
BRANCH  13  17
ATOM     17  O   UNL     1       4.485  15.798  17.968  0.00  0.00    +0.000 OA
ATOM     18  C   UNL     1       5.419  14.739  17.815  0.00  0.00    +0.000 C 
ENDBRANCH  13  17
ENDBRANCH   5   9
BRANCH   8  19
ATOM     19  C   UNL     1       1.019   9.636  19.155  0.00  0.00    +0.000 A 
ATOM     20  C   UNL     1       1.771   9.096  18.105  0.00  0.00    +0.000 A 
ATOM     21  C   UNL     1       2.433   7.877  18.264  0.00  0.00    +0.000 A 
ATOM     22  C   UNL     1       2.389   7.211  19.488  0.00  0.00    +0.000 A 
ATOM     23  C   UNL     1       1.672   7.754  20.551  0.00  0.00    +0.000 A 
ATOM     24  C   UNL     1       0.974   8.951  20.380  0.00  0.00    +0.000 A 
ENDBRANCH   8  19
BRANCH   1  25
ATOM     25  C   UNL     1      -2.853   9.896  17.219  0.00  0.00    +0.000 C 
BRANCH  25  27
ATOM     26  C   UNL     1      -3.555  10.594  14.872  0.00  0.00    +0.000 C 
ATOM     27  C   UNL     1      -2.717   9.644  15.716  0.00  0.00    +0.000 C 
ENDBRANCH  25  27
ENDBRANCH   1  25
TORSDOF 6
ENDMDL
