MODEL 1
REMARK VINA RESULT:      -7.9      0.000      0.000
REMARK  Name = 
REMARK  6 active torsions:
REMARK  status: ('A' for Active; 'I' for Inactive)
REMARK    1  A    between atoms: C_1  and  C_2
REMARK    2  A    between atoms: C_2  and  N_3
REMARK    3  A    between atoms: N_3  and  C_4
REMARK    4  A    between atoms: C_9  and  O_10
REMARK    5  A    between atoms: C_17  and  C_18
REMARK    6  A    between atoms: C_19  and  O_20
REMARK                            x       y       z     vdW  Elec       q    Type
REMARK                         _______ _______ _______ _____ _____    ______ ____
ROOT
ATOM      1  C   UNL     1       0.050   9.332  21.081  0.00  0.00    +0.000 A 
ATOM      2  C   UNL     1       0.793   8.137  20.964  0.00  0.00    +0.000 A 
ATOM      3  C   UNL     1       1.631   7.847  19.876  0.00  0.00    +0.000 A 
ATOM      4  C   UNL     1       1.767   8.816  18.870  0.00  0.00    +0.000 A 
ATOM      5  C   UNL     1       1.037  10.014  18.953  0.00  0.00    +0.000 A 
ATOM      6  C   UNL     1       0.187  10.264  20.040  0.00  0.00    +0.000 A 
ATOM      7  C   UNL     1       2.644   8.601  17.655  0.00  0.00    +0.000 C 
ATOM      8  C   UNL     1       3.493   7.333  17.693  0.00  0.00    +0.000 C 
ATOM      9  C   UNL     1       2.717   6.171  18.321  0.00  0.00    +0.000 C 
ATOM     10  C   UNL     1       2.405   6.537  19.805  0.00  0.00    +0.000 C 
ATOM     11  C   UNL     1       1.757   5.354  20.572  0.00  0.00    +0.000 C 
ATOM     12  C   UNL     1       2.509   4.026  20.402  0.00  0.00    +0.000 C 
ATOM     13  C   UNL     1       2.723   3.689  18.924  0.00  0.00    +0.000 C 
ATOM     14  C   UNL     1       1.357   3.379  18.261  0.00  0.00    +0.000 C 
ATOM     15  C   UNL     1       3.727   2.547  18.669  0.00  0.00    +0.000 C 
ATOM     16  C   UNL     1       4.230   2.801  17.233  0.00  0.00    +0.000 C 
ATOM     17  C   UNL     1       3.922   4.281  16.926  0.00  0.00    +0.000 C 
ATOM     18  C   UNL     1       3.497   4.856  18.276  0.00  0.00    +0.000 C 
ENDROOT
BRANCH   1  19
ATOM     19  N   UNL     1      -0.840   9.517  22.131  0.00  0.00    +0.000 N 
ATOM     20  H   UNL     1      -1.773   9.132  22.003  0.00  0.00    +0.000 HD
BRANCH  19  22
ATOM     21  C   UNL     1      -1.678  11.536  23.242  0.00  0.00    +0.000 C 
ATOM     22  C   UNL     1      -0.588  10.487  23.186  0.00  0.00    +0.000 C 
ENDBRANCH  19  22
ENDBRANCH   1  19
BRANCH   6  23
ATOM     23  O   UNL     1      -0.508  11.446  20.084  0.00  0.00    +0.000 OA
ATOM     24  H   UNL     1      -0.972  11.560  19.234  0.00  0.00    +0.000 HD
ENDBRANCH   6  23
BRANCH  15  25
ATOM     25  O   UNL     1       3.183   1.252  18.830  0.00  0.00    +0.000 OA
ATOM     26  H   UNL     1       3.912   0.620  18.946  0.00  0.00    +0.000 HD
ENDBRANCH  15  25
TORSDOF 4
ENDMDL
MODEL 2
REMARK VINA RESULT:      -7.8      4.621      7.905
REMARK  Name = 
REMARK  6 active torsions:
REMARK  status: ('A' for Active; 'I' for Inactive)
REMARK    1  A    between atoms: C_1  and  C_2
REMARK    2  A    between atoms: C_2  and  N_3
REMARK    3  A    between atoms: N_3  and  C_4
REMARK    4  A    between atoms: C_9  and  O_10
REMARK    5  A    between atoms: C_17  and  C_18
REMARK    6  A    between atoms: C_19  and  O_20
REMARK                            x       y       z     vdW  Elec       q    Type
REMARK                         _______ _______ _______ _____ _____    ______ ____
ROOT
ATOM      1  C   UNL     1       6.342   4.049  13.962  0.00  0.00    +0.000 A 
ATOM      2  C   UNL     1       5.219   3.927  14.811  0.00  0.00    +0.000 A 
ATOM      3  C   UNL     1       4.948   4.809  15.869  0.00  0.00    +0.000 A 
ATOM      4  C   UNL     1       5.817   5.892  16.068  0.00  0.00    +0.000 A 
ATOM      5  C   UNL     1       6.947   6.038  15.245  0.00  0.00    +0.000 A 
ATOM      6  C   UNL     1       7.208   5.126  14.212  0.00  0.00    +0.000 A 
ATOM      7  C   UNL     1       5.613   6.898  17.180  0.00  0.00    +0.000 C 
ATOM      8  C   UNL     1       4.307   6.742  17.955  0.00  0.00    +0.000 C 
ATOM      9  C   UNL     1       3.960   5.263  18.154  0.00  0.00    +0.000 C 
ATOM     10  C   UNL     1       3.720   4.623  16.752  0.00  0.00    +0.000 C 
ATOM     11  C   UNL     1       3.209   3.162  16.859  0.00  0.00    +0.000 C 
ATOM     12  C   UNL     1       2.031   2.993  17.831  0.00  0.00    +0.000 C 
ATOM     13  C   UNL     1       2.354   3.579  19.207  0.00  0.00    +0.000 C 
ATOM     14  C   UNL     1       3.461   2.732  19.884  0.00  0.00    +0.000 C 
ATOM     15  C   UNL     1       1.135   3.729  20.139  0.00  0.00    +0.000 C 
ATOM     16  C   UNL     1       1.549   4.839  21.127  0.00  0.00    +0.000 C 
ATOM     17  C   UNL     1       2.701   5.608  20.449  0.00  0.00    +0.000 C 
ATOM     18  C   UNL     1       2.714   5.068  19.021  0.00  0.00    +0.000 C 
ENDROOT
BRANCH   1  19
ATOM     19  N   UNL     1       6.613   3.087  12.998  0.00  0.00    +0.000 N 
ATOM     20  H   UNL     1       7.581   2.783  12.925  0.00  0.00    +0.000 HD
BRANCH  19  22
ATOM     21  C   UNL     1       5.992   1.467  11.265  0.00  0.00    +0.000 C 
ATOM     22  C   UNL     1       5.670   2.787  11.931  0.00  0.00    +0.000 C 
ENDBRANCH  19  22
ENDBRANCH   1  19
BRANCH   6  23
ATOM     23  O   UNL     1       8.321   5.304  13.431  0.00  0.00    +0.000 OA
ATOM     24  H   UNL     1       8.747   4.436  13.303  0.00  0.00    +0.000 HD
ENDBRANCH   6  23
BRANCH  15  25
ATOM     25  O   UNL     1       0.757   2.535  20.795  0.00  0.00    +0.000 OA
ATOM     26  H   UNL     1       1.505   1.915  20.770  0.00  0.00    +0.000 HD
ENDBRANCH  15  25
TORSDOF 4
ENDMDL
MODEL 3
REMARK VINA RESULT:      -7.7      0.935      1.058
REMARK  Name = 
REMARK  6 active torsions:
REMARK  status: ('A' for Active; 'I' for Inactive)
REMARK    1  A    between atoms: C_1  and  C_2
REMARK    2  A    between atoms: C_2  and  N_3
REMARK    3  A    between atoms: N_3  and  C_4
REMARK    4  A    between atoms: C_9  and  O_10
REMARK    5  A    between atoms: C_17  and  C_18
REMARK    6  A    between atoms: C_19  and  O_20
REMARK                            x       y       z     vdW  Elec       q    Type
REMARK                         _______ _______ _______ _____ _____    ______ ____
ROOT
ATOM      1  C   UNL     1       0.687   9.851  20.019  0.00  0.00    +0.000 A 
ATOM      2  C   UNL     1       1.148   8.528  20.207  0.00  0.00    +0.000 A 
ATOM      3  C   UNL     1       2.008   7.872  19.312  0.00  0.00    +0.000 A 
ATOM      4  C   UNL     1       2.465   8.583  18.192  0.00  0.00    +0.000 A 
ATOM      5  C   UNL     1       2.021   9.898  17.974  0.00  0.00    +0.000 A 
ATOM      6  C   UNL     1       1.140  10.519  18.871  0.00  0.00    +0.000 A 
ATOM      7  C   UNL     1       3.393   7.967  17.168  0.00  0.00    +0.000 C 
ATOM      8  C   UNL     1       3.924   6.583  17.534  0.00  0.00    +0.000 C 
ATOM      9  C   UNL     1       2.843   5.745  18.224  0.00  0.00    +0.000 C 
ATOM     10  C   UNL     1       2.468   6.443  19.568  0.00  0.00    +0.000 C 
ATOM     11  C   UNL     1       1.492   5.585  20.416  0.00  0.00    +0.000 C 
ATOM     12  C   UNL     1       1.937   4.124  20.575  0.00  0.00    +0.000 C 
ATOM     13  C   UNL     1       2.224   3.476  19.219  0.00  0.00    +0.000 C 
ATOM     14  C   UNL     1       0.900   3.330  18.425  0.00  0.00    +0.000 C 
ATOM     15  C   UNL     1       2.963   2.126  19.300  0.00  0.00    +0.000 C 
ATOM     16  C   UNL     1       3.659   1.994  17.930  0.00  0.00    +0.000 C 
ATOM     17  C   UNL     1       3.728   3.418  17.344  0.00  0.00    +0.000 C 
ATOM     18  C   UNL     1       3.305   4.315  18.507  0.00  0.00    +0.000 C 
ENDROOT
BRANCH   1  19
ATOM     19  N   UNL     1      -0.243  10.409  20.886  0.00  0.00    +0.000 N 
ATOM     20  H   UNL     1      -0.677  11.278  20.582  0.00  0.00    +0.000 HD
BRANCH  19  22
ATOM     21  C   UNL     1      -1.178  10.958  23.086  0.00  0.00    +0.000 C 
ATOM     22  C   UNL     1      -0.341   9.991  22.276  0.00  0.00    +0.000 C 
ENDBRANCH  19  22
ENDBRANCH   1  19
BRANCH   6  23
ATOM     23  O   UNL     1       0.730  11.804  18.622  0.00  0.00    +0.000 OA
ATOM     24  H   UNL     1       0.155  12.089  19.356  0.00  0.00    +0.000 HD
ENDBRANCH   6  23
BRANCH  15  25
ATOM     25  O   UNL     1       2.127   1.023  19.590  0.00  0.00    +0.000 OA
ATOM     26  H   UNL     1       1.346   1.343  20.072  0.00  0.00    +0.000 HD
ENDBRANCH  15  25
TORSDOF 4
ENDMDL
MODEL 4
REMARK VINA RESULT:      -7.6      2.510      7.646
REMARK  Name = 
REMARK  6 active torsions:
REMARK  status: ('A' for Active; 'I' for Inactive)
REMARK    1  A    between atoms: C_1  and  C_2
REMARK    2  A    between atoms: C_2  and  N_3
REMARK    3  A    between atoms: N_3  and  C_4
REMARK    4  A    between atoms: C_9  and  O_10
REMARK    5  A    between atoms: C_17  and  C_18
REMARK    6  A    between atoms: C_19  and  O_20
REMARK                            x       y       z     vdW  Elec       q    Type
REMARK                         _______ _______ _______ _____ _____    ______ ____
ROOT
ATOM      1  C   UNL     1       4.148   4.430  17.207  0.00  0.00    +0.000 A 
ATOM      2  C   UNL     1       3.798   5.768  17.497  0.00  0.00    +0.000 A 
ATOM      3  C   UNL     1       3.025   6.144  18.606  0.00  0.00    +0.000 A 
ATOM      4  C   UNL     1       2.612   5.141  19.496  0.00  0.00    +0.000 A 
ATOM      5  C   UNL     1       2.938   3.800  19.233  0.00  0.00    +0.000 A 
ATOM      6  C   UNL     1       3.689   3.450  18.102  0.00  0.00    +0.000 A 
ATOM      7  C   UNL     1       1.776   5.442  20.721  0.00  0.00    +0.000 C 
ATOM      8  C   UNL     1       1.562   6.928  21.003  0.00  0.00    +0.000 C 
ATOM      9  C   UNL     1       1.366   7.711  19.701  0.00  0.00    +0.000 C 
ATOM     10  C   UNL     1       2.679   7.605  18.865  0.00  0.00    +0.000 C 
ATOM     11  C   UNL     1       2.633   8.499  17.597  0.00  0.00    +0.000 C 
ATOM     12  C   UNL     1       2.187   9.941  17.878  0.00  0.00    +0.000 C 
ATOM     13  C   UNL     1       0.861   9.978  18.640  0.00  0.00    +0.000 C 
ATOM     14  C   UNL     1      -0.276   9.456  17.726  0.00  0.00    +0.000 C 
ATOM     15  C   UNL     1       0.501  11.357  19.227  0.00  0.00    +0.000 C 
ATOM     16  C   UNL     1      -0.453  11.033  20.395  0.00  0.00    +0.000 C 
ATOM     17  C   UNL     1      -0.206   9.554  20.752  0.00  0.00    +0.000 C 
ATOM     18  C   UNL     1       1.041   9.185  19.951  0.00  0.00    +0.000 C 
ENDROOT
BRANCH   1  19
ATOM     19  N   UNL     1       4.827   4.110  16.039  0.00  0.00    +0.000 N 
ATOM     20  H   UNL     1       4.295   3.605  15.333  0.00  0.00    +0.000 HD
BRANCH  19  22
ATOM     21  C   UNL     1       6.737   4.667  14.604  0.00  0.00    +0.000 C 
ATOM     22  C   UNL     1       6.279   4.167  15.958  0.00  0.00    +0.000 C 
ENDBRANCH  19  22
ENDBRANCH   1  19
BRANCH   6  23
ATOM     23  O   UNL     1       3.987   2.130  17.881  0.00  0.00    +0.000 OA
ATOM     24  H   UNL     1       3.156   1.659  17.679  0.00  0.00    +0.000 HD
ENDBRANCH   6  23
BRANCH  15  25
ATOM     25  O   UNL     1      -0.072  12.252  18.294  0.00  0.00    +0.000 OA
ATOM     26  H   UNL     1      -0.863  12.653  18.691  0.00  0.00    +0.000 HD
ENDBRANCH  15  25
TORSDOF 4
ENDMDL
MODEL 5
REMARK VINA RESULT:      -7.1      2.556      3.954
REMARK  Name = 
REMARK  6 active torsions:
REMARK  status: ('A' for Active; 'I' for Inactive)
REMARK    1  A    between atoms: C_1  and  C_2
REMARK    2  A    between atoms: C_2  and  N_3
REMARK    3  A    between atoms: N_3  and  C_4
REMARK    4  A    between atoms: C_9  and  O_10
REMARK    5  A    between atoms: C_17  and  C_18
REMARK    6  A    between atoms: C_19  and  O_20
REMARK                            x       y       z     vdW  Elec       q    Type
REMARK                         _______ _______ _______ _____ _____    ______ ____
ROOT
ATOM      1  C   UNL     1       0.789   9.762  19.068  0.00  0.00    +0.000 A 
ATOM      2  C   UNL     1       1.629   8.962  18.263  0.00  0.00    +0.000 A 
ATOM      3  C   UNL     1       2.253   7.789  18.717  0.00  0.00    +0.000 A 
ATOM      4  C   UNL     1       1.994   7.369  20.031  0.00  0.00    +0.000 A 
ATOM      5  C   UNL     1       1.167   8.145  20.860  0.00  0.00    +0.000 A 
ATOM      6  C   UNL     1       0.579   9.327  20.387  0.00  0.00    +0.000 A 
ATOM      7  C   UNL     1       2.617   6.120  20.616  0.00  0.00    +0.000 C 
ATOM      8  C   UNL     1       3.405   5.270  19.623  0.00  0.00    +0.000 C 
ATOM      9  C   UNL     1       4.181   6.152  18.640  0.00  0.00    +0.000 C 
ATOM     10  C   UNL     1       3.152   6.969  17.800  0.00  0.00    +0.000 C 
ATOM     11  C   UNL     1       3.838   7.778  16.667  0.00  0.00    +0.000 C 
ATOM     12  C   UNL     1       4.812   6.944  15.821  0.00  0.00    +0.000 C 
ATOM     13  C   UNL     1       5.837   6.221  16.697  0.00  0.00    +0.000 C 
ATOM     14  C   UNL     1       6.781   7.261  17.353  0.00  0.00    +0.000 C 
ATOM     15  C   UNL     1       6.647   5.133  15.966  0.00  0.00    +0.000 C 
ATOM     16  C   UNL     1       7.106   4.184  17.092  0.00  0.00    +0.000 C 
ATOM     17  C   UNL     1       6.165   4.446  18.284  0.00  0.00    +0.000 C 
ATOM     18  C   UNL     1       5.069   5.335  17.699  0.00  0.00    +0.000 C 
ENDROOT
BRANCH   1  19
ATOM     19  N   UNL     1       0.284  10.965  18.594  0.00  0.00    +0.000 N 
ATOM     20  H   UNL     1       0.885  11.779  18.700  0.00  0.00    +0.000 HD
BRANCH  19  22
ATOM     21  C   UNL     1      -1.635  10.037  17.381  0.00  0.00    +0.000 C 
ATOM     22  C   UNL     1      -1.129  11.135  18.291  0.00  0.00    +0.000 C 
ENDBRANCH  19  22
ENDBRANCH   1  19
BRANCH   6  23
ATOM     23  O   UNL     1      -0.222  10.056  21.227  0.00  0.00    +0.000 OA
ATOM     24  H   UNL     1      -0.966   9.490  21.508  0.00  0.00    +0.000 HD
ENDBRANCH   6  23
BRANCH  15  25
ATOM     25  O   UNL     1       7.728   5.630  15.203  0.00  0.00    +0.000 OA
ATOM     26  H   UNL     1       8.497   5.051  15.337  0.00  0.00    +0.000 HD
ENDBRANCH  15  25
TORSDOF 4
ENDMDL
MODEL 6
REMARK VINA RESULT:      -7.1      5.125      7.662
REMARK  Name = 
REMARK  6 active torsions:
REMARK  status: ('A' for Active; 'I' for Inactive)
REMARK    1  A    between atoms: C_1  and  C_2
REMARK    2  A    between atoms: C_2  and  N_3
REMARK    3  A    between atoms: N_3  and  C_4
REMARK    4  A    between atoms: C_9  and  O_10
REMARK    5  A    between atoms: C_17  and  C_18
REMARK    6  A    between atoms: C_19  and  O_20
REMARK                            x       y       z     vdW  Elec       q    Type
REMARK                         _______ _______ _______ _____ _____    ______ ____
ROOT
ATOM      1  C   UNL     1       6.184   4.695  14.038  0.00  0.00    +0.000 A 
ATOM      2  C   UNL     1       5.052   4.605  14.878  0.00  0.00    +0.000 A 
ATOM      3  C   UNL     1       5.079   4.900  16.250  0.00  0.00    +0.000 A 
ATOM      4  C   UNL     1       6.287   5.346  16.807  0.00  0.00    +0.000 A 
ATOM      5  C   UNL     1       7.433   5.441  16.000  0.00  0.00    +0.000 A 
ATOM      6  C   UNL     1       7.383   5.113  14.637  0.00  0.00    +0.000 A 
ATOM      7  C   UNL     1       6.421   5.690  18.275  0.00  0.00    +0.000 C 
ATOM      8  C   UNL     1       5.112   5.676  19.060  0.00  0.00    +0.000 C 
ATOM      9  C   UNL     1       4.206   4.531  18.597  0.00  0.00    +0.000 C 
ATOM     10  C   UNL     1       3.824   4.782  17.106  0.00  0.00    +0.000 C 
ATOM     11  C   UNL     1       2.779   3.755  16.592  0.00  0.00    +0.000 C 
ATOM     12  C   UNL     1       1.571   3.589  17.526  0.00  0.00    +0.000 C 
ATOM     13  C   UNL     1       2.011   3.277  18.959  0.00  0.00    +0.000 C 
ATOM     14  C   UNL     1       2.658   1.870  19.007  0.00  0.00    +0.000 C 
ATOM     15  C   UNL     1       0.890   3.400  20.011  0.00  0.00    +0.000 C 
ATOM     16  C   UNL     1       1.641   3.658  21.333  0.00  0.00    +0.000 C 
ATOM     17  C   UNL     1       3.041   4.170  20.939  0.00  0.00    +0.000 C 
ATOM     18  C   UNL     1       2.932   4.420  19.436  0.00  0.00    +0.000 C 
ENDROOT
BRANCH   1  19
ATOM     19  N   UNL     1       6.118   4.291  12.711  0.00  0.00    +0.000 N 
ATOM     20  H   UNL     1       6.297   5.008  12.012  0.00  0.00    +0.000 HD
BRANCH  19  22
ATOM     21  C   UNL     1       4.300   3.263  11.424  0.00  0.00    +0.000 C 
ATOM     22  C   UNL     1       5.496   3.033  12.324  0.00  0.00    +0.000 C 
ENDBRANCH  19  22
ENDBRANCH   1  19
BRANCH   6  23
ATOM     23  O   UNL     1       8.523   5.219  13.883  0.00  0.00    +0.000 OA
ATOM     24  H   UNL     1       8.721   4.343  13.502  0.00  0.00    +0.000 HD
ENDBRANCH   6  23
BRANCH  15  25
ATOM     25  O   UNL     1       0.038   2.274  20.083  0.00  0.00    +0.000 OA
ATOM     26  H   UNL     1      -0.773   2.464  19.584  0.00  0.00    +0.000 HD
ENDBRANCH  15  25
TORSDOF 4
ENDMDL
MODEL 7
REMARK VINA RESULT:      -7.1      2.164      3.548
REMARK  Name = 
REMARK  6 active torsions:
REMARK  status: ('A' for Active; 'I' for Inactive)
REMARK    1  A    between atoms: C_1  and  C_2
REMARK    2  A    between atoms: C_2  and  N_3
REMARK    3  A    between atoms: N_3  and  C_4
REMARK    4  A    between atoms: C_9  and  O_10
REMARK    5  A    between atoms: C_17  and  C_18
REMARK    6  A    between atoms: C_19  and  O_20
REMARK                            x       y       z     vdW  Elec       q    Type
REMARK                         _______ _______ _______ _____ _____    ______ ____
ROOT
ATOM      1  C   UNL     1       1.388  11.180  18.774  0.00  0.00    +0.000 A 
ATOM      2  C   UNL     1       1.844   9.927  18.306  0.00  0.00    +0.000 A 
ATOM      3  C   UNL     1       1.758   8.742  19.053  0.00  0.00    +0.000 A 
ATOM      4  C   UNL     1       1.150   8.798  20.316  0.00  0.00    +0.000 A 
ATOM      5  C   UNL     1       0.690  10.030  20.813  0.00  0.00    +0.000 A 
ATOM      6  C   UNL     1       0.814  11.203  20.055  0.00  0.00    +0.000 A 
ATOM      7  C   UNL     1       1.008   7.578  21.199  0.00  0.00    +0.000 C 
ATOM      8  C   UNL     1       1.422   6.261  20.546  0.00  0.00    +0.000 C 
ATOM      9  C   UNL     1       2.654   6.453  19.656  0.00  0.00    +0.000 C 
ATOM     10  C   UNL     1       2.272   7.421  18.494  0.00  0.00    +0.000 C 
ATOM     11  C   UNL     1       3.412   7.553  17.450  0.00  0.00    +0.000 C 
ATOM     12  C   UNL     1       3.973   6.203  16.978  0.00  0.00    +0.000 C 
ATOM     13  C   UNL     1       4.392   5.328  18.161  0.00  0.00    +0.000 C 
ATOM     14  C   UNL     1       5.617   5.964  18.866  0.00  0.00    +0.000 C 
ATOM     15  C   UNL     1       4.673   3.857  17.798  0.00  0.00    +0.000 C 
ATOM     16  C   UNL     1       4.459   3.094  19.122  0.00  0.00    +0.000 C 
ATOM     17  C   UNL     1       3.603   4.015  20.014  0.00  0.00    +0.000 C 
ATOM     18  C   UNL     1       3.162   5.134  19.072  0.00  0.00    +0.000 C 
ENDROOT
BRANCH   1  19
ATOM     19  N   UNL     1       1.594  12.334  18.031  0.00  0.00    +0.000 N 
ATOM     20  H   UNL     1       1.009  12.450  17.206  0.00  0.00    +0.000 HD
BRANCH  19  22
ATOM     21  C   UNL     1       2.434  14.575  18.568  0.00  0.00    +0.000 C 
ATOM     22  C   UNL     1       2.787  13.150  18.200  0.00  0.00    +0.000 C 
ENDBRANCH  19  22
ENDBRANCH   1  19
BRANCH   6  23
ATOM     23  O   UNL     1       0.352  12.385  20.575  0.00  0.00    +0.000 OA
ATOM     24  H   UNL     1       1.082  13.032  20.560  0.00  0.00    +0.000 HD
ENDBRANCH   6  23
BRANCH  15  25
ATOM     25  O   UNL     1       5.955   3.631  17.246  0.00  0.00    +0.000 OA
ATOM     26  H   UNL     1       5.852   3.162  16.401  0.00  0.00    +0.000 HD
ENDBRANCH  15  25
TORSDOF 4
ENDMDL
MODEL 8
REMARK VINA RESULT:      -7.0      2.499      3.931
REMARK  Name = 
REMARK  6 active torsions:
REMARK  status: ('A' for Active; 'I' for Inactive)
REMARK    1  A    between atoms: C_1  and  C_2
REMARK    2  A    between atoms: C_2  and  N_3
REMARK    3  A    between atoms: N_3  and  C_4
REMARK    4  A    between atoms: C_9  and  O_10
REMARK    5  A    between atoms: C_17  and  C_18
REMARK    6  A    between atoms: C_19  and  O_20
REMARK                            x       y       z     vdW  Elec       q    Type
REMARK                         _______ _______ _______ _____ _____    ______ ____
ROOT
ATOM      1  C   UNL     1       0.919   9.706  19.419  0.00  0.00    +0.000 A 
ATOM      2  C   UNL     1       1.728   8.958  18.535  0.00  0.00    +0.000 A 
ATOM      3  C   UNL     1       2.285   7.711  18.861  0.00  0.00    +0.000 A 
ATOM      4  C   UNL     1       1.988   7.161  20.117  0.00  0.00    +0.000 A 
ATOM      5  C   UNL     1       1.190   7.883  21.021  0.00  0.00    +0.000 A 
ATOM      6  C   UNL     1       0.670   9.139  20.679  0.00  0.00    +0.000 A 
ATOM      7  C   UNL     1       2.539   5.824  20.564  0.00  0.00    +0.000 C 
ATOM      8  C   UNL     1       3.296   5.050  19.488  0.00  0.00    +0.000 C 
ATOM      9  C   UNL     1       4.128   5.994  18.615  0.00  0.00    +0.000 C 
ATOM     10  C   UNL     1       3.153   6.953  17.864  0.00  0.00    +0.000 C 
ATOM     11  C   UNL     1       3.894   7.845  16.834  0.00  0.00    +0.000 C 
ATOM     12  C   UNL     1       4.835   7.061  15.907  0.00  0.00    +0.000 C 
ATOM     13  C   UNL     1       5.811   6.193  16.704  0.00  0.00    +0.000 C 
ATOM     14  C   UNL     1       6.798   7.103  17.479  0.00  0.00    +0.000 C 
ATOM     15  C   UNL     1       6.574   5.152  15.862  0.00  0.00    +0.000 C 
ATOM     16  C   UNL     1       6.970   4.061  16.878  0.00  0.00    +0.000 C 
ATOM     17  C   UNL     1       6.027   4.237  18.085  0.00  0.00    +0.000 C 
ATOM     18  C   UNL     1       4.986   5.242  17.596  0.00  0.00    +0.000 C 
ENDROOT
BRANCH   1  19
ATOM     19  N   UNL     1       0.482  10.979  19.078  0.00  0.00    +0.000 N 
ATOM     20  H   UNL     1      -0.234  11.031  18.357  0.00  0.00    +0.000 HD
BRANCH  19  22
ATOM     21  C   UNL     1       2.196  12.582  18.363  0.00  0.00    +0.000 C 
ATOM     22  C   UNL     1       1.229  12.170  19.453  0.00  0.00    +0.000 C 
ENDBRANCH  19  22
ENDBRANCH   1  19
BRANCH   6  23
ATOM     23  O   UNL     1      -0.104   9.810  21.590  0.00  0.00    +0.000 OA
ATOM     24  H   UNL     1      -0.547  10.549  21.130  0.00  0.00    +0.000 HD
ENDBRANCH   6  23
BRANCH  15  25
ATOM     25  O   UNL     1       7.689   5.674  15.167  0.00  0.00    +0.000 OA
ATOM     26  H   UNL     1       7.620   6.643  15.149  0.00  0.00    +0.000 HD
ENDBRANCH  15  25
TORSDOF 4
ENDMDL
MODEL 9
REMARK VINA RESULT:      -6.9      2.390      7.673
REMARK  Name = 
REMARK  6 active torsions:
REMARK  status: ('A' for Active; 'I' for Inactive)
REMARK    1  A    between atoms: C_1  and  C_2
REMARK    2  A    between atoms: C_2  and  N_3
REMARK    3  A    between atoms: N_3  and  C_4
REMARK    4  A    between atoms: C_9  and  O_10
REMARK    5  A    between atoms: C_17  and  C_18
REMARK    6  A    between atoms: C_19  and  O_20
REMARK                            x       y       z     vdW  Elec       q    Type
REMARK                         _______ _______ _______ _____ _____    ______ ____
ROOT
ATOM      1  C   UNL     1       3.732   5.174  17.703  0.00  0.00    +0.000 A 
ATOM      2  C   UNL     1       3.341   6.524  17.845  0.00  0.00    +0.000 A 
ATOM      3  C   UNL     1       2.574   7.000  18.920  0.00  0.00    +0.000 A 
ATOM      4  C   UNL     1       2.211   6.094  19.927  0.00  0.00    +0.000 A 
ATOM      5  C   UNL     1       2.580   4.742  19.813  0.00  0.00    +0.000 A 
ATOM      6  C   UNL     1       3.324   4.289  18.714  0.00  0.00    +0.000 A 
ATOM      7  C   UNL     1       1.385   6.507  21.126  0.00  0.00    +0.000 C 
ATOM      8  C   UNL     1       1.124   8.006  21.240  0.00  0.00    +0.000 C 
ATOM      9  C   UNL     1       0.879   8.627  19.861  0.00  0.00    +0.000 C 
ATOM     10  C   UNL     1       2.180   8.469  19.016  0.00  0.00    +0.000 C 
ATOM     11  C   UNL     1       2.082   9.208  17.655  0.00  0.00    +0.000 C 
ATOM     12  C   UNL     1       1.590  10.658  17.777  0.00  0.00    +0.000 C 
ATOM     13  C   UNL     1       0.277  10.739  18.558  0.00  0.00    +0.000 C 
ATOM     14  C   UNL     1      -0.857  10.078  17.733  0.00  0.00    +0.000 C 
ATOM     15  C   UNL     1      -0.122  12.164  18.990  0.00  0.00    +0.000 C 
ATOM     16  C   UNL     1      -1.044  11.945  20.207  0.00  0.00    +0.000 C 
ATOM     17  C   UNL     1      -0.740  10.526  20.726  0.00  0.00    +0.000 C 
ATOM     18  C   UNL     1       0.506  10.109  19.947  0.00  0.00    +0.000 C 
ENDROOT
BRANCH   1  19
ATOM     19  N   UNL     1       4.403   4.744  16.566  0.00  0.00    +0.000 N 
ATOM     20  H   UNL     1       3.826   4.358  15.822  0.00  0.00    +0.000 HD
BRANCH  19  22
ATOM     21  C   UNL     1       6.375   4.380  15.155  0.00  0.00    +0.000 C 
ATOM     22  C   UNL     1       5.841   4.524  16.564  0.00  0.00    +0.000 C 
ENDBRANCH  19  22
ENDBRANCH   1  19
BRANCH   6  23
ATOM     23  O   UNL     1       3.664   2.963  18.640  0.00  0.00    +0.000 OA
ATOM     24  H   UNL     1       3.007   2.450  19.148  0.00  0.00    +0.000 HD
ENDBRANCH   6  23
BRANCH  15  25
ATOM     25  O   UNL     1      -0.742  12.926  17.972  0.00  0.00    +0.000 OA
ATOM     26  H   UNL     1      -0.293  13.786  17.910  0.00  0.00    +0.000 HD
ENDBRANCH  15  25
TORSDOF 4
ENDMDL
