MODEL 1
REMARK VINA RESULT:      -7.8      0.000      0.000
REMARK  Name = 
REMARK  8 active torsions:
REMARK  status: ('A' for Active; 'I' for Inactive)
REMARK    1  A    between atoms: C_2  and  O_3
REMARK    2  A    between atoms: C_2  and  C_4
REMARK    3  A    between atoms: C_6  and  O_7
REMARK    4  A    between atoms: O_7  and  C_8
REMARK    5  A    between atoms: C_8  and  C_9
REMARK    6  A    between atoms: C_24  and  O_25
REMARK    7  A    between atoms: O_25  and  C_26
REMARK    8  A    between atoms: C_26  and  C_27
REMARK                            x       y       z     vdW  Elec       q    Type
REMARK                         _______ _______ _______ _____ _____    ______ ____
ROOT
ATOM      1  C   UNL     1      -3.281  10.420  15.496  0.00  0.00    +0.000 A 
ATOM      2  C   UNL     1      -4.303  11.223  16.019  0.00  0.00    +0.000 A 
ATOM      3  C   UNL     1      -4.212  11.739  17.321  0.00  0.00    +0.000 A 
ATOM      4  C   UNL     1      -3.062  11.493  18.098  0.00  0.00    +0.000 A 
ATOM      5  C   UNL     1      -2.063  10.673  17.574  0.00  0.00    +0.000 A 
ATOM      6  C   UNL     1      -2.159  10.143  16.277  0.00  0.00    +0.000 A 
ATOM      7  C   UNL     1      -0.872  10.347  18.374  0.00  0.00    +0.000 C 
ATOM      8  O   UNL     1       0.032   9.687  17.873  0.00  0.00    +0.000 OA
ATOM      9  C   UNL     1      -0.814  10.751  19.789  0.00  0.00    +0.000 A 
ATOM     10  C   UNL     1       0.264  10.295  20.561  0.00  0.00    +0.000 A 
ATOM     11  C   UNL     1       0.320  10.584  21.914  0.00  0.00    +0.000 A 
ATOM     12  C   UNL     1      -0.703  11.324  22.497  0.00  0.00    +0.000 A 
ATOM     13  C   UNL     1      -1.760  11.847  21.730  0.00  0.00    +0.000 A 
ATOM     14  C   UNL     1      -1.814  11.553  20.351  0.00  0.00    +0.000 A 
ATOM     15  C   UNL     1      -2.843  12.124  19.436  0.00  0.00    +0.000 C 
ATOM     16  O   UNL     1      -3.418  13.163  19.734  0.00  0.00    +0.000 OA
ENDROOT
BRANCH   1  18
ATOM     17  O   UNL     1      -2.426   9.750  13.390  0.00  0.00    +0.000 OA
ATOM     18  C   UNL     1      -3.402   9.947  14.094  0.00  0.00    +0.000 C 
BRANCH  18  19
ATOM     19  O   UNL     1      -4.668   9.799  13.658  0.00  0.00    +0.000 OA
ATOM     20  H   UNL     1      -5.320  10.453  13.970  0.00  0.00    +0.000 HD
ENDBRANCH  18  19
ENDBRANCH   1  18
BRANCH   3  21
ATOM     21  O   UNL     1      -5.189  12.521  17.863  0.00  0.00    +0.000 OA
BRANCH  21  22
ATOM     22  C   UNL     1      -6.546  12.076  17.792  0.00  0.00    +0.000 C 
BRANCH  22  23
ATOM     23  C   UNL     1      -7.018  11.702  19.183  0.00  0.00    +0.000 A 
ATOM     24  C   UNL     1      -7.194  10.359  19.558  0.00  0.00    +0.000 A 
ATOM     25  C   UNL     1      -7.646  10.028  20.835  0.00  0.00    +0.000 A 
ATOM     26  C   UNL     1      -7.914  11.032  21.761  0.00  0.00    +0.000 A 
ATOM     27  C   UNL     1      -7.720  12.368  21.413  0.00  0.00    +0.000 A 
ATOM     28  C   UNL     1      -7.268  12.702  20.134  0.00  0.00    +0.000 A 
ENDBRANCH  22  23
ENDBRANCH  21  22
ENDBRANCH   3  21
BRANCH  13  29
ATOM     29  O   UNL     1      -2.755  12.614  22.294  0.00  0.00    +0.000 OA
BRANCH  29  30
ATOM     30  C   UNL     1      -2.683  12.776  23.716  0.00  0.00    +0.000 C 
BRANCH  30  31
ATOM     31  C   UNL     1      -3.156  14.122  24.205  0.00  0.00    +0.000 A 
ATOM     32  C   UNL     1      -2.219  15.008  24.770  0.00  0.00    +0.000 A 
ATOM     33  C   UNL     1      -2.591  16.299  25.141  0.00  0.00    +0.000 A 
ATOM     34  C   UNL     1      -3.904  16.721  24.944  0.00  0.00    +0.000 A 
ATOM     35  C   UNL     1      -4.841  15.855  24.376  0.00  0.00    +0.000 A 
ATOM     36  C   UNL     1      -4.469  14.562  24.005  0.00  0.00    +0.000 A 
ENDBRANCH  30  31
ENDBRANCH  29  30
ENDBRANCH  13  29
TORSDOF 8
ENDMDL
MODEL 2
REMARK VINA RESULT:      -7.7      0.628      1.396
REMARK  Name = 
REMARK  8 active torsions:
REMARK  status: ('A' for Active; 'I' for Inactive)
REMARK    1  A    between atoms: C_2  and  O_3
REMARK    2  A    between atoms: C_2  and  C_4
REMARK    3  A    between atoms: C_6  and  O_7
REMARK    4  A    between atoms: O_7  and  C_8
REMARK    5  A    between atoms: C_8  and  C_9
REMARK    6  A    between atoms: C_24  and  O_25
REMARK    7  A    between atoms: O_25  and  C_26
REMARK    8  A    between atoms: C_26  and  C_27
REMARK                            x       y       z     vdW  Elec       q    Type
REMARK                         _______ _______ _______ _____ _____    ______ ____
ROOT
ATOM      1  C   UNL     1      -3.390  10.376  15.405  0.00  0.00    +0.000 A 
ATOM      2  C   UNL     1      -4.415  11.092  16.038  0.00  0.00    +0.000 A 
ATOM      3  C   UNL     1      -4.267  11.538  17.360  0.00  0.00    +0.000 A 
ATOM      4  C   UNL     1      -3.057  11.313  18.048  0.00  0.00    +0.000 A 
ATOM      5  C   UNL     1      -2.053  10.580  17.415  0.00  0.00    +0.000 A 
ATOM      6  C   UNL     1      -2.207  10.119  16.097  0.00  0.00    +0.000 A 
ATOM      7  C   UNL     1      -0.798  10.275  18.118  0.00  0.00    +0.000 C 
ATOM      8  O   UNL     1       0.104   9.695  17.523  0.00  0.00    +0.000 OA
ATOM      9  C   UNL     1      -0.668  10.602  19.548  0.00  0.00    +0.000 A 
ATOM     10  C   UNL     1       0.480  10.163  20.223  0.00  0.00    +0.000 A 
ATOM     11  C   UNL     1       0.609  10.378  21.584  0.00  0.00    +0.000 A 
ATOM     12  C   UNL     1      -0.410  11.026  22.274  0.00  0.00    +0.000 A 
ATOM     13  C   UNL     1      -1.540  11.533  21.607  0.00  0.00    +0.000 A 
ATOM     14  C   UNL     1      -1.670  11.314  20.218  0.00  0.00    +0.000 A 
ATOM     15  C   UNL     1      -2.784  11.879  19.405  0.00  0.00    +0.000 C 
ATOM     16  O   UNL     1      -3.391  12.866  19.799  0.00  0.00    +0.000 OA
ENDROOT
BRANCH   1  18
ATOM     17  O   UNL     1      -4.663   9.641  13.546  0.00  0.00    +0.000 OA
ATOM     18  C   UNL     1      -3.578   9.978  13.988  0.00  0.00    +0.000 C 
BRANCH  18  19
ATOM     19  O   UNL     1      -2.449   9.977  13.250  0.00  0.00    +0.000 OA
ATOM     20  H   UNL     1      -1.626   9.722  13.706  0.00  0.00    +0.000 HD
ENDBRANCH  18  19
ENDBRANCH   1  18
BRANCH   3  21
ATOM     21  O   UNL     1      -5.245  12.233  18.007  0.00  0.00    +0.000 OA
BRANCH  21  22
ATOM     22  C   UNL     1      -6.456  11.557  18.354  0.00  0.00    +0.000 C 
BRANCH  22  23
ATOM     23  C   UNL     1      -6.908  12.020  19.724  0.00  0.00    +0.000 A 
ATOM     24  C   UNL     1      -6.798  13.366  20.113  0.00  0.00    +0.000 A 
ATOM     25  C   UNL     1      -7.200  13.777  21.384  0.00  0.00    +0.000 A 
ATOM     26  C   UNL     1      -7.733  12.854  22.278  0.00  0.00    +0.000 A 
ATOM     27  C   UNL     1      -7.874  11.520  21.899  0.00  0.00    +0.000 A 
ATOM     28  C   UNL     1      -7.471  11.106  20.627  0.00  0.00    +0.000 A 
ENDBRANCH  22  23
ENDBRANCH  21  22
ENDBRANCH   3  21
BRANCH  13  29
ATOM     29  O   UNL     1      -2.535  12.211  22.276  0.00  0.00    +0.000 OA
BRANCH  29  30
ATOM     30  C   UNL     1      -2.129  12.884  23.475  0.00  0.00    +0.000 C 
BRANCH  30  31
ATOM     31  C   UNL     1      -2.894  14.152  23.755  0.00  0.00    +0.000 A 
ATOM     32  C   UNL     1      -3.900  14.553  22.856  0.00  0.00    +0.000 A 
ATOM     33  C   UNL     1      -4.701  15.661  23.126  0.00  0.00    +0.000 A 
ATOM     34  C   UNL     1      -4.509  16.378  24.306  0.00  0.00    +0.000 A 
ATOM     35  C   UNL     1      -3.520  15.985  25.211  0.00  0.00    +0.000 A 
ATOM     36  C   UNL     1      -2.718  14.876  24.940  0.00  0.00    +0.000 A 
ENDBRANCH  30  31
ENDBRANCH  29  30
ENDBRANCH  13  29
TORSDOF 8
ENDMDL
MODEL 3
REMARK VINA RESULT:      -7.6      7.375     11.352
REMARK  Name = 
REMARK  8 active torsions:
REMARK  status: ('A' for Active; 'I' for Inactive)
REMARK    1  A    between atoms: C_2  and  O_3
REMARK    2  A    between atoms: C_2  and  C_4
REMARK    3  A    between atoms: C_6  and  O_7
REMARK    4  A    between atoms: O_7  and  C_8
REMARK    5  A    between atoms: C_8  and  C_9
REMARK    6  A    between atoms: C_24  and  O_25
REMARK    7  A    between atoms: O_25  and  C_26
REMARK    8  A    between atoms: C_26  and  C_27
REMARK                            x       y       z     vdW  Elec       q    Type
REMARK                         _______ _______ _______ _____ _____    ______ ____
ROOT
ATOM      1  C   UNL     1       6.106   4.680  14.907  0.00  0.00    +0.000 A 
ATOM      2  C   UNL     1       6.559   5.750  15.689  0.00  0.00    +0.000 A 
ATOM      3  C   UNL     1       5.948   6.047  16.917  0.00  0.00    +0.000 A 
ATOM      4  C   UNL     1       4.902   5.234  17.399  0.00  0.00    +0.000 A 
ATOM      5  C   UNL     1       4.446   4.186  16.600  0.00  0.00    +0.000 A 
ATOM      6  C   UNL     1       5.046   3.897  15.362  0.00  0.00    +0.000 A 
ATOM      7  C   UNL     1       3.320   3.349  17.040  0.00  0.00    +0.000 C 
ATOM      8  O   UNL     1       2.979   2.386  16.362  0.00  0.00    +0.000 OA
ATOM      9  C   UNL     1       2.567   3.722  18.250  0.00  0.00    +0.000 A 
ATOM     10  C   UNL     1       1.409   2.992  18.557  0.00  0.00    +0.000 A 
ATOM     11  C   UNL     1       0.627   3.357  19.640  0.00  0.00    +0.000 A 
ATOM     12  C   UNL     1       0.996   4.453  20.412  0.00  0.00    +0.000 A 
ATOM     13  C   UNL     1       2.187   5.158  20.163  0.00  0.00    +0.000 A 
ATOM     14  C   UNL     1       2.985   4.785  19.060  0.00  0.00    +0.000 A 
ATOM     15  C   UNL     1       4.302   5.413  18.757  0.00  0.00    +0.000 C 
ATOM     16  O   UNL     1       4.933   5.970  19.646  0.00  0.00    +0.000 OA
ENDROOT
BRANCH   1  18
ATOM     17  O   UNL     1       7.679   5.115  13.188  0.00  0.00    +0.000 OA
ATOM     18  C   UNL     1       6.825   4.375  13.643  0.00  0.00    +0.000 C 
BRANCH  18  19
ATOM     19  O   UNL     1       6.424   3.245  13.028  0.00  0.00    +0.000 OA
ATOM     20  H   UNL     1       6.285   2.462  13.592  0.00  0.00    +0.000 HD
ENDBRANCH  18  19
ENDBRANCH   1  18
BRANCH   3  21
ATOM     21  O   UNL     1       6.361   7.083  17.703  0.00  0.00    +0.000 OA
BRANCH  21  22
ATOM     22  C   UNL     1       7.736   7.150  18.087  0.00  0.00    +0.000 C 
BRANCH  22  23
ATOM     23  C   UNL     1       8.143   8.603  18.224  0.00  0.00    +0.000 A 
ATOM     24  C   UNL     1       7.600   9.595  17.389  0.00  0.00    +0.000 A 
ATOM     25  C   UNL     1       7.995  10.927  17.513  0.00  0.00    +0.000 A 
ATOM     26  C   UNL     1       8.926  11.290  18.482  0.00  0.00    +0.000 A 
ATOM     27  C   UNL     1       9.455  10.323  19.335  0.00  0.00    +0.000 A 
ATOM     28  C   UNL     1       9.061   8.988  19.212  0.00  0.00    +0.000 A 
ENDBRANCH  22  23
ENDBRANCH  21  22
ENDBRANCH   3  21
BRANCH  13  29
ATOM     29  O   UNL     1       2.580   6.220  20.947  0.00  0.00    +0.000 OA
BRANCH  29  30
ATOM     30  C   UNL     1       1.569   7.201  21.214  0.00  0.00    +0.000 C 
BRANCH  30  31
ATOM     31  C   UNL     1       1.498   8.304  20.187  0.00  0.00    +0.000 A 
ATOM     32  C   UNL     1       2.146   8.123  18.951  0.00  0.00    +0.000 A 
ATOM     33  C   UNL     1       2.022   9.070  17.934  0.00  0.00    +0.000 A 
ATOM     34  C   UNL     1       1.242  10.205  18.143  0.00  0.00    +0.000 A 
ATOM     35  C   UNL     1       0.587  10.391  19.363  0.00  0.00    +0.000 A 
ATOM     36  C   UNL     1       0.711   9.444  20.380  0.00  0.00    +0.000 A 
ENDBRANCH  30  31
ENDBRANCH  29  30
ENDBRANCH  13  29
TORSDOF 8
ENDMDL
MODEL 4
REMARK VINA RESULT:      -7.4      6.110     10.102
REMARK  Name = 
REMARK  8 active torsions:
REMARK  status: ('A' for Active; 'I' for Inactive)
REMARK    1  A    between atoms: C_2  and  O_3
REMARK    2  A    between atoms: C_2  and  C_4
REMARK    3  A    between atoms: C_6  and  O_7
REMARK    4  A    between atoms: O_7  and  C_8
REMARK    5  A    between atoms: C_8  and  C_9
REMARK    6  A    between atoms: C_24  and  O_25
REMARK    7  A    between atoms: O_25  and  C_26
REMARK    8  A    between atoms: C_26  and  C_27
REMARK                            x       y       z     vdW  Elec       q    Type
REMARK                         _______ _______ _______ _____ _____    ______ ____
ROOT
ATOM      1  C   UNL     1       3.763   3.305  18.769  0.00  0.00    +0.000 A 
ATOM      2  C   UNL     1       4.203   3.989  17.629  0.00  0.00    +0.000 A 
ATOM      3  C   UNL     1       3.891   5.345  17.443  0.00  0.00    +0.000 A 
ATOM      4  C   UNL     1       3.171   6.045  18.432  0.00  0.00    +0.000 A 
ATOM      5  C   UNL     1       2.719   5.345  19.552  0.00  0.00    +0.000 A 
ATOM      6  C   UNL     1       3.018   3.984  19.732  0.00  0.00    +0.000 A 
ATOM      7  C   UNL     1       1.918   6.025  20.581  0.00  0.00    +0.000 C 
ATOM      8  O   UNL     1       1.591   5.417  21.594  0.00  0.00    +0.000 OA
ATOM      9  C   UNL     1       1.452   7.403  20.346  0.00  0.00    +0.000 A 
ATOM     10  C   UNL     1       0.566   7.967  21.276  0.00  0.00    +0.000 A 
ATOM     11  C   UNL     1       0.041   9.228  21.056  0.00  0.00    +0.000 A 
ATOM     12  C   UNL     1       0.395   9.926  19.906  0.00  0.00    +0.000 A 
ATOM     13  C   UNL     1       1.332   9.408  18.993  0.00  0.00    +0.000 A 
ATOM     14  C   UNL     1       1.868   8.122  19.219  0.00  0.00    +0.000 A 
ATOM     15  C   UNL     1       2.924   7.518  18.360  0.00  0.00    +0.000 C 
ATOM     16  O   UNL     1       3.654   8.236  17.690  0.00  0.00    +0.000 OA
ENDROOT
BRANCH   1  18
ATOM     17  O   UNL     1       3.663   0.983  18.301  0.00  0.00    +0.000 OA
ATOM     18  C   UNL     1       4.169   1.887  18.944  0.00  0.00    +0.000 C 
BRANCH  18  19
ATOM     19  O   UNL     1       5.104   1.684  19.893  0.00  0.00    +0.000 OA
ATOM     20  H   UNL     1       5.331   2.445  20.457  0.00  0.00    +0.000 HD
ENDBRANCH  18  19
ENDBRANCH   1  18
BRANCH   3  21
ATOM     21  O   UNL     1       4.300   6.040  16.344  0.00  0.00    +0.000 OA
BRANCH  21  22
ATOM     22  C   UNL     1       5.639   5.862  15.875  0.00  0.00    +0.000 C 
BRANCH  22  23
ATOM     23  C   UNL     1       6.605   6.374  16.924  0.00  0.00    +0.000 A 
ATOM     24  C   UNL     1       7.121   5.525  17.918  0.00  0.00    +0.000 A 
ATOM     25  C   UNL     1       7.995   6.012  18.890  0.00  0.00    +0.000 A 
ATOM     26  C   UNL     1       8.379   7.350  18.873  0.00  0.00    +0.000 A 
ATOM     27  C   UNL     1       7.896   8.199  17.879  0.00  0.00    +0.000 A 
ATOM     28  C   UNL     1       7.020   7.714  16.905  0.00  0.00    +0.000 A 
ENDBRANCH  22  23
ENDBRANCH  21  22
ENDBRANCH   3  21
BRANCH  13  29
ATOM     29  O   UNL     1       1.717  10.110  17.873  0.00  0.00    +0.000 OA
BRANCH  29  30
ATOM     30  C   UNL     1       2.453  11.315  18.117  0.00  0.00    +0.000 C 
BRANCH  30  31
ATOM     31  C   UNL     1       1.636  12.415  18.747  0.00  0.00    +0.000 A 
ATOM     32  C   UNL     1       2.117  13.036  19.915  0.00  0.00    +0.000 A 
ATOM     33  C   UNL     1       1.449  14.124  20.473  0.00  0.00    +0.000 A 
ATOM     34  C   UNL     1       0.294  14.609  19.864  0.00  0.00    +0.000 A 
ATOM     35  C   UNL     1      -0.189  14.008  18.699  0.00  0.00    +0.000 A 
ATOM     36  C   UNL     1       0.479  12.918  18.141  0.00  0.00    +0.000 A 
ENDBRANCH  30  31
ENDBRANCH  29  30
ENDBRANCH  13  29
TORSDOF 8
ENDMDL
MODEL 5
REMARK VINA RESULT:      -7.3      6.017     10.521
REMARK  Name = 
REMARK  8 active torsions:
REMARK  status: ('A' for Active; 'I' for Inactive)
REMARK    1  A    between atoms: C_2  and  O_3
REMARK    2  A    between atoms: C_2  and  C_4
REMARK    3  A    between atoms: C_6  and  O_7
REMARK    4  A    between atoms: O_7  and  C_8
REMARK    5  A    between atoms: C_8  and  C_9
REMARK    6  A    between atoms: C_24  and  O_25
REMARK    7  A    between atoms: O_25  and  C_26
REMARK    8  A    between atoms: C_26  and  C_27
REMARK                            x       y       z     vdW  Elec       q    Type
REMARK                         _______ _______ _______ _____ _____    ______ ____
ROOT
ATOM      1  C   UNL     1       0.924   8.265  21.529  0.00  0.00    +0.000 A 
ATOM      2  C   UNL     1       1.462   9.083  20.527  0.00  0.00    +0.000 A 
ATOM      3  C   UNL     1       2.117   8.522  19.420  0.00  0.00    +0.000 A 
ATOM      4  C   UNL     1       2.193   7.122  19.281  0.00  0.00    +0.000 A 
ATOM      5  C   UNL     1       1.673   6.319  20.296  0.00  0.00    +0.000 A 
ATOM      6  C   UNL     1       1.032   6.879  21.414  0.00  0.00    +0.000 A 
ATOM      7  C   UNL     1       1.782   4.854  20.217  0.00  0.00    +0.000 C 
ATOM      8  O   UNL     1       1.255   4.160  21.080  0.00  0.00    +0.000 OA
ATOM      9  C   UNL     1       2.586   4.242  19.146  0.00  0.00    +0.000 A 
ATOM     10  C   UNL     1       2.793   2.856  19.186  0.00  0.00    +0.000 A 
ATOM     11  C   UNL     1       3.607   2.248  18.246  0.00  0.00    +0.000 A 
ATOM     12  C   UNL     1       4.219   3.024  17.267  0.00  0.00    +0.000 A 
ATOM     13  C   UNL     1       3.973   4.406  17.167  0.00  0.00    +0.000 A 
ATOM     14  C   UNL     1       3.142   5.024  18.126  0.00  0.00    +0.000 A 
ATOM     15  C   UNL     1       2.754   6.461  18.062  0.00  0.00    +0.000 C 
ATOM     16  O   UNL     1       2.790   7.058  16.994  0.00  0.00    +0.000 OA
ENDROOT
BRANCH   1  18
ATOM     17  O   UNL     1       0.717   9.732  23.378  0.00  0.00    +0.000 OA
ATOM     18  C   UNL     1       0.193   8.908  22.650  0.00  0.00    +0.000 C 
BRANCH  18  19
ATOM     19  O   UNL     1      -1.072   8.474  22.817  0.00  0.00    +0.000 OA
ATOM     20  H   UNL     1      -1.752   9.152  22.984  0.00  0.00    +0.000 HD
ENDBRANCH  18  19
ENDBRANCH   1  18
BRANCH   3  21
ATOM     21  O   UNL     1       2.655   9.289  18.429  0.00  0.00    +0.000 OA
BRANCH  21  22
ATOM     22  C   UNL     1       1.780  10.060  17.602  0.00  0.00    +0.000 C 
BRANCH  22  23
ATOM     23  C   UNL     1       1.626  11.445  18.199  0.00  0.00    +0.000 A 
ATOM     24  C   UNL     1       0.462  11.816  18.893  0.00  0.00    +0.000 A 
ATOM     25  C   UNL     1       0.325  13.099  19.422  0.00  0.00    +0.000 A 
ATOM     26  C   UNL     1       1.355  14.025  19.280  0.00  0.00    +0.000 A 
ATOM     27  C   UNL     1       2.527  13.664  18.617  0.00  0.00    +0.000 A 
ATOM     28  C   UNL     1       2.666  12.380  18.085  0.00  0.00    +0.000 A 
ENDBRANCH  22  23
ENDBRANCH  21  22
ENDBRANCH   3  21
BRANCH  13  29
ATOM     29  O   UNL     1       4.544   5.174  16.177  0.00  0.00    +0.000 OA
BRANCH  29  30
ATOM     30  C   UNL     1       5.948   4.974  15.968  0.00  0.00    +0.000 C 
BRANCH  30  31
ATOM     31  C   UNL     1       6.824   5.661  16.986  0.00  0.00    +0.000 A 
ATOM     32  C   UNL     1       7.073   7.039  16.848  0.00  0.00    +0.000 A 
ATOM     33  C   UNL     1       7.791   7.736  17.820  0.00  0.00    +0.000 A 
ATOM     34  C   UNL     1       8.262   7.061  18.944  0.00  0.00    +0.000 A 
ATOM     35  C   UNL     1       8.013   5.695  19.096  0.00  0.00    +0.000 A 
ATOM     36  C   UNL     1       7.295   4.997  18.124  0.00  0.00    +0.000 A 
ENDBRANCH  30  31
ENDBRANCH  29  30
ENDBRANCH  13  29
TORSDOF 8
ENDMDL
MODEL 6
REMARK VINA RESULT:      -7.3      2.959      7.561
REMARK  Name = 
REMARK  8 active torsions:
REMARK  status: ('A' for Active; 'I' for Inactive)
REMARK    1  A    between atoms: C_2  and  O_3
REMARK    2  A    between atoms: C_2  and  C_4
REMARK    3  A    between atoms: C_6  and  O_7
REMARK    4  A    between atoms: O_7  and  C_8
REMARK    5  A    between atoms: C_8  and  C_9
REMARK    6  A    between atoms: C_24  and  O_25
REMARK    7  A    between atoms: O_25  and  C_26
REMARK    8  A    between atoms: C_26  and  C_27
REMARK                            x       y       z     vdW  Elec       q    Type
REMARK                         _______ _______ _______ _____ _____    ______ ____
ROOT
ATOM      1  C   UNL     1      -0.975  11.071  22.433  0.00  0.00    +0.000 A 
ATOM      2  C   UNL     1      -0.938  11.684  21.174  0.00  0.00    +0.000 A 
ATOM      3  C   UNL     1      -1.965  12.551  20.769  0.00  0.00    +0.000 A 
ATOM      4  C   UNL     1      -3.020  12.854  21.653  0.00  0.00    +0.000 A 
ATOM      5  C   UNL     1      -3.057  12.219  22.895  0.00  0.00    +0.000 A 
ATOM      6  C   UNL     1      -2.038  11.338  23.295  0.00  0.00    +0.000 A 
ATOM      7  C   UNL     1      -4.170  12.465  23.824  0.00  0.00    +0.000 C 
ATOM      8  O   UNL     1      -4.151  11.959  24.940  0.00  0.00    +0.000 OA
ATOM      9  C   UNL     1      -5.331  13.252  23.375  0.00  0.00    +0.000 A 
ATOM     10  C   UNL     1      -6.439  13.341  24.230  0.00  0.00    +0.000 A 
ATOM     11  C   UNL     1      -7.582  14.004  23.818  0.00  0.00    +0.000 A 
ATOM     12  C   UNL     1      -7.622  14.575  22.550  0.00  0.00    +0.000 A 
ATOM     13  C   UNL     1      -6.501  14.556  21.702  0.00  0.00    +0.000 A 
ATOM     14  C   UNL     1      -5.335  13.881  22.123  0.00  0.00    +0.000 A 
ATOM     15  C   UNL     1      -4.069  13.871  21.337  0.00  0.00    +0.000 C 
ATOM     16  O   UNL     1      -3.848  14.757  20.522  0.00  0.00    +0.000 OA
ENDROOT
BRANCH   1  18
ATOM     17  O   UNL     1       0.193   9.623  23.902  0.00  0.00    +0.000 OA
ATOM     18  C   UNL     1       0.165  10.207  22.832  0.00  0.00    +0.000 C 
BRANCH  18  19
ATOM     19  O   UNL     1       1.174  10.161  21.940  0.00  0.00    +0.000 OA
ATOM     20  H   UNL     1       2.012  10.585  22.201  0.00  0.00    +0.000 HD
ENDBRANCH  18  19
ENDBRANCH   1  18
BRANCH   3  21
ATOM     21  O   UNL     1      -1.962  13.161  19.550  0.00  0.00    +0.000 OA
BRANCH  21  22
ATOM     22  C   UNL     1      -0.959  12.795  18.598  0.00  0.00    +0.000 C 
BRANCH  22  23
ATOM     23  C   UNL     1       0.138  13.840  18.609  0.00  0.00    +0.000 A 
ATOM     24  C   UNL     1      -0.150  15.200  18.814  0.00  0.00    +0.000 A 
ATOM     25  C   UNL     1       0.867  16.155  18.803  0.00  0.00    +0.000 A 
ATOM     26  C   UNL     1       2.188  15.764  18.603  0.00  0.00    +0.000 A 
ATOM     27  C   UNL     1       2.493  14.416  18.424  0.00  0.00    +0.000 A 
ATOM     28  C   UNL     1       1.477  13.458  18.433  0.00  0.00    +0.000 A 
ENDBRANCH  22  23
ENDBRANCH  21  22
ENDBRANCH   3  21
BRANCH  13  29
ATOM     29  O   UNL     1      -6.520  15.153  20.461  0.00  0.00    +0.000 OA
BRANCH  29  30
ATOM     30  C   UNL     1      -7.302  14.485  19.463  0.00  0.00    +0.000 C 
BRANCH  30  31
ATOM     31  C   UNL     1      -6.833  13.086  19.150  0.00  0.00    +0.000 A 
ATOM     32  C   UNL     1      -7.459  12.000  19.790  0.00  0.00    +0.000 A 
ATOM     33  C   UNL     1      -7.129  10.687  19.457  0.00  0.00    +0.000 A 
ATOM     34  C   UNL     1      -6.172  10.447  18.473  0.00  0.00    +0.000 A 
ATOM     35  C   UNL     1      -5.550  11.516  17.824  0.00  0.00    +0.000 A 
ATOM     36  C   UNL     1      -5.880  12.830  18.158  0.00  0.00    +0.000 A 
ENDBRANCH  30  31
ENDBRANCH  29  30
ENDBRANCH  13  29
TORSDOF 8
ENDMDL
MODEL 7
REMARK VINA RESULT:      -7.2      5.076      9.848
REMARK  Name = 
REMARK  8 active torsions:
REMARK  status: ('A' for Active; 'I' for Inactive)
REMARK    1  A    between atoms: C_2  and  O_3
REMARK    2  A    between atoms: C_2  and  C_4
REMARK    3  A    between atoms: C_6  and  O_7
REMARK    4  A    between atoms: O_7  and  C_8
REMARK    5  A    between atoms: C_8  and  C_9
REMARK    6  A    between atoms: C_24  and  O_25
REMARK    7  A    between atoms: O_25  and  C_26
REMARK    8  A    between atoms: C_26  and  C_27
REMARK                            x       y       z     vdW  Elec       q    Type
REMARK                         _______ _______ _______ _____ _____    ______ ____
ROOT
ATOM      1  C   UNL     1      -0.765  12.261  21.831  0.00  0.00    +0.000 A 
ATOM      2  C   UNL     1      -0.029  12.819  20.778  0.00  0.00    +0.000 A 
ATOM      3  C   UNL     1       0.756  12.007  19.945  0.00  0.00    +0.000 A 
ATOM      4  C   UNL     1       0.768  10.610  20.130  0.00  0.00    +0.000 A 
ATOM      5  C   UNL     1       0.049  10.070  21.196  0.00  0.00    +0.000 A 
ATOM      6  C   UNL     1      -0.724  10.883  22.042  0.00  0.00    +0.000 A 
ATOM      7  C   UNL     1       0.080   8.623  21.459  0.00  0.00    +0.000 C 
ATOM      8  O   UNL     1      -0.616   8.154  22.353  0.00  0.00    +0.000 OA
ATOM      9  C   UNL     1       1.003   7.766  20.696  0.00  0.00    +0.000 A 
ATOM     10  C   UNL     1       1.118   6.420  21.073  0.00  0.00    +0.000 A 
ATOM     11  C   UNL     1       2.031   5.596  20.437  0.00  0.00    +0.000 A 
ATOM     12  C   UNL     1       2.833   6.117  19.427  0.00  0.00    +0.000 A 
ATOM     13  C   UNL     1       2.690   7.445  18.987  0.00  0.00    +0.000 A 
ATOM     14  C   UNL     1       1.758   8.284  19.636  0.00  0.00    +0.000 A 
ATOM     15  C   UNL     1       1.472   9.679  19.196  0.00  0.00    +0.000 C 
ATOM     16  O   UNL     1       1.710  10.018  18.044  0.00  0.00    +0.000 OA
ENDROOT
BRANCH   1  18
ATOM     17  O   UNL     1      -1.196  13.756  23.619  0.00  0.00    +0.000 OA
ATOM     18  C   UNL     1      -1.623  13.158  22.647  0.00  0.00    +0.000 C 
BRANCH  18  19
ATOM     19  O   UNL     1      -2.909  13.218  22.250  0.00  0.00    +0.000 OA
ATOM     20  H   UNL     1      -3.117  12.848  21.372  0.00  0.00    +0.000 HD
ENDBRANCH  18  19
ENDBRANCH   1  18
BRANCH   3  21
ATOM     21  O   UNL     1       1.488  12.517  18.913  0.00  0.00    +0.000 OA
BRANCH  21  22
ATOM     22  C   UNL     1       2.666  13.271  19.210  0.00  0.00    +0.000 C 
BRANCH  22  23
ATOM     23  C   UNL     1       2.520  14.666  18.639  0.00  0.00    +0.000 A 
ATOM     24  C   UNL     1       1.412  15.471  18.953  0.00  0.00    +0.000 A 
ATOM     25  C   UNL     1       1.279  16.748  18.406  0.00  0.00    +0.000 A 
ATOM     26  C   UNL     1       2.260  17.245  17.551  0.00  0.00    +0.000 A 
ATOM     27  C   UNL     1       3.378  16.469  17.251  0.00  0.00    +0.000 A 
ATOM     28  C   UNL     1       3.512  15.190  17.796  0.00  0.00    +0.000 A 
ENDBRANCH  22  23
ENDBRANCH  21  22
ENDBRANCH   3  21
BRANCH  13  29
ATOM     29  O   UNL     1       3.454   7.957  17.962  0.00  0.00    +0.000 OA
BRANCH  29  30
ATOM     30  C   UNL     1       3.607   7.106  16.818  0.00  0.00    +0.000 C 
BRANCH  30  31
ATOM     31  C   UNL     1       4.895   6.321  16.806  0.00  0.00    +0.000 A 
ATOM     32  C   UNL     1       6.063   6.923  17.310  0.00  0.00    +0.000 A 
ATOM     33  C   UNL     1       7.251   6.201  17.412  0.00  0.00    +0.000 A 
ATOM     34  C   UNL     1       7.282   4.865  17.018  0.00  0.00    +0.000 A 
ATOM     35  C   UNL     1       6.126   4.254  16.525  0.00  0.00    +0.000 A 
ATOM     36  C   UNL     1       4.937   4.976  16.421  0.00  0.00    +0.000 A 
ENDBRANCH  30  31
ENDBRANCH  29  30
ENDBRANCH  13  29
TORSDOF 8
ENDMDL
MODEL 8
REMARK VINA RESULT:      -7.2      2.529      5.854
REMARK  Name = 
REMARK  8 active torsions:
REMARK  status: ('A' for Active; 'I' for Inactive)
REMARK    1  A    between atoms: C_2  and  O_3
REMARK    2  A    between atoms: C_2  and  C_4
REMARK    3  A    between atoms: C_6  and  O_7
REMARK    4  A    between atoms: O_7  and  C_8
REMARK    5  A    between atoms: C_8  and  C_9
REMARK    6  A    between atoms: C_24  and  O_25
REMARK    7  A    between atoms: O_25  and  C_26
REMARK    8  A    between atoms: C_26  and  C_27
REMARK                            x       y       z     vdW  Elec       q    Type
REMARK                         _______ _______ _______ _____ _____    ______ ____
ROOT
ATOM      1  C   UNL     1      -2.928  11.149  17.220  0.00  0.00    +0.000 A 
ATOM      2  C   UNL     1      -1.619  11.083  17.714  0.00  0.00    +0.000 A 
ATOM      3  C   UNL     1      -1.321  11.523  19.013  0.00  0.00    +0.000 A 
ATOM      4  C   UNL     1      -2.353  11.989  19.853  0.00  0.00    +0.000 A 
ATOM      5  C   UNL     1      -3.648  12.070  19.341  0.00  0.00    +0.000 A 
ATOM      6  C   UNL     1      -3.945  11.646  18.035  0.00  0.00    +0.000 A 
ATOM      7  C   UNL     1      -4.743  12.603  20.167  0.00  0.00    +0.000 C 
ATOM      8  O   UNL     1      -5.888  12.599  19.730  0.00  0.00    +0.000 OA
ATOM      9  C   UNL     1      -4.440  13.204  21.476  0.00  0.00    +0.000 A 
ATOM     10  C   UNL     1      -5.482  13.837  22.170  0.00  0.00    +0.000 A 
ATOM     11  C   UNL     1      -5.227  14.484  23.366  0.00  0.00    +0.000 A 
ATOM     12  C   UNL     1      -3.930  14.504  23.870  0.00  0.00    +0.000 A 
ATOM     13  C   UNL     1      -2.882  13.821  23.226  0.00  0.00    +0.000 A 
ATOM     14  C   UNL     1      -3.144  13.161  22.006  0.00  0.00    +0.000 A 
ATOM     15  C   UNL     1      -2.126  12.342  21.289  0.00  0.00    +0.000 C 
ATOM     16  O   UNL     1      -1.176  11.872  21.901  0.00  0.00    +0.000 OA
ENDROOT
BRANCH   1  18
ATOM     17  O   UNL     1      -3.602  11.328  14.955  0.00  0.00    +0.000 OA
ATOM     18  C   UNL     1      -3.198  10.618  15.860  0.00  0.00    +0.000 C 
BRANCH  18  19
ATOM     19  O   UNL     1      -3.002   9.292  15.726  0.00  0.00    +0.000 OA
ATOM     20  H   UNL     1      -2.147   9.009  15.353  0.00  0.00    +0.000 HD
ENDBRANCH  18  19
ENDBRANCH   1  18
BRANCH   3  21
ATOM     21  O   UNL     1      -0.058  11.477  19.525  0.00  0.00    +0.000 OA
BRANCH  21  22
ATOM     22  C   UNL     1       1.026  11.141  18.654  0.00  0.00    +0.000 C 
BRANCH  22  23
ATOM     23  C   UNL     1       1.464   9.718  18.934  0.00  0.00    +0.000 A 
ATOM     24  C   UNL     1       1.214   9.108  20.174  0.00  0.00    +0.000 A 
ATOM     25  C   UNL     1       1.638   7.803  20.427  0.00  0.00    +0.000 A 
ATOM     26  C   UNL     1       2.304   7.084  19.438  0.00  0.00    +0.000 A 
ATOM     27  C   UNL     1       2.537   7.666  18.193  0.00  0.00    +0.000 A 
ATOM     28  C   UNL     1       2.114   8.973  17.939  0.00  0.00    +0.000 A 
ENDBRANCH  22  23
ENDBRANCH  21  22
ENDBRANCH   3  21
BRANCH  13  29
ATOM     29  O   UNL     1      -1.604  13.804  23.739  0.00  0.00    +0.000 OA
BRANCH  29  30
ATOM     30  C   UNL     1      -0.855  15.016  23.577  0.00  0.00    +0.000 C 
BRANCH  30  31
ATOM     31  C   UNL     1      -0.302  15.215  22.189  0.00  0.00    +0.000 A 
ATOM     32  C   UNL     1       0.870  14.528  21.819  0.00  0.00    +0.000 A 
ATOM     33  C   UNL     1       1.359  14.601  20.515  0.00  0.00    +0.000 A 
ATOM     34  C   UNL     1       0.677  15.357  19.565  0.00  0.00    +0.000 A 
ATOM     35  C   UNL     1      -0.493  16.036  19.917  0.00  0.00    +0.000 A 
ATOM     36  C   UNL     1      -0.982  15.963  21.222  0.00  0.00    +0.000 A 
ENDBRANCH  30  31
ENDBRANCH  29  30
ENDBRANCH  13  29
TORSDOF 8
ENDMDL
MODEL 9
REMARK VINA RESULT:      -7.2      2.562      5.817
REMARK  Name = 
REMARK  8 active torsions:
REMARK  status: ('A' for Active; 'I' for Inactive)
REMARK    1  A    between atoms: C_2  and  O_3
REMARK    2  A    between atoms: C_2  and  C_4
REMARK    3  A    between atoms: C_6  and  O_7
REMARK    4  A    between atoms: O_7  and  C_8
REMARK    5  A    between atoms: C_8  and  C_9
REMARK    6  A    between atoms: C_24  and  O_25
REMARK    7  A    between atoms: O_25  and  C_26
REMARK    8  A    between atoms: C_26  and  C_27
REMARK                            x       y       z     vdW  Elec       q    Type
REMARK                         _______ _______ _______ _____ _____    ______ ____
ROOT
ATOM      1  C   UNL     1      -3.015  10.802  16.551  0.00  0.00    +0.000 A 
ATOM      2  C   UNL     1      -1.720  10.682  17.073  0.00  0.00    +0.000 A 
ATOM      3  C   UNL     1      -1.424  11.142  18.365  0.00  0.00    +0.000 A 
ATOM      4  C   UNL     1      -2.445  11.683  19.172  0.00  0.00    +0.000 A 
ATOM      5  C   UNL     1      -3.724  11.817  18.633  0.00  0.00    +0.000 A 
ATOM      6  C   UNL     1      -4.019  11.372  17.333  0.00  0.00    +0.000 A 
ATOM      7  C   UNL     1      -4.805  12.428  19.422  0.00  0.00    +0.000 C 
ATOM      8  O   UNL     1      -5.941  12.471  18.962  0.00  0.00    +0.000 OA
ATOM      9  C   UNL     1      -4.495  13.049  20.721  0.00  0.00    +0.000 A 
ATOM     10  C   UNL     1      -5.515  13.753  21.376  0.00  0.00    +0.000 A 
ATOM     11  C   UNL     1      -5.249  14.419  22.560  0.00  0.00    +0.000 A 
ATOM     12  C   UNL     1      -3.963  14.386  23.088  0.00  0.00    +0.000 A 
ATOM     13  C   UNL     1      -2.940  13.633  22.484  0.00  0.00    +0.000 A 
ATOM     14  C   UNL     1      -3.213  12.953  21.277  0.00  0.00    +0.000 A 
ATOM     15  C   UNL     1      -2.227  12.064  20.602  0.00  0.00    +0.000 C 
ATOM     16  O   UNL     1      -1.314  11.563  21.245  0.00  0.00    +0.000 OA
ENDROOT
BRANCH   1  18
ATOM     17  O   UNL     1      -2.393  10.007  14.407  0.00  0.00    +0.000 OA
ATOM     18  C   UNL     1      -3.286  10.248  15.201  0.00  0.00    +0.000 C 
BRANCH  18  19
ATOM     19  O   UNL     1      -4.593  10.080  14.915  0.00  0.00    +0.000 OA
ATOM     20  H   UNL     1      -5.076   9.416  15.440  0.00  0.00    +0.000 HD
ENDBRANCH  18  19
ENDBRANCH   1  18
BRANCH   3  21
ATOM     21  O   UNL     1      -0.174  11.044  18.903  0.00  0.00    +0.000 OA
BRANCH  21  22
ATOM     22  C   UNL     1       0.896  10.577  18.077  0.00  0.00    +0.000 C 
BRANCH  22  23
ATOM     23  C   UNL     1       1.419   9.270  18.637  0.00  0.00    +0.000 A 
ATOM     24  C   UNL     1       1.183   8.901  19.972  0.00  0.00    +0.000 A 
ATOM     25  C   UNL     1       1.686   7.703  20.481  0.00  0.00    +0.000 A 
ATOM     26  C   UNL     1       2.417   6.849  19.660  0.00  0.00    +0.000 A 
ATOM     27  C   UNL     1       2.637   7.188  18.326  0.00  0.00    +0.000 A 
ATOM     28  C   UNL     1       2.136   8.388  17.814  0.00  0.00    +0.000 A 
ENDBRANCH  22  23
ENDBRANCH  21  22
ENDBRANCH   3  21
BRANCH  13  29
ATOM     29  O   UNL     1      -1.674  13.564  23.022  0.00  0.00    +0.000 OA
BRANCH  29  30
ATOM     30  C   UNL     1      -0.869  14.740  22.867  0.00  0.00    +0.000 C 
BRANCH  30  31
ATOM     31  C   UNL     1      -0.650  15.148  21.432  0.00  0.00    +0.000 A 
ATOM     32  C   UNL     1      -1.391  16.225  20.911  0.00  0.00    +0.000 A 
ATOM     33  C   UNL     1      -1.148  16.703  19.623  0.00  0.00    +0.000 A 
ATOM     34  C   UNL     1      -0.156  16.111  18.845  0.00  0.00    +0.000 A 
ATOM     35  C   UNL     1       0.593  15.047  19.355  0.00  0.00    +0.000 A 
ATOM     36  C   UNL     1       0.350  14.569  20.643  0.00  0.00    +0.000 A 
ENDBRANCH  30  31
ENDBRANCH  29  30
ENDBRANCH  13  29
TORSDOF 8
ENDMDL
