MODEL 1
REMARK VINA RESULT:      -8.1      0.000      0.000
REMARK  Name = 
REMARK  4 active torsions:
REMARK  status: ('A' for Active; 'I' for Inactive)
REMARK    1  A    between atoms: C_1  and  N_2
REMARK    2  A    between atoms: C_10  and  C_11
REMARK    3  A    between atoms: C_20  and  C_21
REMARK    4  A    between atoms: C_21  and  O_22
REMARK                            x       y       z     vdW  Elec       q    Type
REMARK                         _______ _______ _______ _____ _____    ______ ____
ROOT
ATOM      1  C   UNL     1       2.422   2.463  21.431  0.00  0.00    +0.000 C 
ATOM      2  N   UNL     1       2.648   3.090  20.128  0.00  0.00    +0.000 N 
ATOM      3  C   UNL     1       2.389   4.446  19.960  0.00  0.00    +0.000 A 
ATOM      4  C   UNL     1       1.410   5.094  20.741  0.00  0.00    +0.000 A 
ATOM      5  C   UNL     1       1.204   6.479  20.700  0.00  0.00    +0.000 A 
ATOM      6  C   UNL     1       1.955   7.257  19.834  0.00  0.00    +0.000 A 
ATOM      7 CL   UNL     1       1.769   8.967  19.830  0.00  0.00    +0.000 Cl
ATOM      8  C   UNL     1       2.879   6.659  18.991  0.00  0.00    +0.000 A 
ATOM      9  C   UNL     1       3.115   5.273  19.066  0.00  0.00    +0.000 A 
ATOM     10  C   UNL     1       4.222   4.734  18.220  0.00  0.00    +0.000 C 
ATOM     11  N   UNL     1       4.120   3.669  17.490  0.00  0.00    +0.000 NA
ATOM     12  C   UNL     1       2.896   2.872  17.605  0.00  0.00    +0.000 C 
ATOM     13  C   UNL     1       2.849   2.164  18.974  0.00  0.00    +0.000 C 
ENDROOT
BRANCH  10  14
ATOM     14  C   UNL     1       5.540   5.459  18.159  0.00  0.00    +0.000 A 
ATOM     15  C   UNL     1       6.389   5.297  19.271  0.00  0.00    +0.000 A 
ATOM     16  C   UNL     1       7.621   5.948  19.333  0.00  0.00    +0.000 A 
ATOM     17  C   UNL     1       8.032   6.756  18.281  0.00  0.00    +0.000 A 
ATOM     18  C   UNL     1       7.196   6.940  17.185  0.00  0.00    +0.000 A 
ATOM     19  C   UNL     1       5.940   6.321  17.125  0.00  0.00    +0.000 A 
ATOM     20 CL   UNL     1       4.958   6.765  15.774  0.00  0.00    +0.000 Cl
ENDBRANCH  10  14
BRANCH  13  21
ATOM     21  C   UNL     1       4.093   1.244  19.170  0.00  0.00    +0.000 C 
BRANCH  21  22
ATOM     22  O   UNL     1       5.209   1.873  19.798  0.00  0.00    +0.000 OA
ATOM     23  H   UNL     1       5.195   1.563  20.727  0.00  0.00    +0.000 HD
ENDBRANCH  21  22
ENDBRANCH  13  21
TORSDOF 3
ENDMDL
MODEL 2
REMARK VINA RESULT:      -7.6      1.641      2.081
REMARK  Name = 
REMARK  4 active torsions:
REMARK  status: ('A' for Active; 'I' for Inactive)
REMARK    1  A    between atoms: C_1  and  N_2
REMARK    2  A    between atoms: C_10  and  C_11
REMARK    3  A    between atoms: C_20  and  C_21
REMARK    4  A    between atoms: C_21  and  O_22
REMARK                            x       y       z     vdW  Elec       q    Type
REMARK                         _______ _______ _______ _____ _____    ______ ____
ROOT
ATOM      1  C   UNL     1       2.580   3.452  21.575  0.00  0.00    +0.000 C 
ATOM      2  N   UNL     1       2.463   3.639  20.128  0.00  0.00    +0.000 N 
ATOM      3  C   UNL     1       2.378   4.925  19.603  0.00  0.00    +0.000 A 
ATOM      4  C   UNL     1       1.823   5.976  20.359  0.00  0.00    +0.000 A 
ATOM      5  C   UNL     1       1.833   7.308  19.926  0.00  0.00    +0.000 A 
ATOM      6  C   UNL     1       2.372   7.620  18.688  0.00  0.00    +0.000 A 
ATOM      7 CL   UNL     1       2.464   9.260  18.176  0.00  0.00    +0.000 Cl
ATOM      8  C   UNL     1       2.864   6.612  17.873  0.00  0.00    +0.000 A 
ATOM      9  C   UNL     1       2.891   5.281  18.330  0.00  0.00    +0.000 A 
ATOM     10  C   UNL     1       3.562   4.281  17.445  0.00  0.00    +0.000 C 
ATOM     11  N   UNL     1       3.062   3.122  17.156  0.00  0.00    +0.000 NA
ATOM     12  C   UNL     1       1.834   2.713  17.844  0.00  0.00    +0.000 C 
ATOM     13  C   UNL     1       2.127   2.424  19.329  0.00  0.00    +0.000 C 
ENDROOT
BRANCH  10  14
ATOM     14  C   UNL     1       4.884   4.614  16.806  0.00  0.00    +0.000 A 
ATOM     15  C   UNL     1       4.964   4.430  15.413  0.00  0.00    +0.000 A 
ATOM     16  C   UNL     1       6.151   4.678  14.723  0.00  0.00    +0.000 A 
ATOM     17  C   UNL     1       7.269   5.131  15.410  0.00  0.00    +0.000 A 
ATOM     18  C   UNL     1       7.211   5.301  16.789  0.00  0.00    +0.000 A 
ATOM     19  C   UNL     1       6.035   5.020  17.499  0.00  0.00    +0.000 A 
ATOM     20 CL   UNL     1       6.164   5.135  19.219  0.00  0.00    +0.000 Cl
ENDBRANCH  10  14
BRANCH  13  21
ATOM     21  C   UNL     1       3.208   1.308  19.478  0.00  0.00    +0.000 C 
BRANCH  21  22
ATOM     22  O   UNL     1       4.556   1.765  19.391  0.00  0.00    +0.000 OA
ATOM     23  H   UNL     1       4.992   1.171  18.746  0.00  0.00    +0.000 HD
ENDBRANCH  21  22
ENDBRANCH  13  21
TORSDOF 3
ENDMDL
MODEL 3
REMARK VINA RESULT:      -7.0      2.081      4.806
REMARK  Name = 
REMARK  4 active torsions:
REMARK  status: ('A' for Active; 'I' for Inactive)
REMARK    1  A    between atoms: C_1  and  N_2
REMARK    2  A    between atoms: C_10  and  C_11
REMARK    3  A    between atoms: C_20  and  C_21
REMARK    4  A    between atoms: C_21  and  O_22
REMARK                            x       y       z     vdW  Elec       q    Type
REMARK                         _______ _______ _______ _____ _____    ______ ____
ROOT
ATOM      1  C   UNL     1       5.047   6.674  15.464  0.00  0.00    +0.000 C 
ATOM      2  N   UNL     1       5.002   6.458  16.911  0.00  0.00    +0.000 N 
ATOM      3  C   UNL     1       4.023   7.087  17.673  0.00  0.00    +0.000 A 
ATOM      4  C   UNL     1       3.475   8.319  17.265  0.00  0.00    +0.000 A 
ATOM      5  C   UNL     1       2.399   8.926  17.926  0.00  0.00    +0.000 A 
ATOM      6  C   UNL     1       1.864   8.326  19.055  0.00  0.00    +0.000 A 
ATOM      7 CL   UNL     1       0.494   9.017  19.832  0.00  0.00    +0.000 Cl
ATOM      8  C   UNL     1       2.417   7.150  19.542  0.00  0.00    +0.000 A 
ATOM      9  C   UNL     1       3.468   6.521  18.849  0.00  0.00    +0.000 A 
ATOM     10  C   UNL     1       3.910   5.191  19.365  0.00  0.00    +0.000 C 
ATOM     11  N   UNL     1       5.150   4.857  19.533  0.00  0.00    +0.000 NA
ATOM     12  C   UNL     1       6.181   5.787  19.063  0.00  0.00    +0.000 C 
ATOM     13  C   UNL     1       6.205   5.819  17.522  0.00  0.00    +0.000 C 
ENDROOT
BRANCH  10  14
ATOM     14  C   UNL     1       2.885   4.159  19.755  0.00  0.00    +0.000 A 
ATOM     15  C   UNL     1       2.663   3.995  21.135  0.00  0.00    +0.000 A 
ATOM     16  C   UNL     1       1.756   3.046  21.608  0.00  0.00    +0.000 A 
ATOM     17  C   UNL     1       1.047   2.259  20.711  0.00  0.00    +0.000 A 
ATOM     18  C   UNL     1       1.268   2.398  19.344  0.00  0.00    +0.000 A 
ATOM     19  C   UNL     1       2.202   3.322  18.857  0.00  0.00    +0.000 A 
ATOM     20 CL   UNL     1       2.475   3.272  17.151  0.00  0.00    +0.000 Cl
ENDBRANCH  10  14
BRANCH  13  21
ATOM     21  C   UNL     1       6.475   4.398  16.937  0.00  0.00    +0.000 C 
BRANCH  21  22
ATOM     22  O   UNL     1       7.852   4.077  16.755  0.00  0.00    +0.000 OA
ATOM     23  H   UNL     1       7.896   3.581  15.911  0.00  0.00    +0.000 HD
ENDBRANCH  21  22
ENDBRANCH  13  21
TORSDOF 3
ENDMDL
MODEL 4
REMARK VINA RESULT:      -6.4      2.727      5.321
REMARK  Name = 
REMARK  4 active torsions:
REMARK  status: ('A' for Active; 'I' for Inactive)
REMARK    1  A    between atoms: C_1  and  N_2
REMARK    2  A    between atoms: C_10  and  C_11
REMARK    3  A    between atoms: C_20  and  C_21
REMARK    4  A    between atoms: C_21  and  O_22
REMARK                            x       y       z     vdW  Elec       q    Type
REMARK                         _______ _______ _______ _____ _____    ______ ____
ROOT
ATOM      1  C   UNL     1       6.852   4.556  18.570  0.00  0.00    +0.000 C 
ATOM      2  N   UNL     1       5.705   5.160  17.891  0.00  0.00    +0.000 N 
ATOM      3  C   UNL     1       4.461   4.542  17.954  0.00  0.00    +0.000 A 
ATOM      4  C   UNL     1       4.359   3.145  18.110  0.00  0.00    +0.000 A 
ATOM      5  C   UNL     1       3.135   2.492  18.308  0.00  0.00    +0.000 A 
ATOM      6  C   UNL     1       1.961   3.229  18.315  0.00  0.00    +0.000 A 
ATOM      7 CL   UNL     1       0.459   2.454  18.636  0.00  0.00    +0.000 Cl
ATOM      8  C   UNL     1       2.000   4.597  18.091  0.00  0.00    +0.000 A 
ATOM      9  C   UNL     1       3.235   5.254  17.936  0.00  0.00    +0.000 A 
ATOM     10  C   UNL     1       3.194   6.744  17.837  0.00  0.00    +0.000 C 
ATOM     11  N   UNL     1       3.850   7.428  16.955  0.00  0.00    +0.000 NA
ATOM     12  C   UNL     1       4.793   6.710  16.091  0.00  0.00    +0.000 C 
ATOM     13  C   UNL     1       6.013   6.243  16.909  0.00  0.00    +0.000 C 
ENDROOT
BRANCH  10  14
ATOM     14  C   UNL     1       2.325   7.534  18.780  0.00  0.00    +0.000 A 
ATOM     15  C   UNL     1       1.860   8.774  18.304  0.00  0.00    +0.000 A 
ATOM     16  C   UNL     1       1.073   9.602  19.105  0.00  0.00    +0.000 A 
ATOM     17  C   UNL     1       0.726   9.197  20.387  0.00  0.00    +0.000 A 
ATOM     18  C   UNL     1       1.193   7.982  20.878  0.00  0.00    +0.000 A 
ATOM     19  C   UNL     1       2.014   7.158  20.096  0.00  0.00    +0.000 A 
ATOM     20 CL   UNL     1       2.636   5.757  20.897  0.00  0.00    +0.000 Cl
ENDBRANCH  10  14
BRANCH  13  21
ATOM     21  C   UNL     1       6.733   7.453  17.579  0.00  0.00    +0.000 C 
BRANCH  21  22
ATOM     22  O   UNL     1       7.947   7.852  16.946  0.00  0.00    +0.000 OA
ATOM     23  H   UNL     1       7.873   7.545  16.019  0.00  0.00    +0.000 HD
ENDBRANCH  21  22
ENDBRANCH  13  21
TORSDOF 3
ENDMDL
MODEL 5
REMARK VINA RESULT:      -6.2      2.632      5.199
REMARK  Name = 
REMARK  4 active torsions:
REMARK  status: ('A' for Active; 'I' for Inactive)
REMARK    1  A    between atoms: C_1  and  N_2
REMARK    2  A    between atoms: C_10  and  C_11
REMARK    3  A    between atoms: C_20  and  C_21
REMARK    4  A    between atoms: C_21  and  O_22
REMARK                            x       y       z     vdW  Elec       q    Type
REMARK                         _______ _______ _______ _____ _____    ______ ____
ROOT
ATOM      1  C   UNL     1       6.846   4.469  18.451  0.00  0.00    +0.000 C 
ATOM      2  N   UNL     1       5.674   5.134  17.881  0.00  0.00    +0.000 N 
ATOM      3  C   UNL     1       4.431   4.511  17.939  0.00  0.00    +0.000 A 
ATOM      4  C   UNL     1       4.330   3.106  17.967  0.00  0.00    +0.000 A 
ATOM      5  C   UNL     1       3.114   2.437  18.156  0.00  0.00    +0.000 A 
ATOM      6  C   UNL     1       1.944   3.169  18.282  0.00  0.00    +0.000 A 
ATOM      7 CL   UNL     1       0.455   2.367  18.593  0.00  0.00    +0.000 Cl
ATOM      8  C   UNL     1       1.979   4.552  18.186  0.00  0.00    +0.000 A 
ATOM      9  C   UNL     1       3.208   5.222  18.041  0.00  0.00    +0.000 A 
ATOM     10  C   UNL     1       3.168   6.715  18.084  0.00  0.00    +0.000 C 
ATOM     11  N   UNL     1       3.788   7.479  17.243  0.00  0.00    +0.000 NA
ATOM     12  C   UNL     1       4.690   6.846  16.276  0.00  0.00    +0.000 C 
ATOM     13  C   UNL     1       5.942   6.304  16.993  0.00  0.00    +0.000 C 
ENDROOT
BRANCH  10  14
ATOM     14  C   UNL     1       2.343   7.412  19.134  0.00  0.00    +0.000 A 
ATOM     15  C   UNL     1       2.092   6.683  20.311  0.00  0.00    +0.000 A 
ATOM     16  C   UNL     1       1.314   7.222  21.337  0.00  0.00    +0.000 A 
ATOM     17  C   UNL     1       0.790   8.501  21.209  0.00  0.00    +0.000 A 
ATOM     18  C   UNL     1       1.014   9.226  20.043  0.00  0.00    +0.000 A 
ATOM     19  C   UNL     1       1.764   8.683  18.991  0.00  0.00    +0.000 A 
ATOM     20 CL   UNL     1       1.827   9.642  17.554  0.00  0.00    +0.000 Cl
ENDBRANCH  10  14
BRANCH  13  21
ATOM     21  C   UNL     1       6.696   7.447  17.742  0.00  0.00    +0.000 C 
BRANCH  21  22
ATOM     22  O   UNL     1       7.769   8.036  17.011  0.00  0.00    +0.000 OA
ATOM     23  H   UNL     1       7.631   7.765  16.080  0.00  0.00    +0.000 HD
ENDBRANCH  21  22
ENDBRANCH  13  21
TORSDOF 3
ENDMDL
MODEL 6
REMARK VINA RESULT:      -6.2      2.168      5.020
REMARK  Name = 
REMARK  4 active torsions:
REMARK  status: ('A' for Active; 'I' for Inactive)
REMARK    1  A    between atoms: C_1  and  N_2
REMARK    2  A    between atoms: C_10  and  C_11
REMARK    3  A    between atoms: C_20  and  C_21
REMARK    4  A    between atoms: C_21  and  O_22
REMARK                            x       y       z     vdW  Elec       q    Type
REMARK                         _______ _______ _______ _____ _____    ______ ____
ROOT
ATOM      1  C   UNL     1       5.214   6.671  15.390  0.00  0.00    +0.000 C 
ATOM      2  N   UNL     1       5.093   6.302  16.801  0.00  0.00    +0.000 N 
ATOM      3  C   UNL     1       4.121   6.907  17.592  0.00  0.00    +0.000 A 
ATOM      4  C   UNL     1       3.667   8.209  17.304  0.00  0.00    +0.000 A 
ATOM      5  C   UNL     1       2.602   8.808  17.989  0.00  0.00    +0.000 A 
ATOM      6  C   UNL     1       1.983   8.125  19.023  0.00  0.00    +0.000 A 
ATOM      7 CL   UNL     1       0.624   8.814  19.821  0.00  0.00    +0.000 Cl
ATOM      8  C   UNL     1       2.442   6.870  19.396  0.00  0.00    +0.000 A 
ATOM      9  C   UNL     1       3.483   6.253  18.676  0.00  0.00    +0.000 A 
ATOM     10  C   UNL     1       3.821   4.849  19.058  0.00  0.00    +0.000 C 
ATOM     11  N   UNL     1       5.030   4.419  19.233  0.00  0.00    +0.000 NA
ATOM     12  C   UNL     1       6.135   5.326  18.907  0.00  0.00    +0.000 C 
ATOM     13  C   UNL     1       6.228   5.524  17.382  0.00  0.00    +0.000 C 
ENDROOT
BRANCH  10  14
ATOM     14  C   UNL     1       2.719   3.850  19.291  0.00  0.00    +0.000 A 
ATOM     15  C   UNL     1       2.186   3.233  18.144  0.00  0.00    +0.000 A 
ATOM     16  C   UNL     1       1.141   2.314  18.242  0.00  0.00    +0.000 A 
ATOM     17  C   UNL     1       0.624   1.985  19.488  0.00  0.00    +0.000 A 
ATOM     18  C   UNL     1       1.128   2.599  20.630  0.00  0.00    +0.000 A 
ATOM     19  C   UNL     1       2.154   3.551  20.541  0.00  0.00    +0.000 A 
ATOM     20 CL   UNL     1       2.567   4.334  22.026  0.00  0.00    +0.000 Cl
ENDBRANCH  10  14
BRANCH  13  21
ATOM     21  C   UNL     1       6.437   4.161  16.653  0.00  0.00    +0.000 C 
BRANCH  21  22
ATOM     22  O   UNL     1       5.257   3.373  16.508  0.00  0.00    +0.000 OA
ATOM     23  H   UNL     1       4.539   4.010  16.316  0.00  0.00    +0.000 HD
ENDBRANCH  21  22
ENDBRANCH  13  21
TORSDOF 3
ENDMDL
MODEL 7
REMARK VINA RESULT:      -6.1      2.030      4.788
REMARK  Name = 
REMARK  4 active torsions:
REMARK  status: ('A' for Active; 'I' for Inactive)
REMARK    1  A    between atoms: C_1  and  N_2
REMARK    2  A    between atoms: C_10  and  C_11
REMARK    3  A    between atoms: C_20  and  C_21
REMARK    4  A    between atoms: C_21  and  O_22
REMARK                            x       y       z     vdW  Elec       q    Type
REMARK                         _______ _______ _______ _____ _____    ______ ____
ROOT
ATOM      1  C   UNL     1       3.171   2.302  17.183  0.00  0.00    +0.000 C 
ATOM      2  N   UNL     1       3.332   3.275  18.264  0.00  0.00    +0.000 N 
ATOM      3  C   UNL     1       4.347   4.224  18.195  0.00  0.00    +0.000 A 
ATOM      4  C   UNL     1       5.538   3.953  17.492  0.00  0.00    +0.000 A 
ATOM      5  C   UNL     1       6.531   4.919  17.285  0.00  0.00    +0.000 A 
ATOM      6  C   UNL     1       6.373   6.188  17.819  0.00  0.00    +0.000 A 
ATOM      7 CL   UNL     1       7.545   7.407  17.506  0.00  0.00    +0.000 Cl
ATOM      8  C   UNL     1       5.253   6.483  18.582  0.00  0.00    +0.000 A 
ATOM      9  C   UNL     1       4.237   5.523  18.751  0.00  0.00    +0.000 A 
ATOM     10  C   UNL     1       3.006   5.969  19.470  0.00  0.00    +0.000 C 
ATOM     11  N   UNL     1       2.431   5.287  20.409  0.00  0.00    +0.000 NA
ATOM     12  C   UNL     1       2.937   3.940  20.688  0.00  0.00    +0.000 C 
ATOM     13  C   UNL     1       2.587   2.989  19.527  0.00  0.00    +0.000 C 
ENDROOT
BRANCH  10  14
ATOM     14  C   UNL     1       2.382   7.299  19.136  0.00  0.00    +0.000 A 
ATOM     15  C   UNL     1       2.608   7.779  17.832  0.00  0.00    +0.000 A 
ATOM     16  C   UNL     1       2.102   9.014  17.425  0.00  0.00    +0.000 A 
ATOM     17  C   UNL     1       1.351   9.779  18.307  0.00  0.00    +0.000 A 
ATOM     18  C   UNL     1       1.135   9.325  19.605  0.00  0.00    +0.000 A 
ATOM     19  C   UNL     1       1.668   8.103  20.037  0.00  0.00    +0.000 A 
ATOM     20 CL   UNL     1       1.442   7.748  21.714  0.00  0.00    +0.000 Cl
ENDBRANCH  10  14
BRANCH  13  21
ATOM     21  C   UNL     1       1.045   2.932  19.297  0.00  0.00    +0.000 C 
BRANCH  21  22
ATOM     22  O   UNL     1       0.257   3.302  20.427  0.00  0.00    +0.000 OA
ATOM     23  H   UNL     1       0.516   4.223  20.635  0.00  0.00    +0.000 HD
ENDBRANCH  21  22
ENDBRANCH  13  21
TORSDOF 3
ENDMDL
MODEL 8
REMARK VINA RESULT:      -6.0      1.911      4.503
REMARK  Name = 
REMARK  4 active torsions:
REMARK  status: ('A' for Active; 'I' for Inactive)
REMARK    1  A    between atoms: C_1  and  N_2
REMARK    2  A    between atoms: C_10  and  C_11
REMARK    3  A    between atoms: C_20  and  C_21
REMARK    4  A    between atoms: C_21  and  O_22
REMARK                            x       y       z     vdW  Elec       q    Type
REMARK                         _______ _______ _______ _____ _____    ______ ____
ROOT
ATOM      1  C   UNL     1       2.996   2.249  17.005  0.00  0.00    +0.000 C 
ATOM      2  N   UNL     1       3.222   3.071  18.194  0.00  0.00    +0.000 N 
ATOM      3  C   UNL     1       4.261   3.996  18.208  0.00  0.00    +0.000 A 
ATOM      4  C   UNL     1       5.419   3.788  17.432  0.00  0.00    +0.000 A 
ATOM      5  C   UNL     1       6.432   4.748  17.312  0.00  0.00    +0.000 A 
ATOM      6  C   UNL     1       6.328   5.943  18.008  0.00  0.00    +0.000 A 
ATOM      7 CL   UNL     1       7.524   7.163  17.808  0.00  0.00    +0.000 Cl
ATOM      8  C   UNL     1       5.244   6.165  18.844  0.00  0.00    +0.000 A 
ATOM      9  C   UNL     1       4.207   5.216  18.928  0.00  0.00    +0.000 A 
ATOM     10  C   UNL     1       3.015   5.596  19.744  0.00  0.00    +0.000 C 
ATOM     11  N   UNL     1       2.453   4.814  20.609  0.00  0.00    +0.000 NA
ATOM     12  C   UNL     1       2.930   3.431  20.696  0.00  0.00    +0.000 C 
ATOM     13  C   UNL     1       2.513   2.645  19.438  0.00  0.00    +0.000 C 
ENDROOT
BRANCH  10  14
ATOM     14  C   UNL     1       2.419   6.973  19.604  0.00  0.00    +0.000 A 
ATOM     15  C   UNL     1       1.716   7.460  20.721  0.00  0.00    +0.000 A 
ATOM     16  C   UNL     1       1.098   8.711  20.691  0.00  0.00    +0.000 A 
ATOM     17  C   UNL     1       1.187   9.499  19.551  0.00  0.00    +0.000 A 
ATOM     18  C   UNL     1       1.863   9.023  18.433  0.00  0.00    +0.000 A 
ATOM     19  C   UNL     1       2.458   7.753  18.438  0.00  0.00    +0.000 A 
ATOM     20 CL   UNL     1       3.129   7.243  16.929  0.00  0.00    +0.000 Cl
ENDBRANCH  10  14
BRANCH  13  21
ATOM     21  C   UNL     1       0.963   2.655  19.261  0.00  0.00    +0.000 C 
BRANCH  21  22
ATOM     22  O   UNL     1       0.234   3.122  20.394  0.00  0.00    +0.000 OA
ATOM     23  H   UNL     1      -0.652   2.710  20.323  0.00  0.00    +0.000 HD
ENDBRANCH  21  22
ENDBRANCH  13  21
TORSDOF 3
ENDMDL
MODEL 9
REMARK VINA RESULT:      -5.8      7.857     10.883
REMARK  Name = 
REMARK  4 active torsions:
REMARK  status: ('A' for Active; 'I' for Inactive)
REMARK    1  A    between atoms: C_1  and  N_2
REMARK    2  A    between atoms: C_10  and  C_11
REMARK    3  A    between atoms: C_20  and  C_21
REMARK    4  A    between atoms: C_21  and  O_22
REMARK                            x       y       z     vdW  Elec       q    Type
REMARK                         _______ _______ _______ _____ _____    ______ ____
ROOT
ATOM      1  C   UNL     1       0.485   9.927  18.852  0.00  0.00    +0.000 C 
ATOM      2  N   UNL     1      -0.253  11.189  18.921  0.00  0.00    +0.000 N 
ATOM      3  C   UNL     1      -1.617  11.206  18.646  0.00  0.00    +0.000 A 
ATOM      4  C   UNL     1      -2.187  10.261  17.770  0.00  0.00    +0.000 A 
ATOM      5  C   UNL     1      -3.568  10.156  17.563  0.00  0.00    +0.000 A 
ATOM      6  C   UNL     1      -4.425  11.036  18.206  0.00  0.00    +0.000 A 
ATOM      7 CL   UNL     1      -6.127  10.870  18.024  0.00  0.00    +0.000 Cl
ATOM      8  C   UNL     1      -3.909  12.033  19.021  0.00  0.00    +0.000 A 
ATOM      9  C   UNL     1      -2.523  12.107  19.260  0.00  0.00    +0.000 A 
ATOM     10  C   UNL     1      -2.069  13.123  20.256  0.00  0.00    +0.000 C 
ATOM     11  N   UNL     1      -1.070  13.924  20.066  0.00  0.00    +0.000 NA
ATOM     12  C   UNL     1      -0.255  13.732  18.862  0.00  0.00    +0.000 C 
ATOM     13  C   UNL     1       0.568  12.434  18.979  0.00  0.00    +0.000 C 
ENDROOT
BRANCH  10  14
ATOM     14  C   UNL     1      -2.808  13.279  21.559  0.00  0.00    +0.000 A 
ATOM     15  C   UNL     1      -2.615  12.257  22.508  0.00  0.00    +0.000 A 
ATOM     16  C   UNL     1      -3.274  12.285  23.737  0.00  0.00    +0.000 A 
ATOM     17  C   UNL     1      -4.122  13.341  24.044  0.00  0.00    +0.000 A 
ATOM     18  C   UNL     1      -4.337  14.349  23.109  0.00  0.00    +0.000 A 
ATOM     19  C   UNL     1      -3.708  14.314  21.857  0.00  0.00    +0.000 A 
ATOM     20 CL   UNL     1      -4.190  15.553  20.752  0.00  0.00    +0.000 Cl
ENDBRANCH  10  14
BRANCH  13  21
ATOM     21  C   UNL     1       1.491  12.469  20.237  0.00  0.00    +0.000 C 
BRANCH  21  22
ATOM     22  O   UNL     1       0.858  12.083  21.455  0.00  0.00    +0.000 OA
ATOM     23  H   UNL     1       0.936  11.107  21.492  0.00  0.00    +0.000 HD
ENDBRANCH  21  22
ENDBRANCH  13  21
TORSDOF 3
ENDMDL
