MODEL 1
REMARK VINA RESULT:      -8.0      0.000      0.000
REMARK  Name = 
REMARK  10 active torsions:
REMARK  status: ('A' for Active; 'I' for Inactive)
REMARK    1  A    between atoms: C_1  and  O_2
REMARK    2  A    between atoms: O_2  and  C_3
REMARK    3  A    between atoms: C_8  and  C_9
REMARK    4  A    between atoms: C_11  and  C_12
REMARK    5  A    between atoms: N_14  and  C_15
REMARK    6  A    between atoms: N_18  and  C_19
REMARK    7  A    between atoms: C_20  and  C_21
REMARK    8  A    between atoms: C_24  and  N_25
REMARK    9  A    between atoms: C_26  and  O_27
REMARK   10  A    between atoms: O_27  and  C_28
REMARK                            x       y       z     vdW  Elec       q    Type
REMARK                         _______ _______ _______ _____ _____    ______ ____
ROOT
ATOM      1  C   UNL     1       2.587   8.234  18.049  0.00  0.00    +0.000 C 
ATOM      2  O   UNL     1       2.459   8.588  16.877  0.00  0.00    +0.000 OA
ATOM      3  N   UNL     1       3.524   7.323  18.511  0.00  0.00    +0.000 N 
ATOM      4  H   UNL     1       3.517   7.119  19.503  0.00  0.00    +0.000 HD
ENDROOT
BRANCH   3   5
ATOM      5  C   UNL     1       4.476   6.739  17.683  0.00  0.00    +0.000 A 
ATOM      6  C   UNL     1       5.585   7.346  17.049  0.00  0.00    +0.000 A 
ATOM      7  N   UNL     1       6.320   6.483  16.351  0.00  0.00    +0.000 NA
ATOM      8  N   UNL     1       5.687   5.310  16.529  0.00  0.00    +0.000 N 
ATOM      9  C   UNL     1       6.286   4.142  15.924  0.00  0.00    +0.000 C 
ATOM     10  C   UNL     1       4.534   5.407  17.283  0.00  0.00    +0.000 A 
BRANCH  10  11
ATOM     11  C   UNL     1       3.581   4.270  17.519  0.00  0.00    +0.000 C 
ATOM     12  C   UNL     1       2.215   4.722  18.039  0.00  0.00    +0.000 C 
ATOM     13  C   UNL     1       1.164   3.630  17.830  0.00  0.00    +0.000 C 
ATOM     14  C   UNL     1       1.107   2.516  18.893  0.00  0.00    +0.000 C 
ATOM     15  C   UNL     1       2.452   1.961  19.441  0.00  0.00    +0.000 C 
ATOM     16  C   UNL     1       3.638   2.069  18.472  0.00  0.00    +0.000 C 
ATOM     17  O   UNL     1       4.215   3.372  18.421  0.00  0.00    +0.000 OA
BRANCH  14  18
ATOM     18  N   UNL     1       0.290   1.419  18.327  0.00  0.00    +0.000 NA
ATOM     19  H   UNL     1       0.751   1.014  17.514  0.00  0.00    +0.000 HD
ATOM     20  H   UNL     1      -0.598   1.794  17.993  0.00  0.00    +0.000 HD
ENDBRANCH  14  18
BRANCH  15  21
ATOM     21  O   UNL     1       2.710   2.580  20.718  0.00  0.00    +0.000 OA
ATOM     22  C   UNL     1       1.530   2.890  21.450  0.00  0.00    +0.000 C 
ENDBRANCH  15  21
ENDBRANCH  10  11
ENDBRANCH   3   5
BRANCH   1  25
ATOM     23  C   UNL     1       0.162  10.131  19.984  0.00  0.00    +0.000 A 
ATOM     24  N   UNL     1       0.840   9.869  18.876  0.00  0.00    +0.000 NA
ATOM     25  C   UNL     1       1.710   8.794  19.085  0.00  0.00    +0.000 A 
ATOM     26  C   UNL     1       1.675   8.270  20.365  0.00  0.00    +0.000 A 
ATOM     27  S   UNL     1       0.515   9.077  21.309  0.00  0.00    +0.000 S 
BRANCH  23  33
ATOM     28  C   UNL     1      -3.002  12.206  19.481  0.00  0.00    +0.000 A 
ATOM     29  C   UNL     1      -2.787  13.234  20.397  0.00  0.00    +0.000 A 
ATOM     30  C   UNL     1      -1.631  13.233  21.178  0.00  0.00    +0.000 A 
ATOM     31  C   UNL     1      -0.688  12.214  21.040  0.00  0.00    +0.000 A 
ATOM     32  F   UNL     1       0.412  12.276  21.804  0.00  0.00    +0.000 F 
ATOM     33  C   UNL     1      -0.864  11.175  20.124  0.00  0.00    +0.000 A 
ATOM     34  C   UNL     1      -2.039  11.192  19.353  0.00  0.00    +0.000 A 
ATOM     35  F   UNL     1      -2.284  10.202  18.477  0.00  0.00    +0.000 F 
BRANCH  28  37
ATOM     36  C   UNL     1      -5.357  11.884  19.283  0.00  0.00    +0.000 C 
ATOM     37  O   UNL     1      -4.094  12.084  18.664  0.00  0.00    +0.000 OA
ENDBRANCH  28  37
ENDBRANCH  23  33
ENDBRANCH   1  25
TORSDOF 7
ENDMDL
MODEL 2
REMARK VINA RESULT:      -7.9      1.024      1.998
REMARK  Name = 
REMARK  10 active torsions:
REMARK  status: ('A' for Active; 'I' for Inactive)
REMARK    1  A    between atoms: C_1  and  O_2
REMARK    2  A    between atoms: O_2  and  C_3
REMARK    3  A    between atoms: C_8  and  C_9
REMARK    4  A    between atoms: C_11  and  C_12
REMARK    5  A    between atoms: N_14  and  C_15
REMARK    6  A    between atoms: N_18  and  C_19
REMARK    7  A    between atoms: C_20  and  C_21
REMARK    8  A    between atoms: C_24  and  N_25
REMARK    9  A    between atoms: C_26  and  O_27
REMARK   10  A    between atoms: O_27  and  C_28
REMARK                            x       y       z     vdW  Elec       q    Type
REMARK                         _______ _______ _______ _____ _____    ______ ____
ROOT
ATOM      1  C   UNL     1       2.656   8.201  18.007  0.00  0.00    +0.000 C 
ATOM      2  O   UNL     1       2.502   8.540  16.834  0.00  0.00    +0.000 OA
ATOM      3  N   UNL     1       3.602   7.294  18.459  0.00  0.00    +0.000 N 
ATOM      4  H   UNL     1       3.617   7.103  19.454  0.00  0.00    +0.000 HD
ENDROOT
BRANCH   3   5
ATOM      5  C   UNL     1       4.534   6.698  17.618  0.00  0.00    +0.000 A 
ATOM      6  C   UNL     1       5.639   7.291  16.964  0.00  0.00    +0.000 A 
ATOM      7  N   UNL     1       6.353   6.418  16.258  0.00  0.00    +0.000 NA
ATOM      8  N   UNL     1       5.711   5.253  16.448  0.00  0.00    +0.000 N 
ATOM      9  C   UNL     1       6.287   4.077  15.837  0.00  0.00    +0.000 C 
ATOM     10  C   UNL     1       4.571   5.364  17.220  0.00  0.00    +0.000 A 
BRANCH  10  11
ATOM     11  C   UNL     1       3.609   4.239  17.475  0.00  0.00    +0.000 C 
ATOM     12  C   UNL     1       2.247   4.710  17.986  0.00  0.00    +0.000 C 
ATOM     13  C   UNL     1       1.187   3.622  17.795  0.00  0.00    +0.000 C 
ATOM     14  C   UNL     1       1.121   2.526  18.875  0.00  0.00    +0.000 C 
ATOM     15  C   UNL     1       2.462   1.970  19.433  0.00  0.00    +0.000 C 
ATOM     16  C   UNL     1       3.650   2.054  18.463  0.00  0.00    +0.000 C 
ATOM     17  O   UNL     1       4.236   3.351  18.391  0.00  0.00    +0.000 OA
BRANCH  14  18
ATOM     18  N   UNL     1       0.296   1.426  18.327  0.00  0.00    +0.000 NA
ATOM     19  H   UNL     1      -0.159   1.717  17.463  0.00  0.00    +0.000 HD
ATOM     20  H   UNL     1      -0.453   1.204  18.983  0.00  0.00    +0.000 HD
ENDBRANCH  14  18
BRANCH  15  21
ATOM     21  O   UNL     1       2.724   2.608  20.700  0.00  0.00    +0.000 OA
ATOM     22  C   UNL     1       1.547   3.009  21.391  0.00  0.00    +0.000 C 
ENDBRANCH  15  21
ENDBRANCH  10  11
ENDBRANCH   3   5
BRANCH   1  25
ATOM     23  C   UNL     1       0.345  10.184  19.995  0.00  0.00    +0.000 A 
ATOM     24  N   UNL     1       1.023   9.924  18.886  0.00  0.00    +0.000 NA
ATOM     25  C   UNL     1       1.804   8.776  19.055  0.00  0.00    +0.000 A 
ATOM     26  C   UNL     1       1.702   8.195  20.306  0.00  0.00    +0.000 A 
ATOM     27  S   UNL     1       0.589   9.041  21.270  0.00  0.00    +0.000 S 
BRANCH  23  33
ATOM     28  C   UNL     1      -1.278  13.415  21.217  0.00  0.00    +0.000 A 
ATOM     29  C   UNL     1      -2.477  13.388  20.508  0.00  0.00    +0.000 A 
ATOM     30  C   UNL     1      -2.737  12.335  19.630  0.00  0.00    +0.000 A 
ATOM     31  C   UNL     1      -1.808  11.308  19.467  0.00  0.00    +0.000 A 
ATOM     32  F   UNL     1      -2.121  10.313  18.624  0.00  0.00    +0.000 F 
ATOM     33  C   UNL     1      -0.601  11.296  20.170  0.00  0.00    +0.000 A 
ATOM     34  C   UNL     1      -0.357  12.369  21.043  0.00  0.00    +0.000 A 
ATOM     35  F   UNL     1       0.800  12.434  21.723  0.00  0.00    +0.000 F 
BRANCH  28  37
ATOM     36  C   UNL     1      -1.346  14.272  23.441  0.00  0.00    +0.000 C 
ATOM     37  O   UNL     1      -0.897  14.391  22.098  0.00  0.00    +0.000 OA
ENDBRANCH  28  37
ENDBRANCH  23  33
ENDBRANCH   1  25
TORSDOF 7
ENDMDL
MODEL 3
REMARK VINA RESULT:      -7.9      2.681      4.836
REMARK  Name = 
REMARK  10 active torsions:
REMARK  status: ('A' for Active; 'I' for Inactive)
REMARK    1  A    between atoms: C_1  and  O_2
REMARK    2  A    between atoms: O_2  and  C_3
REMARK    3  A    between atoms: C_8  and  C_9
REMARK    4  A    between atoms: C_11  and  C_12
REMARK    5  A    between atoms: N_14  and  C_15
REMARK    6  A    between atoms: N_18  and  C_19
REMARK    7  A    between atoms: C_20  and  C_21
REMARK    8  A    between atoms: C_24  and  N_25
REMARK    9  A    between atoms: C_26  and  O_27
REMARK   10  A    between atoms: O_27  and  C_28
REMARK                            x       y       z     vdW  Elec       q    Type
REMARK                         _______ _______ _______ _____ _____    ______ ____
ROOT
ATOM      1  C   UNL     1       1.764   7.144  19.855  0.00  0.00    +0.000 C 
ATOM      2  O   UNL     1       1.847   6.940  18.644  0.00  0.00    +0.000 OA
ATOM      3  N   UNL     1       2.021   6.208  20.844  0.00  0.00    +0.000 N 
ATOM      4  H   UNL     1       1.910   6.510  21.803  0.00  0.00    +0.000 HD
ENDROOT
BRANCH   3   5
ATOM      5  C   UNL     1       2.463   4.920  20.562  0.00  0.00    +0.000 A 
ATOM      6  C   UNL     1       1.881   3.686  20.934  0.00  0.00    +0.000 A 
ATOM      7  N   UNL     1       2.549   2.635  20.463  0.00  0.00    +0.000 NA
ATOM      8  N   UNL     1       3.571   3.185  19.785  0.00  0.00    +0.000 N 
ATOM      9  C   UNL     1       4.466   2.281  19.099  0.00  0.00    +0.000 C 
ATOM     10  C   UNL     1       3.605   4.564  19.850  0.00  0.00    +0.000 A 
BRANCH  10  11
ATOM     11  C   UNL     1       4.712   5.409  19.286  0.00  0.00    +0.000 C 
ATOM     12  C   UNL     1       4.550   5.702  17.793  0.00  0.00    +0.000 C 
ATOM     13  C   UNL     1       5.405   6.901  17.377  0.00  0.00    +0.000 C 
ATOM     14  C   UNL     1       6.889   6.618  17.076  0.00  0.00    +0.000 C 
ATOM     15  C   UNL     1       7.647   5.631  18.008  0.00  0.00    +0.000 C 
ATOM     16  C   UNL     1       7.101   5.547  19.441  0.00  0.00    +0.000 C 
ATOM     17  O   UNL     1       5.934   4.737  19.560  0.00  0.00    +0.000 OA
BRANCH  14  18
ATOM     18  N   UNL     1       7.582   7.926  17.040  0.00  0.00    +0.000 NA
ATOM     19  H   UNL     1       7.233   8.534  17.778  0.00  0.00    +0.000 HD
ATOM     20  H   UNL     1       7.370   8.397  16.159  0.00  0.00    +0.000 HD
ENDBRANCH  14  18
BRANCH  15  21
ATOM     21  O   UNL     1       7.709   4.346  17.354  0.00  0.00    +0.000 OA
ATOM     22  C   UNL     1       7.226   4.365  16.016  0.00  0.00    +0.000 C 
ENDBRANCH  15  21
ENDBRANCH  10  11
ENDBRANCH   3   5
BRANCH   1  25
ATOM     23  C   UNL     1       0.906  10.654  20.269  0.00  0.00    +0.000 A 
ATOM     24  N   UNL     1       1.316   9.618  19.552  0.00  0.00    +0.000 NA
ATOM     25  C   UNL     1       1.373   8.470  20.350  0.00  0.00    +0.000 A 
ATOM     26  C   UNL     1       1.010   8.673  21.669  0.00  0.00    +0.000 A 
ATOM     27  S   UNL     1       0.539  10.286  21.918  0.00  0.00    +0.000 S 
BRANCH  23  33
ATOM     28  C   UNL     1       1.295  14.397  19.629  0.00  0.00    +0.000 A 
ATOM     29  C   UNL     1       0.226  14.626  18.765  0.00  0.00    +0.000 A 
ATOM     30  C   UNL     1      -0.596  13.563  18.387  0.00  0.00    +0.000 A 
ATOM     31  C   UNL     1      -0.357  12.279  18.875  0.00  0.00    +0.000 A 
ATOM     32  F   UNL     1      -1.191  11.302  18.492  0.00  0.00    +0.000 F 
ATOM     33  C   UNL     1       0.698  12.015  19.751  0.00  0.00    +0.000 A 
ATOM     34  C   UNL     1       1.517  13.098  20.113  0.00  0.00    +0.000 A 
ATOM     35  F   UNL     1       2.570  12.904  20.927  0.00  0.00    +0.000 F 
BRANCH  28  37
ATOM     36  C   UNL     1       1.859  16.706  19.819  0.00  0.00    +0.000 C 
ATOM     37  O   UNL     1       2.179  15.345  20.068  0.00  0.00    +0.000 OA
ENDBRANCH  28  37
ENDBRANCH  23  33
ENDBRANCH   1  25
TORSDOF 7
ENDMDL
MODEL 4
REMARK VINA RESULT:      -7.9      3.899     10.098
REMARK  Name = 
REMARK  10 active torsions:
REMARK  status: ('A' for Active; 'I' for Inactive)
REMARK    1  A    between atoms: C_1  and  O_2
REMARK    2  A    between atoms: O_2  and  C_3
REMARK    3  A    between atoms: C_8  and  C_9
REMARK    4  A    between atoms: C_11  and  C_12
REMARK    5  A    between atoms: N_14  and  C_15
REMARK    6  A    between atoms: N_18  and  C_19
REMARK    7  A    between atoms: C_20  and  C_21
REMARK    8  A    between atoms: C_24  and  N_25
REMARK    9  A    between atoms: C_26  and  O_27
REMARK   10  A    between atoms: O_27  and  C_28
REMARK                            x       y       z     vdW  Elec       q    Type
REMARK                         _______ _______ _______ _____ _____    ______ ____
ROOT
ATOM      1  C   UNL     1       0.590  10.056  21.477  0.00  0.00    +0.000 C 
ATOM      2  O   UNL     1       0.946   9.772  22.621  0.00  0.00    +0.000 OA
ATOM      3  N   UNL     1      -0.329  11.040  21.147  0.00  0.00    +0.000 N 
ATOM      4  H   UNL     1      -0.533  11.167  20.164  0.00  0.00    +0.000 HD
ENDROOT
BRANCH   3   5
ATOM      5  C   UNL     1      -0.919  11.866  22.098  0.00  0.00    +0.000 A 
ATOM      6  C   UNL     1      -1.956  11.560  23.010  0.00  0.00    +0.000 A 
ATOM      7  N   UNL     1      -2.259  12.579  23.809  0.00  0.00    +0.000 NA
ATOM      8  N   UNL     1      -1.420  13.553  23.417  0.00  0.00    +0.000 N 
ATOM      9  C   UNL     1      -1.471  14.799  24.147  0.00  0.00    +0.000 C 
ATOM     10  C   UNL     1      -0.618  13.201  22.349  0.00  0.00    +0.000 A 
BRANCH  10  11
ATOM     11  C   UNL     1       0.311  14.146  21.642  0.00  0.00    +0.000 C 
ATOM     12  C   UNL     1      -0.131  14.478  20.215  0.00  0.00    +0.000 C 
ATOM     13  C   UNL     1       0.553  15.751  19.714  0.00  0.00    +0.000 C 
ATOM     14  C   UNL     1       1.977  15.591  19.148  0.00  0.00    +0.000 C 
ATOM     15  C   UNL     1       2.953  14.633  19.887  0.00  0.00    +0.000 C 
ATOM     16  C   UNL     1       2.675  14.459  21.387  0.00  0.00    +0.000 C 
ATOM     17  O   UNL     1       1.605  13.559  21.668  0.00  0.00    +0.000 OA
BRANCH  14  18
ATOM     18  N   UNL     1       2.561  16.949  19.054  0.00  0.00    +0.000 NA
ATOM     19  H   UNL     1       3.570  16.894  18.924  0.00  0.00    +0.000 HD
ATOM     20  H   UNL     1       2.414  17.443  19.934  0.00  0.00    +0.000 HD
ENDBRANCH  14  18
BRANCH  15  21
ATOM     21  O   UNL     1       2.986  13.380  19.172  0.00  0.00    +0.000 OA
ATOM     22  C   UNL     1       2.529  13.479  17.828  0.00  0.00    +0.000 C 
ENDBRANCH  15  21
ENDBRANCH  10  11
ENDBRANCH   3   5
BRANCH   1  25
ATOM     23  C   UNL     1       2.154   7.669  19.223  0.00  0.00    +0.000 A 
ATOM     24  N   UNL     1       1.765   8.077  20.423  0.00  0.00    +0.000 NA
ATOM     25  C   UNL     1       1.157   9.334  20.332  0.00  0.00    +0.000 A 
ATOM     26  C   UNL     1       1.111   9.855  19.052  0.00  0.00    +0.000 A 
ATOM     27  S   UNL     1       1.775   8.760  17.936  0.00  0.00    +0.000 S 
BRANCH  23  33
ATOM     28  C   UNL     1       4.526   5.029  17.818  0.00  0.00    +0.000 A 
ATOM     29  C   UNL     1       3.982   3.871  18.369  0.00  0.00    +0.000 A 
ATOM     30  C   UNL     1       2.866   3.960  19.203  0.00  0.00    +0.000 A 
ATOM     31  C   UNL     1       2.291   5.201  19.478  0.00  0.00    +0.000 A 
ATOM     32  F   UNL     1       1.209   5.223  20.270  0.00  0.00    +0.000 F 
ATOM     33  C   UNL     1       2.802   6.381  18.934  0.00  0.00    +0.000 A 
ATOM     34  C   UNL     1       3.929   6.268  18.103  0.00  0.00    +0.000 A 
ATOM     35  F   UNL     1       4.490   7.370  17.575  0.00  0.00    +0.000 F 
BRANCH  28  37
ATOM     36  C   UNL     1       6.870   4.686  17.542  0.00  0.00    +0.000 C 
ATOM     37  O   UNL     1       5.619   5.081  16.995  0.00  0.00    +0.000 OA
ENDBRANCH  28  37
ENDBRANCH  23  33
ENDBRANCH   1  25
TORSDOF 7
ENDMDL
MODEL 5
REMARK VINA RESULT:      -7.7      2.232      4.330
REMARK  Name = 
REMARK  10 active torsions:
REMARK  status: ('A' for Active; 'I' for Inactive)
REMARK    1  A    between atoms: C_1  and  O_2
REMARK    2  A    between atoms: O_2  and  C_3
REMARK    3  A    between atoms: C_8  and  C_9
REMARK    4  A    between atoms: C_11  and  C_12
REMARK    5  A    between atoms: N_14  and  C_15
REMARK    6  A    between atoms: N_18  and  C_19
REMARK    7  A    between atoms: C_20  and  C_21
REMARK    8  A    between atoms: C_24  and  N_25
REMARK    9  A    between atoms: C_26  and  O_27
REMARK   10  A    between atoms: O_27  and  C_28
REMARK                            x       y       z     vdW  Elec       q    Type
REMARK                         _______ _______ _______ _____ _____    ______ ____
ROOT
ATOM      1  C   UNL     1       1.724   7.166  19.908  0.00  0.00    +0.000 C 
ATOM      2  O   UNL     1       1.770   7.040  18.684  0.00  0.00    +0.000 OA
ATOM      3  N   UNL     1       1.985   6.160  20.825  0.00  0.00    +0.000 N 
ATOM      4  H   UNL     1       1.907   6.400  21.805  0.00  0.00    +0.000 HD
ENDROOT
BRANCH   3   5
ATOM      5  C   UNL     1       2.390   4.884  20.447  0.00  0.00    +0.000 A 
ATOM      6  C   UNL     1       1.774   3.643  20.730  0.00  0.00    +0.000 A 
ATOM      7  N   UNL     1       2.410   2.612  20.180  0.00  0.00    +0.000 NA
ATOM      8  N   UNL     1       3.445   3.181  19.538  0.00  0.00    +0.000 N 
ATOM      9  C   UNL     1       4.311   2.306  18.782  0.00  0.00    +0.000 C 
ATOM     10  C   UNL     1       3.518   4.550  19.704  0.00  0.00    +0.000 A 
BRANCH  10  11
ATOM     11  C   UNL     1       4.646   5.404  19.197  0.00  0.00    +0.000 C 
ATOM     12  C   UNL     1       4.527   5.745  17.710  0.00  0.00    +0.000 C 
ATOM     13  C   UNL     1       5.402   6.949  17.356  0.00  0.00    +0.000 C 
ATOM     14  C   UNL     1       6.891   6.663  17.086  0.00  0.00    +0.000 C 
ATOM     15  C   UNL     1       7.616   5.641  18.006  0.00  0.00    +0.000 C 
ATOM     16  C   UNL     1       7.032   5.516  19.421  0.00  0.00    +0.000 C 
ATOM     17  O   UNL     1       5.855   4.713  19.482  0.00  0.00    +0.000 OA
BRANCH  14  18
ATOM     18  N   UNL     1       7.595   7.966  17.110  0.00  0.00    +0.000 NA
ATOM     19  H   UNL     1       8.008   8.131  18.026  0.00  0.00    +0.000 HD
ATOM     20  H   UNL     1       6.921   8.718  16.962  0.00  0.00    +0.000 HD
ENDBRANCH  14  18
BRANCH  15  21
ATOM     21  O   UNL     1       7.686   4.377  17.313  0.00  0.00    +0.000 OA
ATOM     22  C   UNL     1       7.282   4.452  15.951  0.00  0.00    +0.000 C 
ENDBRANCH  15  21
ENDBRANCH  10  11
ENDBRANCH   3   5
BRANCH   1  25
ATOM     23  C   UNL     1       0.760  10.611  20.562  0.00  0.00    +0.000 A 
ATOM     24  N   UNL     1       1.052   9.602  19.753  0.00  0.00    +0.000 NA
ATOM     25  C   UNL     1       1.376   8.463  20.499  0.00  0.00    +0.000 A 
ATOM     26  C   UNL     1       1.331   8.646  21.869  0.00  0.00    +0.000 A 
ATOM     27  S   UNL     1       0.828  10.225  22.246  0.00  0.00    +0.000 S 
BRANCH  23  33
ATOM     28  C   UNL     1      -1.301  13.778  20.019  0.00  0.00    +0.000 A 
ATOM     29  C   UNL     1      -0.430  14.522  19.225  0.00  0.00    +0.000 A 
ATOM     30  C   UNL     1       0.820  13.997  18.891  0.00  0.00    +0.000 A 
ATOM     31  C   UNL     1       1.195  12.731  19.341  0.00  0.00    +0.000 A 
ATOM     32  F   UNL     1       2.400  12.272  18.972  0.00  0.00    +0.000 F 
ATOM     33  C   UNL     1       0.344  11.953  20.127  0.00  0.00    +0.000 A 
ATOM     34  C   UNL     1      -0.906  12.503  20.457  0.00  0.00    +0.000 A 
ATOM     35  F   UNL     1      -1.758  11.818  21.239  0.00  0.00    +0.000 F 
BRANCH  28  37
ATOM     36  C   UNL     1      -2.619  15.086  21.514  0.00  0.00    +0.000 C 
ATOM     37  O   UNL     1      -2.546  14.178  20.424  0.00  0.00    +0.000 OA
ENDBRANCH  28  37
ENDBRANCH  23  33
ENDBRANCH   1  25
TORSDOF 7
ENDMDL
MODEL 6
REMARK VINA RESULT:      -7.5      3.960     10.041
REMARK  Name = 
REMARK  10 active torsions:
REMARK  status: ('A' for Active; 'I' for Inactive)
REMARK    1  A    between atoms: C_1  and  O_2
REMARK    2  A    between atoms: O_2  and  C_3
REMARK    3  A    between atoms: C_8  and  C_9
REMARK    4  A    between atoms: C_11  and  C_12
REMARK    5  A    between atoms: N_14  and  C_15
REMARK    6  A    between atoms: N_18  and  C_19
REMARK    7  A    between atoms: C_20  and  C_21
REMARK    8  A    between atoms: C_24  and  N_25
REMARK    9  A    between atoms: C_26  and  O_27
REMARK   10  A    between atoms: O_27  and  C_28
REMARK                            x       y       z     vdW  Elec       q    Type
REMARK                         _______ _______ _______ _____ _____    ______ ____
ROOT
ATOM      1  C   UNL     1       0.433  10.043  21.426  0.00  0.00    +0.000 C 
ATOM      2  O   UNL     1       0.489   9.545  22.550  0.00  0.00    +0.000 OA
ATOM      3  N   UNL     1      -0.200  11.235  21.110  0.00  0.00    +0.000 N 
ATOM      4  H   UNL     1      -0.173  11.527  20.141  0.00  0.00    +0.000 HD
ENDROOT
BRANCH   3   5
ATOM      5  C   UNL     1      -0.807  12.040  22.068  0.00  0.00    +0.000 A 
ATOM      6  C   UNL     1      -1.871  11.721  22.943  0.00  0.00    +0.000 A 
ATOM      7  N   UNL     1      -2.185  12.721  23.763  0.00  0.00    +0.000 NA
ATOM      8  N   UNL     1      -1.324  13.695  23.422  0.00  0.00    +0.000 N 
ATOM      9  C   UNL     1      -1.381  14.920  24.187  0.00  0.00    +0.000 C 
ATOM     10  C   UNL     1      -0.498  13.364  22.366  0.00  0.00    +0.000 A 
BRANCH  10  11
ATOM     11  C   UNL     1       0.461  14.318  21.712  0.00  0.00    +0.000 C 
ATOM     12  C   UNL     1       0.003  14.784  20.328  0.00  0.00    +0.000 C 
ATOM     13  C   UNL     1       0.739  16.059  19.911  0.00  0.00    +0.000 C 
ATOM     14  C   UNL     1       2.139  15.878  19.297  0.00  0.00    +0.000 C 
ATOM     15  C   UNL     1       3.083  14.819  19.931  0.00  0.00    +0.000 C 
ATOM     16  C   UNL     1       2.831  14.538  21.420  0.00  0.00    +0.000 C 
ATOM     17  O   UNL     1       1.725  13.670  21.657  0.00  0.00    +0.000 OA
BRANCH  14  18
ATOM     18  N   UNL     1       2.788  17.210  19.295  0.00  0.00    +0.000 NA
ATOM     19  H   UNL     1       2.444  17.775  20.069  0.00  0.00    +0.000 HD
ATOM     20  H   UNL     1       2.533  17.709  18.443  0.00  0.00    +0.000 HD
ENDBRANCH  14  18
BRANCH  15  21
ATOM     21  O   UNL     1       3.039  13.627  19.119  0.00  0.00    +0.000 OA
ATOM     22  C   UNL     1       3.647  13.785  17.843  0.00  0.00    +0.000 C 
ENDBRANCH  15  21
ENDBRANCH  10  11
ENDBRANCH   3   5
BRANCH   1  25
ATOM     23  C   UNL     1       2.131   7.743  19.179  0.00  0.00    +0.000 A 
ATOM     24  N   UNL     1       1.657   8.098  20.365  0.00  0.00    +0.000 NA
ATOM     25  C   UNL     1       1.075   9.368  20.292  0.00  0.00    +0.000 A 
ATOM     26  C   UNL     1       1.134   9.952  19.040  0.00  0.00    +0.000 A 
ATOM     27  S   UNL     1       1.867   8.902  17.923  0.00  0.00    +0.000 S 
BRANCH  23  33
ATOM     28  C   UNL     1       2.969   4.019  19.117  0.00  0.00    +0.000 A 
ATOM     29  C   UNL     1       4.097   4.020  18.298  0.00  0.00    +0.000 A 
ATOM     30  C   UNL     1       4.560   5.222  17.762  0.00  0.00    +0.000 A 
ATOM     31  C   UNL     1       3.906   6.420  18.049  0.00  0.00    +0.000 A 
ATOM     32  F   UNL     1       4.409   7.546  17.521  0.00  0.00    +0.000 F 
ATOM     33  C   UNL     1       2.781   6.459  18.875  0.00  0.00    +0.000 A 
ATOM     34  C   UNL     1       2.327   5.236  19.398  0.00  0.00    +0.000 A 
ATOM     35  F   UNL     1       1.229   5.201  20.172  0.00  0.00    +0.000 F 
BRANCH  28  37
ATOM     36  C   UNL     1       1.477   2.169  18.922  0.00  0.00    +0.000 C 
ATOM     37  O   UNL     1       2.408   2.913  19.696  0.00  0.00    +0.000 OA
ENDBRANCH  28  37
ENDBRANCH  23  33
ENDBRANCH   1  25
TORSDOF 7
ENDMDL
MODEL 7
REMARK VINA RESULT:      -7.5      2.179      4.193
REMARK  Name = 
REMARK  10 active torsions:
REMARK  status: ('A' for Active; 'I' for Inactive)
REMARK    1  A    between atoms: C_1  and  O_2
REMARK    2  A    between atoms: O_2  and  C_3
REMARK    3  A    between atoms: C_8  and  C_9
REMARK    4  A    between atoms: C_11  and  C_12
REMARK    5  A    between atoms: N_14  and  C_15
REMARK    6  A    between atoms: N_18  and  C_19
REMARK    7  A    between atoms: C_20  and  C_21
REMARK    8  A    between atoms: C_24  and  N_25
REMARK    9  A    between atoms: C_26  and  O_27
REMARK   10  A    between atoms: O_27  and  C_28
REMARK                            x       y       z     vdW  Elec       q    Type
REMARK                         _______ _______ _______ _____ _____    ______ ____
ROOT
ATOM      1  C   UNL     1       1.675   7.460  19.193  0.00  0.00    +0.000 C 
ATOM      2  O   UNL     1       1.826   7.033  18.048  0.00  0.00    +0.000 OA
ATOM      3  N   UNL     1       1.868   6.725  20.351  0.00  0.00    +0.000 N 
ATOM      4  H   UNL     1       1.705   7.200  21.230  0.00  0.00    +0.000 HD
ENDROOT
BRANCH   3   5
ATOM      5  C   UNL     1       2.314   5.408  20.340  0.00  0.00    +0.000 A 
ATOM      6  C   UNL     1       1.667   4.252  20.836  0.00  0.00    +0.000 A 
ATOM      7  N   UNL     1       2.364   3.138  20.629  0.00  0.00    +0.000 NA
ATOM      8  N   UNL     1       3.471   3.568  19.998  0.00  0.00    +0.000 N 
ATOM      9  C   UNL     1       4.423   2.563  19.583  0.00  0.00    +0.000 C 
ATOM     10  C   UNL     1       3.525   4.939  19.840  0.00  0.00    +0.000 A 
BRANCH  10  11
ATOM     11  C   UNL     1       4.708   5.679  19.282  0.00  0.00    +0.000 C 
ATOM     12  C   UNL     1       4.622   5.910  17.773  0.00  0.00    +0.000 C 
ATOM     13  C   UNL     1       5.573   7.026  17.337  0.00  0.00    +0.000 C 
ATOM     14  C   UNL     1       7.044   6.629  17.108  0.00  0.00    +0.000 C 
ATOM     15  C   UNL     1       7.696   5.639  18.114  0.00  0.00    +0.000 C 
ATOM     16  C   UNL     1       7.094   5.661  19.527  0.00  0.00    +0.000 C 
ATOM     17  O   UNL     1       5.869   4.939  19.635  0.00  0.00    +0.000 OA
BRANCH  14  18
ATOM     18  N   UNL     1       7.827   7.884  17.041  0.00  0.00    +0.000 NA
ATOM     19  H   UNL     1       7.323   8.643  17.495  0.00  0.00    +0.000 HD
ATOM     20  H   UNL     1       7.940   8.160  16.065  0.00  0.00    +0.000 HD
ENDBRANCH  14  18
BRANCH  15  21
ATOM     21  O   UNL     1       7.693   4.323  17.521  0.00  0.00    +0.000 OA
ATOM     22  C   UNL     1       7.311   4.317  16.151  0.00  0.00    +0.000 C 
ENDBRANCH  15  21
ENDBRANCH  10  11
ENDBRANCH   3   5
BRANCH   1  25
ATOM     23  C   UNL     1       0.116  10.563  20.272  0.00  0.00    +0.000 A 
ATOM     24  N   UNL     1       0.232   9.243  20.265  0.00  0.00    +0.000 NA
ATOM     25  C   UNL     1       1.268   8.854  19.408  0.00  0.00    +0.000 A 
ATOM     26  C   UNL     1       1.909   9.902  18.774  0.00  0.00    +0.000 A 
ATOM     27  S   UNL     1       1.266  11.391  19.281  0.00  0.00    +0.000 S 
BRANCH  23  33
ATOM     28  C   UNL     1      -2.680  12.949  21.302  0.00  0.00    +0.000 A 
ATOM     29  C   UNL     1      -2.646  12.806  22.688  0.00  0.00    +0.000 A 
ATOM     30  C   UNL     1      -1.732  11.927  23.270  0.00  0.00    +0.000 A 
ATOM     31  C   UNL     1      -0.849  11.199  22.472  0.00  0.00    +0.000 A 
ATOM     32  F   UNL     1       0.019  10.384  23.088  0.00  0.00    +0.000 F 
ATOM     33  C   UNL     1      -0.847  11.325  21.082  0.00  0.00    +0.000 A 
ATOM     34  C   UNL     1      -1.780  12.211  20.516  0.00  0.00    +0.000 A 
ATOM     35  F   UNL     1      -1.852  12.352  19.182  0.00  0.00    +0.000 F 
BRANCH  28  37
ATOM     36  C   UNL     1      -4.865  13.317  20.421  0.00  0.00    +0.000 C 
ATOM     37  O   UNL     1      -3.530  13.766  20.607  0.00  0.00    +0.000 OA
ENDBRANCH  28  37
ENDBRANCH  23  33
ENDBRANCH   1  25
TORSDOF 7
ENDMDL
MODEL 8
REMARK VINA RESULT:      -7.4      3.406      9.184
REMARK  Name = 
REMARK  10 active torsions:
REMARK  status: ('A' for Active; 'I' for Inactive)
REMARK    1  A    between atoms: C_1  and  O_2
REMARK    2  A    between atoms: O_2  and  C_3
REMARK    3  A    between atoms: C_8  and  C_9
REMARK    4  A    between atoms: C_11  and  C_12
REMARK    5  A    between atoms: N_14  and  C_15
REMARK    6  A    between atoms: N_18  and  C_19
REMARK    7  A    between atoms: C_20  and  C_21
REMARK    8  A    between atoms: C_24  and  N_25
REMARK    9  A    between atoms: C_26  and  O_27
REMARK   10  A    between atoms: O_27  and  C_28
REMARK                            x       y       z     vdW  Elec       q    Type
REMARK                         _______ _______ _______ _____ _____    ______ ____
ROOT
ATOM      1  C   UNL     1       1.268  10.366  18.490  0.00  0.00    +0.000 C 
ATOM      2  O   UNL     1       0.357  10.552  17.684  0.00  0.00    +0.000 OA
ATOM      3  N   UNL     1       1.982  11.365  19.135  0.00  0.00    +0.000 N 
ATOM      4  H   UNL     1       2.710  11.070  19.773  0.00  0.00    +0.000 HD
ENDROOT
BRANCH   3   5
ATOM      5  C   UNL     1       1.697  12.716  18.974  0.00  0.00    +0.000 A 
ATOM      6  C   UNL     1       2.430  13.693  18.262  0.00  0.00    +0.000 A 
ATOM      7  N   UNL     1       1.851  14.891  18.280  0.00  0.00    +0.000 NA
ATOM      8  N   UNL     1       0.738  14.696  19.007  0.00  0.00    +0.000 N 
ATOM      9  C   UNL     1      -0.151  15.824  19.166  0.00  0.00    +0.000 C 
ATOM     10  C   UNL     1       0.612  13.412  19.500  0.00  0.00    +0.000 A 
BRANCH  10  11
ATOM     11  C   UNL     1      -0.471  12.970  20.443  0.00  0.00    +0.000 C 
ATOM     12  C   UNL     1      -0.511  13.778  21.742  0.00  0.00    +0.000 C 
ATOM     13  C   UNL     1      -1.862  13.619  22.442  0.00  0.00    +0.000 C 
ATOM     14  C   UNL     1      -2.042  12.363  23.314  0.00  0.00    +0.000 C 
ATOM     15  C   UNL     1      -1.478  11.016  22.780  0.00  0.00    +0.000 C 
ATOM     16  C   UNL     1      -1.397  10.910  21.250  0.00  0.00    +0.000 C 
ATOM     17  O   UNL     1      -0.272  11.585  20.691  0.00  0.00    +0.000 OA
BRANCH  14  18
ATOM     18  N   UNL     1      -3.490  12.236  23.599  0.00  0.00    +0.000 NA
ATOM     19  H   UNL     1      -3.640  11.968  24.570  0.00  0.00    +0.000 HD
ATOM     20  H   UNL     1      -3.883  11.485  23.032  0.00  0.00    +0.000 HD
ENDBRANCH  14  18
BRANCH  15  21
ATOM     21  O   UNL     1      -0.214  10.765  23.429  0.00  0.00    +0.000 OA
ATOM     22  C   UNL     1       0.158   9.392  23.441  0.00  0.00    +0.000 C 
ENDBRANCH  15  21
ENDBRANCH  10  11
ENDBRANCH   3   5
BRANCH   1  25
ATOM     23  C   UNL     1       2.564   6.969  18.562  0.00  0.00    +0.000 A 
ATOM     24  N   UNL     1       2.302   8.118  17.956  0.00  0.00    +0.000 NA
ATOM     25  C   UNL     1       1.670   8.998  18.840  0.00  0.00    +0.000 A 
ATOM     26  C   UNL     1       1.459   8.483  20.106  0.00  0.00    +0.000 A 
ATOM     27  S   UNL     1       2.096   6.912  20.226  0.00  0.00    +0.000 S 
BRANCH  23  33
ATOM     28  C   UNL     1       5.221   4.789  16.901  0.00  0.00    +0.000 A 
ATOM     29  C   UNL     1       4.512   3.602  16.728  0.00  0.00    +0.000 A 
ATOM     30  C   UNL     1       3.190   3.516  17.168  0.00  0.00    +0.000 A 
ATOM     31  C   UNL     1       2.576   4.614  17.770  0.00  0.00    +0.000 A 
ATOM     32  F   UNL     1       1.298   4.478  18.155  0.00  0.00    +0.000 F 
ATOM     33  C   UNL     1       3.251   5.823  17.948  0.00  0.00    +0.000 A 
ATOM     34  C   UNL     1       4.583   5.885  17.505  0.00  0.00    +0.000 A 
ATOM     35  F   UNL     1       5.299   7.009  17.678  0.00  0.00    +0.000 F 
BRANCH  28  37
ATOM     36  C   UNL     1       6.855   4.770  15.164  0.00  0.00    +0.000 C 
ATOM     37  O   UNL     1       6.520   5.002  16.525  0.00  0.00    +0.000 OA
ENDBRANCH  28  37
ENDBRANCH  23  33
ENDBRANCH   1  25
TORSDOF 7
ENDMDL
MODEL 9
REMARK VINA RESULT:      -7.4      2.046      4.363
REMARK  Name = 
REMARK  10 active torsions:
REMARK  status: ('A' for Active; 'I' for Inactive)
REMARK    1  A    between atoms: C_1  and  O_2
REMARK    2  A    between atoms: O_2  and  C_3
REMARK    3  A    between atoms: C_8  and  C_9
REMARK    4  A    between atoms: C_11  and  C_12
REMARK    5  A    between atoms: N_14  and  C_15
REMARK    6  A    between atoms: N_18  and  C_19
REMARK    7  A    between atoms: C_20  and  C_21
REMARK    8  A    between atoms: C_24  and  N_25
REMARK    9  A    between atoms: C_26  and  O_27
REMARK   10  A    between atoms: O_27  and  C_28
REMARK                            x       y       z     vdW  Elec       q    Type
REMARK                         _______ _______ _______ _____ _____    ______ ____
ROOT
ATOM      1  C   UNL     1       2.181   6.971  19.337  0.00  0.00    +0.000 C 
ATOM      2  O   UNL     1       3.020   6.752  20.211  0.00  0.00    +0.000 OA
ATOM      3  N   UNL     1       1.627   6.012  18.503  0.00  0.00    +0.000 N 
ATOM      4  H   UNL     1       0.948   6.331  17.824  0.00  0.00    +0.000 HD
ENDROOT
BRANCH   3   5
ATOM      5  C   UNL     1       1.933   4.659  18.605  0.00  0.00    +0.000 A 
ATOM      6  C   UNL     1       1.254   3.654  19.331  0.00  0.00    +0.000 A 
ATOM      7  N   UNL     1       1.798   2.449  19.181  0.00  0.00    +0.000 NA
ATOM      8  N   UNL     1       2.836   2.669  18.356  0.00  0.00    +0.000 N 
ATOM      9  C   UNL     1       3.611   1.518  17.953  0.00  0.00    +0.000 C 
ATOM     10  C   UNL     1       3.004   3.996  18.013  0.00  0.00    +0.000 A 
BRANCH  10  11
ATOM     11  C   UNL     1       4.160   4.522  17.210  0.00  0.00    +0.000 C 
ATOM     12  C   UNL     1       5.018   3.418  16.590  0.00  0.00    +0.000 C 
ATOM     13  C   UNL     1       5.871   3.970  15.445  0.00  0.00    +0.000 C 
ATOM     14  C   UNL     1       7.190   4.661  15.838  0.00  0.00    +0.000 C 
ATOM     15  C   UNL     1       7.183   5.589  17.085  0.00  0.00    +0.000 C 
ATOM     16  C   UNL     1       5.827   6.236  17.403  0.00  0.00    +0.000 C 
ATOM     17  O   UNL     1       4.921   5.360  18.070  0.00  0.00    +0.000 OA
BRANCH  14  18
ATOM     18  N   UNL     1       7.662   5.403  14.647  0.00  0.00    +0.000 NA
ATOM     19  H   UNL     1       8.386   6.071  14.907  0.00  0.00    +0.000 HD
ATOM     20  H   UNL     1       6.893   5.953  14.263  0.00  0.00    +0.000 HD
ENDBRANCH  14  18
BRANCH  15  21
ATOM     21  O   UNL     1       7.731   4.854  18.200  0.00  0.00    +0.000 OA
ATOM     22  C   UNL     1       7.969   5.657  19.349  0.00  0.00    +0.000 C 
ENDBRANCH  15  21
ENDBRANCH  10  11
ENDBRANCH   3   5
BRANCH   1  25
ATOM     23  C   UNL     1       0.405  10.143  19.424  0.00  0.00    +0.000 A 
ATOM     24  N   UNL     1       0.601   8.891  19.812  0.00  0.00    +0.000 NA
ATOM     25  C   UNL     1       1.684   8.335  19.122  0.00  0.00    +0.000 A 
ATOM     26  C   UNL     1       2.279   9.188  18.211  0.00  0.00    +0.000 A 
ATOM     27  S   UNL     1       1.532  10.713  18.242  0.00  0.00    +0.000 S 
BRANCH  23  33
ATOM     28  C   UNL     1      -1.620  12.349  21.791  0.00  0.00    +0.000 A 
ATOM     29  C   UNL     1      -2.660  12.744  20.952  0.00  0.00    +0.000 A 
ATOM     30  C   UNL     1      -2.684  12.306  19.627  0.00  0.00    +0.000 A 
ATOM     31  C   UNL     1      -1.677  11.471  19.144  0.00  0.00    +0.000 A 
ATOM     32  F   UNL     1      -1.763  11.067  17.868  0.00  0.00    +0.000 F 
ATOM     33  C   UNL     1      -0.626  11.046  19.958  0.00  0.00    +0.000 A 
ATOM     34  C   UNL     1      -0.618  11.504  21.286  0.00  0.00    +0.000 A 
ATOM     35  F   UNL     1       0.384  11.159  22.112  0.00  0.00    +0.000 F 
BRANCH  28  37
ATOM     36  C   UNL     1      -1.079  14.052  23.371  0.00  0.00    +0.000 C 
ATOM     37  O   UNL     1      -1.474  12.713  23.102  0.00  0.00    +0.000 OA
ENDBRANCH  28  37
ENDBRANCH  23  33
ENDBRANCH   1  25
TORSDOF 7
ENDMDL
