MODEL 1
REMARK VINA RESULT:      -7.9      0.000      0.000
REMARK  Name = 
REMARK  12 active torsions:
REMARK  status: ('A' for Active; 'I' for Inactive)
REMARK    1  A    between atoms: C_1  and  C_2
REMARK    2  A    between atoms: C_2  and  C_3
REMARK    3  A    between atoms: C_3  and  C_4
REMARK    4  A    between atoms: C_4  and  C_5
REMARK    5  A    between atoms: C_5  and  N_6
REMARK    6  A    between atoms: C_7  and  C_9
REMARK    7  A    between atoms: C_11  and  C_12
REMARK    8  A    between atoms: C_12  and  C_13
REMARK    9  A    between atoms: C_12  and  C_14
REMARK   10  A    between atoms: C_12  and  C_15
REMARK   11  A    between atoms: C_19  and  C_20
REMARK   12  A    between atoms: C_19  and  C_21
REMARK                            x       y       z     vdW  Elec       q    Type
REMARK                         _______ _______ _______ _____ _____    ______ ____
ROOT
ATOM      1  C   UNL     1       2.745   7.151  18.243  0.00  0.00    +0.000 A 
ATOM      2  C   UNL     1       2.231   5.989  18.845  0.00  0.00    +0.000 A 
ATOM      3  C   UNL     1       2.863   4.721  18.702  0.00  0.00    +0.000 A 
ATOM      4  C   UNL     1       4.028   4.710  17.935  0.00  0.00    +0.000 A 
ATOM      5  C   UNL     1       4.526   5.857  17.347  0.00  0.00    +0.000 A 
ATOM      6  C   UNL     1       3.897   7.085  17.483  0.00  0.00    +0.000 A 
ATOM      7  C   UNL     1       5.756   5.580  16.561  0.00  0.00    +0.000 C 
ATOM      8  C   UNL     1       5.487   5.867  15.080  0.00  0.00    +0.000 C 
ATOM      9  C   UNL     1       6.924   6.392  17.126  0.00  0.00    +0.000 C 
ATOM     10  C   UNL     1       5.903   4.071  16.843  0.00  0.00    +0.000 C 
ATOM     11  O   UNL     1       4.792   3.605  17.651  0.00  0.00    +0.000 OA
ENDROOT
BRANCH   1  13
ATOM     12  N   UNL     1       1.498   8.780  19.550  0.00  0.00    +0.000 N 
ATOM     13  C   UNL     1       2.072   8.465  18.346  0.00  0.00    +0.000 C 
ATOM     14  O   UNL     1       2.085   9.228  17.374  0.00  0.00    +0.000 OA
ATOM     15  H   UNL     1       1.709   8.217  20.363  0.00  0.00    +0.000 HD
BRANCH  12  16
ATOM     16  C   UNL     1       0.880  10.076  19.732  0.00  0.00    +0.000 C 
BRANCH  16  17
ATOM     17  C   UNL     1      -0.388   9.991  20.580  0.00  0.00    +0.000 C 
BRANCH  17  18
ATOM     18  C   UNL     1      -0.228   8.957  21.696  0.00  0.00    +0.000 C 
BRANCH  18  20
ATOM     19  C   UNL     1      -1.154  10.844  23.085  0.00  0.00    +0.000 C 
ATOM     20  C   UNL     1      -0.263   9.611  23.077  0.00  0.00    +0.000 C 
ENDBRANCH  18  20
ENDBRANCH  17  18
ENDBRANCH  16  17
ENDBRANCH  12  16
ENDBRANCH   1  13
BRANCH   3  21
ATOM     21  C   UNL     1       2.260   3.455  19.328  0.00  0.00    +0.000 C 
ATOM     22  C   UNL     1       1.905   2.399  18.246  0.00  0.00    +0.000 C 
ATOM     23  C   UNL     1       3.253   2.825  20.327  0.00  0.00    +0.000 C 
ATOM     24  C   UNL     1       0.958   3.756  20.099  0.00  0.00    +0.000 C 
ENDBRANCH   3  21
TORSDOF 6
ENDMDL
MODEL 2
REMARK VINA RESULT:      -7.9      1.503      2.180
REMARK  Name = 
REMARK  12 active torsions:
REMARK  status: ('A' for Active; 'I' for Inactive)
REMARK    1  A    between atoms: C_1  and  C_2
REMARK    2  A    between atoms: C_2  and  C_3
REMARK    3  A    between atoms: C_3  and  C_4
REMARK    4  A    between atoms: C_4  and  C_5
REMARK    5  A    between atoms: C_5  and  N_6
REMARK    6  A    between atoms: C_7  and  C_9
REMARK    7  A    between atoms: C_11  and  C_12
REMARK    8  A    between atoms: C_12  and  C_13
REMARK    9  A    between atoms: C_12  and  C_14
REMARK   10  A    between atoms: C_12  and  C_15
REMARK   11  A    between atoms: C_19  and  C_20
REMARK   12  A    between atoms: C_19  and  C_21
REMARK                            x       y       z     vdW  Elec       q    Type
REMARK                         _______ _______ _______ _____ _____    ______ ____
ROOT
ATOM      1  C   UNL     1       2.688   7.339  18.227  0.00  0.00    +0.000 A 
ATOM      2  C   UNL     1       2.149   6.209  18.866  0.00  0.00    +0.000 A 
ATOM      3  C   UNL     1       2.763   4.927  18.779  0.00  0.00    +0.000 A 
ATOM      4  C   UNL     1       3.937   4.869  18.028  0.00  0.00    +0.000 A 
ATOM      5  C   UNL     1       4.460   5.985  17.403  0.00  0.00    +0.000 A 
ATOM      6  C   UNL     1       3.849   7.227  17.484  0.00  0.00    +0.000 A 
ATOM      7  C   UNL     1       5.694   5.659  16.644  0.00  0.00    +0.000 C 
ATOM      8  C   UNL     1       5.448   5.893  15.150  0.00  0.00    +0.000 C 
ATOM      9  C   UNL     1       6.868   6.475  17.193  0.00  0.00    +0.000 C 
ATOM     10  C   UNL     1       5.815   4.161  16.986  0.00  0.00    +0.000 C 
ATOM     11  O   UNL     1       4.687   3.743  17.797  0.00  0.00    +0.000 OA
ENDROOT
BRANCH   1  13
ATOM     12  N   UNL     1       1.292   8.960  19.385  0.00  0.00    +0.000 N 
ATOM     13  C   UNL     1       2.035   8.666  18.270  0.00  0.00    +0.000 C 
ATOM     14  O   UNL     1       2.211   9.458  17.338  0.00  0.00    +0.000 OA
ATOM     15  H   UNL     1       1.365   8.367  20.200  0.00  0.00    +0.000 HD
BRANCH  12  16
ATOM     16  C   UNL     1       0.680  10.265  19.514  0.00  0.00    +0.000 C 
BRANCH  16  17
ATOM     17  C   UNL     1      -0.832  10.210  19.308  0.00  0.00    +0.000 C 
BRANCH  17  18
ATOM     18  C   UNL     1      -1.179  10.198  17.818  0.00  0.00    +0.000 C 
BRANCH  18  20
ATOM     19  C   UNL     1      -3.016   9.930  16.114  0.00  0.00    +0.000 C 
ATOM     20  C   UNL     1      -2.645   9.831  17.586  0.00  0.00    +0.000 C 
ENDBRANCH  18  20
ENDBRANCH  17  18
ENDBRANCH  16  17
ENDBRANCH  12  16
ENDBRANCH   1  13
BRANCH   3  21
ATOM     21  C   UNL     1       2.132   3.695  19.445  0.00  0.00    +0.000 C 
ATOM     22  C   UNL     1       1.576   2.700  18.391  0.00  0.00    +0.000 C 
ATOM     23  C   UNL     1       3.176   2.962  20.315  0.00  0.00    +0.000 C 
ATOM     24  C   UNL     1       0.953   4.076  20.363  0.00  0.00    +0.000 C 
ENDBRANCH   3  21
TORSDOF 6
ENDMDL
MODEL 3
REMARK VINA RESULT:      -7.8      0.958      3.711
REMARK  Name = 
REMARK  12 active torsions:
REMARK  status: ('A' for Active; 'I' for Inactive)
REMARK    1  A    between atoms: C_1  and  C_2
REMARK    2  A    between atoms: C_2  and  C_3
REMARK    3  A    between atoms: C_3  and  C_4
REMARK    4  A    between atoms: C_4  and  C_5
REMARK    5  A    between atoms: C_5  and  N_6
REMARK    6  A    between atoms: C_7  and  C_9
REMARK    7  A    between atoms: C_11  and  C_12
REMARK    8  A    between atoms: C_12  and  C_13
REMARK    9  A    between atoms: C_12  and  C_14
REMARK   10  A    between atoms: C_12  and  C_15
REMARK   11  A    between atoms: C_19  and  C_20
REMARK   12  A    between atoms: C_19  and  C_21
REMARK                            x       y       z     vdW  Elec       q    Type
REMARK                         _______ _______ _______ _____ _____    ______ ____
ROOT
ATOM      1  C   UNL     1       2.995   7.099  18.391  0.00  0.00    +0.000 A 
ATOM      2  C   UNL     1       4.354   7.069  18.033  0.00  0.00    +0.000 A 
ATOM      3  C   UNL     1       5.155   5.905  18.205  0.00  0.00    +0.000 A 
ATOM      4  C   UNL     1       4.502   4.795  18.741  0.00  0.00    +0.000 A 
ATOM      5  C   UNL     1       3.165   4.833  19.090  0.00  0.00    +0.000 A 
ATOM      6  C   UNL     1       2.396   5.975  18.930  0.00  0.00    +0.000 A 
ATOM      7  C   UNL     1       2.713   3.540  19.663  0.00  0.00    +0.000 C 
ATOM      8  C   UNL     1       2.302   3.749  21.125  0.00  0.00    +0.000 C 
ATOM      9  C   UNL     1       1.587   2.958  18.803  0.00  0.00    +0.000 C 
ATOM     10  C   UNL     1       4.020   2.733  19.537  0.00  0.00    +0.000 C 
ATOM     11  O   UNL     1       5.075   3.576  19.006  0.00  0.00    +0.000 OA
ENDROOT
BRANCH   1  13
ATOM     12  N   UNL     1       1.449   8.704  19.365  0.00  0.00    +0.000 N 
ATOM     13  C   UNL     1       2.164   8.316  18.262  0.00  0.00    +0.000 C 
ATOM     14  O   UNL     1       2.175   8.945  17.198  0.00  0.00    +0.000 OA
ATOM     15  H   UNL     1       1.650   8.280  20.261  0.00  0.00    +0.000 HD
BRANCH  12  16
ATOM     16  C   UNL     1       0.667   9.921  19.321  0.00  0.00    +0.000 C 
BRANCH  16  17
ATOM     17  C   UNL     1      -0.371   9.975  20.440  0.00  0.00    +0.000 C 
BRANCH  17  18
ATOM     18  C   UNL     1      -0.126   8.866  21.464  0.00  0.00    +0.000 C 
BRANCH  18  20
ATOM     19  C   UNL     1      -0.949  10.732  22.943  0.00  0.00    +0.000 C 
ATOM     20  C   UNL     1      -0.236   9.389  22.896  0.00  0.00    +0.000 C 
ENDBRANCH  18  20
ENDBRANCH  17  18
ENDBRANCH  16  17
ENDBRANCH  12  16
ENDBRANCH   1  13
BRANCH   3  21
ATOM     21  C   UNL     1       6.651   5.907  17.852  0.00  0.00    +0.000 C 
ATOM     22  C   UNL     1       7.530   5.616  19.099  0.00  0.00    +0.000 C 
ATOM     23  C   UNL     1       6.950   4.841  16.776  0.00  0.00    +0.000 C 
ATOM     24  C   UNL     1       7.109   7.269  17.293  0.00  0.00    +0.000 C 
ENDBRANCH   3  21
TORSDOF 6
ENDMDL
MODEL 4
REMARK VINA RESULT:      -7.8      1.134      3.772
REMARK  Name = 
REMARK  12 active torsions:
REMARK  status: ('A' for Active; 'I' for Inactive)
REMARK    1  A    between atoms: C_1  and  C_2
REMARK    2  A    between atoms: C_2  and  C_3
REMARK    3  A    between atoms: C_3  and  C_4
REMARK    4  A    between atoms: C_4  and  C_5
REMARK    5  A    between atoms: C_5  and  N_6
REMARK    6  A    between atoms: C_7  and  C_9
REMARK    7  A    between atoms: C_11  and  C_12
REMARK    8  A    between atoms: C_12  and  C_13
REMARK    9  A    between atoms: C_12  and  C_14
REMARK   10  A    between atoms: C_12  and  C_15
REMARK   11  A    between atoms: C_19  and  C_20
REMARK   12  A    between atoms: C_19  and  C_21
REMARK                            x       y       z     vdW  Elec       q    Type
REMARK                         _______ _______ _______ _____ _____    ______ ____
ROOT
ATOM      1  C   UNL     1       2.624   6.460  18.929  0.00  0.00    +0.000 A 
ATOM      2  C   UNL     1       3.706   6.404  18.032  0.00  0.00    +0.000 A 
ATOM      3  C   UNL     1       4.272   5.169  17.608  0.00  0.00    +0.000 A 
ATOM      4  C   UNL     1       3.678   4.020  18.131  0.00  0.00    +0.000 A 
ATOM      5  C   UNL     1       2.615   4.084  19.012  0.00  0.00    +0.000 A 
ATOM      6  C   UNL     1       2.078   5.293  19.429  0.00  0.00    +0.000 A 
ATOM      7  C   UNL     1       2.182   2.732  19.446  0.00  0.00    +0.000 C 
ATOM      8  C   UNL     1       2.418   2.582  20.953  0.00  0.00    +0.000 C 
ATOM      9  C   UNL     1       0.722   2.503  19.043  0.00  0.00    +0.000 C 
ATOM     10  C   UNL     1       3.157   1.873  18.617  0.00  0.00    +0.000 C 
ATOM     11  O   UNL     1       4.064   2.728  17.874  0.00  0.00    +0.000 OA
ENDROOT
BRANCH   1  13
ATOM     12  N   UNL     1       1.690   7.797  20.734  0.00  0.00    +0.000 N 
ATOM     13  C   UNL     1       2.057   7.738  19.414  0.00  0.00    +0.000 C 
ATOM     14  O   UNL     1       1.974   8.696  18.638  0.00  0.00    +0.000 OA
ATOM     15  H   UNL     1       1.983   7.063  21.364  0.00  0.00    +0.000 HD
BRANCH  12  16
ATOM     16  C   UNL     1       1.188   9.039  21.283  0.00  0.00    +0.000 C 
BRANCH  16  17
ATOM     17  C   UNL     1      -0.165   8.856  21.966  0.00  0.00    +0.000 C 
BRANCH  17  18
ATOM     18  C   UNL     1      -0.244   9.682  23.251  0.00  0.00    +0.000 C 
BRANCH  18  20
ATOM     19  C   UNL     1      -0.728  11.995  22.378  0.00  0.00    +0.000 C 
ATOM     20  C   UNL     1      -1.281  10.799  23.138  0.00  0.00    +0.000 C 
ENDBRANCH  18  20
ENDBRANCH  17  18
ENDBRANCH  16  17
ENDBRANCH  12  16
ENDBRANCH   1  13
BRANCH   3  21
ATOM     21  C   UNL     1       5.484   5.130  16.665  0.00  0.00    +0.000 C 
ATOM     22  C   UNL     1       5.795   6.534  16.079  0.00  0.00    +0.000 C 
ATOM     23  C   UNL     1       6.732   4.619  17.415  0.00  0.00    +0.000 C 
ATOM     24  C   UNL     1       5.250   4.190  15.465  0.00  0.00    +0.000 C 
ENDBRANCH   3  21
TORSDOF 6
ENDMDL
MODEL 5
REMARK VINA RESULT:      -7.7      1.253      3.841
REMARK  Name = 
REMARK  12 active torsions:
REMARK  status: ('A' for Active; 'I' for Inactive)
REMARK    1  A    between atoms: C_1  and  C_2
REMARK    2  A    between atoms: C_2  and  C_3
REMARK    3  A    between atoms: C_3  and  C_4
REMARK    4  A    between atoms: C_4  and  C_5
REMARK    5  A    between atoms: C_5  and  N_6
REMARK    6  A    between atoms: C_7  and  C_9
REMARK    7  A    between atoms: C_11  and  C_12
REMARK    8  A    between atoms: C_12  and  C_13
REMARK    9  A    between atoms: C_12  and  C_14
REMARK   10  A    between atoms: C_12  and  C_15
REMARK   11  A    between atoms: C_19  and  C_20
REMARK   12  A    between atoms: C_19  and  C_21
REMARK                            x       y       z     vdW  Elec       q    Type
REMARK                         _______ _______ _______ _____ _____    ______ ____
ROOT
ATOM      1  C   UNL     1       2.542   6.531  19.215  0.00  0.00    +0.000 A 
ATOM      2  C   UNL     1       3.605   6.491  18.295  0.00  0.00    +0.000 A 
ATOM      3  C   UNL     1       4.197   5.266  17.877  0.00  0.00    +0.000 A 
ATOM      4  C   UNL     1       3.649   4.110  18.432  0.00  0.00    +0.000 A 
ATOM      5  C   UNL     1       2.605   4.157  19.335  0.00  0.00    +0.000 A 
ATOM      6  C   UNL     1       2.042   5.356  19.745  0.00  0.00    +0.000 A 
ATOM      7  C   UNL     1       2.221   2.800  19.800  0.00  0.00    +0.000 C 
ATOM      8  C   UNL     1       2.495   2.682  21.303  0.00  0.00    +0.000 C 
ATOM      9  C   UNL     1       0.760   2.522  19.435  0.00  0.00    +0.000 C 
ATOM     10  C   UNL     1       3.203   1.957  18.963  0.00  0.00    +0.000 C 
ATOM     11  O   UNL     1       4.067   2.825  18.186  0.00  0.00    +0.000 OA
ENDROOT
BRANCH   1  13
ATOM     12  N   UNL     1       1.609   7.869  21.019  0.00  0.00    +0.000 N 
ATOM     13  C   UNL     1       1.950   7.799  19.693  0.00  0.00    +0.000 C 
ATOM     14  O   UNL     1       1.823   8.742  18.904  0.00  0.00    +0.000 OA
ATOM     15  H   UNL     1       1.936   7.153  21.653  0.00  0.00    +0.000 HD
BRANCH  12  16
ATOM     16  C   UNL     1       1.083   9.104  21.560  0.00  0.00    +0.000 C 
BRANCH  16  17
ATOM     17  C   UNL     1      -0.318   8.924  22.139  0.00  0.00    +0.000 C 
BRANCH  17  18
ATOM     18  C   UNL     1      -0.682  10.091  23.059  0.00  0.00    +0.000 C 
BRANCH  18  20
ATOM     19  C   UNL     1      -1.397  12.506  23.020  0.00  0.00    +0.000 C 
ATOM     20  C   UNL     1      -0.563  11.433  22.338  0.00  0.00    +0.000 C 
ENDBRANCH  18  20
ENDBRANCH  17  18
ENDBRANCH  16  17
ENDBRANCH  12  16
ENDBRANCH   1  13
BRANCH   3  21
ATOM     21  C   UNL     1       5.389   5.247  16.907  0.00  0.00    +0.000 C 
ATOM     22  C   UNL     1       6.682   4.742  17.604  0.00  0.00    +0.000 C 
ATOM     23  C   UNL     1       5.086   4.330  15.703  0.00  0.00    +0.000 C 
ATOM     24  C   UNL     1       5.702   6.651  16.350  0.00  0.00    +0.000 C 
ENDBRANCH   3  21
TORSDOF 6
ENDMDL
MODEL 6
REMARK VINA RESULT:      -7.7      0.371      1.115
REMARK  Name = 
REMARK  12 active torsions:
REMARK  status: ('A' for Active; 'I' for Inactive)
REMARK    1  A    between atoms: C_1  and  C_2
REMARK    2  A    between atoms: C_2  and  C_3
REMARK    3  A    between atoms: C_3  and  C_4
REMARK    4  A    between atoms: C_4  and  C_5
REMARK    5  A    between atoms: C_5  and  N_6
REMARK    6  A    between atoms: C_7  and  C_9
REMARK    7  A    between atoms: C_11  and  C_12
REMARK    8  A    between atoms: C_12  and  C_13
REMARK    9  A    between atoms: C_12  and  C_14
REMARK   10  A    between atoms: C_12  and  C_15
REMARK   11  A    between atoms: C_19  and  C_20
REMARK   12  A    between atoms: C_19  and  C_21
REMARK                            x       y       z     vdW  Elec       q    Type
REMARK                         _______ _______ _______ _____ _____    ______ ____
ROOT
ATOM      1  C   UNL     1       2.680   7.259  18.276  0.00  0.00    +0.000 A 
ATOM      2  C   UNL     1       2.160   6.101  18.882  0.00  0.00    +0.000 A 
ATOM      3  C   UNL     1       2.788   4.831  18.750  0.00  0.00    +0.000 A 
ATOM      4  C   UNL     1       3.957   4.812  17.988  0.00  0.00    +0.000 A 
ATOM      5  C   UNL     1       4.462   5.953  17.395  0.00  0.00    +0.000 A 
ATOM      6  C   UNL     1       3.836   7.184  17.521  0.00  0.00    +0.000 A 
ATOM      7  C   UNL     1       5.694   5.667  16.618  0.00  0.00    +0.000 C 
ATOM      8  C   UNL     1       5.433   5.946  15.133  0.00  0.00    +0.000 C 
ATOM      9  C   UNL     1       6.862   6.479  17.183  0.00  0.00    +0.000 C 
ATOM     10  C   UNL     1       5.835   4.160  16.909  0.00  0.00    +0.000 C 
ATOM     11  O   UNL     1       4.719   3.703  17.715  0.00  0.00    +0.000 OA
ENDROOT
BRANCH   1  13
ATOM     12  N   UNL     1       1.464   8.915  19.578  0.00  0.00    +0.000 N 
ATOM     13  C   UNL     1       2.011   8.575  18.367  0.00  0.00    +0.000 C 
ATOM     14  O   UNL     1       2.005   9.320  17.381  0.00  0.00    +0.000 OA
ATOM     15  H   UNL     1       1.692   8.367  20.396  0.00  0.00    +0.000 HD
BRANCH  12  16
ATOM     16  C   UNL     1       0.852  10.215  19.748  0.00  0.00    +0.000 C 
BRANCH  16  17
ATOM     17  C   UNL     1      -0.485  10.125  20.481  0.00  0.00    +0.000 C 
BRANCH  17  18
ATOM     18  C   UNL     1      -0.701  11.350  21.372  0.00  0.00    +0.000 C 
BRANCH  18  20
ATOM     19  C   UNL     1      -0.266   9.601  23.133  0.00  0.00    +0.000 C 
ATOM     20  C   UNL     1      -0.898  10.951  22.835  0.00  0.00    +0.000 C 
ENDBRANCH  18  20
ENDBRANCH  17  18
ENDBRANCH  16  17
ENDBRANCH  12  16
ENDBRANCH   1  13
BRANCH   3  21
ATOM     21  C   UNL     1       2.178   3.570  19.380  0.00  0.00    +0.000 C 
ATOM     22  C   UNL     1       3.210   2.821  20.267  0.00  0.00    +0.000 C 
ATOM     23  C   UNL     1       0.957   3.942  20.249  0.00  0.00    +0.000 C 
ATOM     24  C   UNL     1       1.697   2.567  18.313  0.00  0.00    +0.000 C 
ENDBRANCH   3  21
TORSDOF 6
ENDMDL
MODEL 7
REMARK VINA RESULT:      -7.7      1.725      4.251
REMARK  Name = 
REMARK  12 active torsions:
REMARK  status: ('A' for Active; 'I' for Inactive)
REMARK    1  A    between atoms: C_1  and  C_2
REMARK    2  A    between atoms: C_2  and  C_3
REMARK    3  A    between atoms: C_3  and  C_4
REMARK    4  A    between atoms: C_4  and  C_5
REMARK    5  A    between atoms: C_5  and  N_6
REMARK    6  A    between atoms: C_7  and  C_9
REMARK    7  A    between atoms: C_11  and  C_12
REMARK    8  A    between atoms: C_12  and  C_13
REMARK    9  A    between atoms: C_12  and  C_14
REMARK   10  A    between atoms: C_12  and  C_15
REMARK   11  A    between atoms: C_19  and  C_20
REMARK   12  A    between atoms: C_19  and  C_21
REMARK                            x       y       z     vdW  Elec       q    Type
REMARK                         _______ _______ _______ _____ _____    ______ ____
ROOT
ATOM      1  C   UNL     1       2.920   7.257  18.280  0.00  0.00    +0.000 A 
ATOM      2  C   UNL     1       4.281   7.181  17.936  0.00  0.00    +0.000 A 
ATOM      3  C   UNL     1       5.027   5.976  18.065  0.00  0.00    +0.000 A 
ATOM      4  C   UNL     1       4.319   4.875  18.546  0.00  0.00    +0.000 A 
ATOM      5  C   UNL     1       2.981   4.957  18.882  0.00  0.00    +0.000 A 
ATOM      6  C   UNL     1       2.265   6.139  18.763  0.00  0.00    +0.000 A 
ATOM      7  C   UNL     1       2.464   3.662  19.393  0.00  0.00    +0.000 C 
ATOM      8  C   UNL     1       2.045   3.826  20.858  0.00  0.00    +0.000 C 
ATOM      9  C   UNL     1       1.325   3.170  18.496  0.00  0.00    +0.000 C 
ATOM     10  C   UNL     1       3.736   2.804  19.245  0.00  0.00    +0.000 C 
ATOM     11  O   UNL     1       4.834   3.621  18.763  0.00  0.00    +0.000 OA
ENDROOT
BRANCH   1  13
ATOM     12  N   UNL     1       1.460   8.903  19.317  0.00  0.00    +0.000 N 
ATOM     13  C   UNL     1       2.145   8.514  18.195  0.00  0.00    +0.000 C 
ATOM     14  O   UNL     1       2.175   9.173  17.150  0.00  0.00    +0.000 OA
ATOM     15  H   UNL     1       1.650   8.445  20.198  0.00  0.00    +0.000 HD
BRANCH  12  16
ATOM     16  C   UNL     1       0.735  10.156  19.317  0.00  0.00    +0.000 C 
BRANCH  16  17
ATOM     17  C   UNL     1      -0.769   9.946  19.158  0.00  0.00    +0.000 C 
BRANCH  17  18
ATOM     18  C   UNL     1      -1.225  10.316  17.746  0.00  0.00    +0.000 C 
BRANCH  18  20
ATOM     19  C   UNL     1      -2.949   9.837  15.972  0.00  0.00    +0.000 C 
ATOM     20  C   UNL     1      -2.638   9.807  17.461  0.00  0.00    +0.000 C 
ENDBRANCH  18  20
ENDBRANCH  17  18
ENDBRANCH  16  17
ENDBRANCH  12  16
ENDBRANCH   1  13
BRANCH   3  21
ATOM     21  C   UNL     1       6.525   5.927  17.729  0.00  0.00    +0.000 C 
ATOM     22  C   UNL     1       6.822   4.897  16.605  0.00  0.00    +0.000 C 
ATOM     23  C   UNL     1       7.019   7.316  17.270  0.00  0.00    +0.000 C 
ATOM     24  C   UNL     1       7.376   5.514  18.947  0.00  0.00    +0.000 C 
ENDBRANCH   3  21
TORSDOF 6
ENDMDL
MODEL 8
REMARK VINA RESULT:      -7.7      0.803      3.630
REMARK  Name = 
REMARK  12 active torsions:
REMARK  status: ('A' for Active; 'I' for Inactive)
REMARK    1  A    between atoms: C_1  and  C_2
REMARK    2  A    between atoms: C_2  and  C_3
REMARK    3  A    between atoms: C_3  and  C_4
REMARK    4  A    between atoms: C_4  and  C_5
REMARK    5  A    between atoms: C_5  and  N_6
REMARK    6  A    between atoms: C_7  and  C_9
REMARK    7  A    between atoms: C_11  and  C_12
REMARK    8  A    between atoms: C_12  and  C_13
REMARK    9  A    between atoms: C_12  and  C_14
REMARK   10  A    between atoms: C_12  and  C_15
REMARK   11  A    between atoms: C_19  and  C_20
REMARK   12  A    between atoms: C_19  and  C_21
REMARK                            x       y       z     vdW  Elec       q    Type
REMARK                         _______ _______ _______ _____ _____    ______ ____
ROOT
ATOM      1  C   UNL     1       2.925   6.923  18.214  0.00  0.00    +0.000 A 
ATOM      2  C   UNL     1       4.197   6.751  17.639  0.00  0.00    +0.000 A 
ATOM      3  C   UNL     1       4.873   5.498  17.660  0.00  0.00    +0.000 A 
ATOM      4  C   UNL     1       4.188   4.453  18.280  0.00  0.00    +0.000 A 
ATOM      5  C   UNL     1       2.938   4.630  18.843  0.00  0.00    +0.000 A 
ATOM      6  C   UNL     1       2.293   5.857  18.827  0.00  0.00    +0.000 A 
ATOM      7  C   UNL     1       2.435   3.378  19.463  0.00  0.00    +0.000 C 
ATOM      8  C   UNL     1       2.292   3.584  20.975  0.00  0.00    +0.000 C 
ATOM      9  C   UNL     1       1.126   2.958  18.790  0.00  0.00    +0.000 C 
ATOM     10  C   UNL     1       3.601   2.433  19.113  0.00  0.00    +0.000 C 
ATOM     11  O   UNL     1       4.649   3.168  18.430  0.00  0.00    +0.000 OA
ENDROOT
BRANCH   1  13
ATOM     12  N   UNL     1       1.572   8.565  19.393  0.00  0.00    +0.000 N 
ATOM     13  C   UNL     1       2.233   8.230  18.240  0.00  0.00    +0.000 C 
ATOM     14  O   UNL     1       2.308   8.973  17.255  0.00  0.00    +0.000 OA
ATOM     15  H   UNL     1       1.730   8.021  20.231  0.00  0.00    +0.000 HD
BRANCH  12  16
ATOM     16  C   UNL     1       0.929   9.856  19.502  0.00  0.00    +0.000 C 
BRANCH  16  17
ATOM     17  C   UNL     1       0.765  10.293  20.957  0.00  0.00    +0.000 C 
BRANCH  17  18
ATOM     18  C   UNL     1       0.233   9.143  21.814  0.00  0.00    +0.000 C 
BRANCH  18  20
ATOM     19  C   UNL     1      -1.181  10.760  23.131  0.00  0.00    +0.000 C 
ATOM     20  C   UNL     1      -0.174   9.623  23.207  0.00  0.00    +0.000 C 
ENDBRANCH  18  20
ENDBRANCH  17  18
ENDBRANCH  16  17
ENDBRANCH  12  16
ENDBRANCH   1  13
BRANCH   3  21
ATOM     21  C   UNL     1       6.282   5.343  17.068  0.00  0.00    +0.000 C 
ATOM     22  C   UNL     1       6.263   4.482  15.775  0.00  0.00    +0.000 C 
ATOM     23  C   UNL     1       6.879   6.726  16.733  0.00  0.00    +0.000 C 
ATOM     24  C   UNL     1       7.246   4.648  18.051  0.00  0.00    +0.000 C 
ENDBRANCH   3  21
TORSDOF 6
ENDMDL
MODEL 9
REMARK VINA RESULT:      -7.6      1.342      3.864
REMARK  Name = 
REMARK  12 active torsions:
REMARK  status: ('A' for Active; 'I' for Inactive)
REMARK    1  A    between atoms: C_1  and  C_2
REMARK    2  A    between atoms: C_2  and  C_3
REMARK    3  A    between atoms: C_3  and  C_4
REMARK    4  A    between atoms: C_4  and  C_5
REMARK    5  A    between atoms: C_5  and  N_6
REMARK    6  A    between atoms: C_7  and  C_9
REMARK    7  A    between atoms: C_11  and  C_12
REMARK    8  A    between atoms: C_12  and  C_13
REMARK    9  A    between atoms: C_12  and  C_14
REMARK   10  A    between atoms: C_12  and  C_15
REMARK   11  A    between atoms: C_19  and  C_20
REMARK   12  A    between atoms: C_19  and  C_21
REMARK                            x       y       z     vdW  Elec       q    Type
REMARK                         _______ _______ _______ _____ _____    ______ ____
ROOT
ATOM      1  C   UNL     1       2.501   6.513  19.419  0.00  0.00    +0.000 A 
ATOM      2  C   UNL     1       3.579   6.491  18.516  0.00  0.00    +0.000 A 
ATOM      3  C   UNL     1       4.153   5.274  18.054  0.00  0.00    +0.000 A 
ATOM      4  C   UNL     1       3.573   4.106  18.549  0.00  0.00    +0.000 A 
ATOM      5  C   UNL     1       2.514   4.136  19.437  0.00  0.00    +0.000 A 
ATOM      6  C   UNL     1       1.969   5.327  19.889  0.00  0.00    +0.000 A 
ATOM      7  C   UNL     1       2.095   2.768  19.835  0.00  0.00    +0.000 C 
ATOM      8  C   UNL     1       2.341   2.579  21.336  0.00  0.00    +0.000 C 
ATOM      9  C   UNL     1       0.636   2.537  19.434  0.00  0.00    +0.000 C 
ATOM     10  C   UNL     1       3.074   1.941  18.978  0.00  0.00    +0.000 C 
ATOM     11  O   UNL     1       3.969   2.825  18.254  0.00  0.00    +0.000 OA
ENDROOT
BRANCH   1  13
ATOM     12  N   UNL     1       1.712   7.846  21.295  0.00  0.00    +0.000 N 
ATOM     13  C   UNL     1       1.926   7.772  19.942  0.00  0.00    +0.000 C 
ATOM     14  O   UNL     1       1.701   8.703  19.162  0.00  0.00    +0.000 OA
ATOM     15  H   UNL     1       2.116   7.144  21.900  0.00  0.00    +0.000 HD
BRANCH  12  16
ATOM     16  C   UNL     1       1.210   9.073  21.875  0.00  0.00    +0.000 C 
BRANCH  16  17
ATOM     17  C   UNL     1      -0.306   9.041  22.059  0.00  0.00    +0.000 C 
BRANCH  17  18
ATOM     18  C   UNL     1      -0.750  10.065  23.104  0.00  0.00    +0.000 C 
BRANCH  18  20
ATOM     19  C   UNL     1      -1.335  11.613  21.205  0.00  0.00    +0.000 C 
ATOM     20  C   UNL     1      -0.664  11.492  22.564  0.00  0.00    +0.000 C 
ENDBRANCH  18  20
ENDBRANCH  17  18
ENDBRANCH  16  17
ENDBRANCH  12  16
ENDBRANCH   1  13
BRANCH   3  21
ATOM     21  C   UNL     1       5.360   5.272  17.104  0.00  0.00    +0.000 C 
ATOM     22  C   UNL     1       5.092   4.403  15.845  0.00  0.00    +0.000 C 
ATOM     23  C   UNL     1       5.689   6.710  16.651  0.00  0.00    +0.000 C 
ATOM     24  C   UNL     1       6.624   4.700  17.778  0.00  0.00    +0.000 C 
ENDBRANCH   3  21
TORSDOF 6
ENDMDL
