MODEL 1
REMARK VINA RESULT:      -8.0      0.000      0.000
REMARK  Name = 
REMARK  17 active torsions:
REMARK  status: ('A' for Active; 'I' for Inactive)
REMARK    1  A    between atoms: C_1  and  O_2
REMARK    2  A    between atoms: O_2  and  C_3
REMARK    3  A    between atoms: C_6  and  C_7
REMARK    4  A    between atoms: C_8  and  C_9
REMARK    5  A    between atoms: C_15  and  C_16
REMARK    6  A    between atoms: C_16  and  C_17
REMARK    7  A    between atoms: C_17  and  C_18
REMARK    8  A    between atoms: C_18  and  C_19
REMARK    9  A    between atoms: C_18  and  N_20
REMARK   10  A    between atoms: N_20  and  C_21
REMARK   11  A    between atoms: N_20  and  C_22
REMARK   12  A    between atoms: C_22  and  C_23
REMARK   13  A    between atoms: C_23  and  C_24
REMARK   14  A    between atoms: C_27  and  O_28
REMARK   15  A    between atoms: O_28  and  C_29
REMARK   16  A    between atoms: C_30  and  O_31
REMARK   17  A    between atoms: O_31  and  C_32
REMARK                            x       y       z     vdW  Elec       q    Type
REMARK                         _______ _______ _______ _____ _____    ______ ____
ROOT
ATOM      1  C   UNL     1       5.622   4.036  19.052  0.00  0.00    +0.000 C 
ENDROOT
BRANCH   1   6
ATOM      2  C   UNL     1       2.166   2.677  19.715  0.00  0.00    +0.000 A 
ATOM      3  C   UNL     1       1.690   2.477  18.420  0.00  0.00    +0.000 A 
ATOM      4  C   UNL     1       2.465   2.828  17.308  0.00  0.00    +0.000 A 
ATOM      5  C   UNL     1       3.744   3.373  17.478  0.00  0.00    +0.000 A 
ATOM      6  C   UNL     1       4.231   3.553  18.778  0.00  0.00    +0.000 A 
ATOM      7  C   UNL     1       3.439   3.200  19.885  0.00  0.00    +0.000 A 
BRANCH   2   9
ATOM      8  C   UNL     1       1.483   3.038  21.942  0.00  0.00    +0.000 C 
ATOM      9  O   UNL     1       1.350   2.284  20.739  0.00  0.00    +0.000 OA
ENDBRANCH   2   9
BRANCH   5  10
ATOM     10  C   UNL     1       4.554   3.684  16.342  0.00  0.00    +0.000 C 
ATOM     11  C   UNL     1       5.252   3.898  15.384  0.00  0.00    +0.000 C 
BRANCH  11  12
ATOM     12  C   UNL     1       6.048   4.175  14.231  0.00  0.00    +0.000 A 
ATOM     13  C   UNL     1       7.063   5.127  14.330  0.00  0.00    +0.000 A 
ATOM     14  C   UNL     1       7.858   5.432  13.226  0.00  0.00    +0.000 A 
ATOM     15  C   UNL     1       7.640   4.773  12.012  0.00  0.00    +0.000 A 
ATOM     16  C   UNL     1       6.626   3.821  11.907  0.00  0.00    +0.000 A 
ATOM     17  C   UNL     1       5.826   3.519  13.014  0.00  0.00    +0.000 A 
ENDBRANCH  11  12
ENDBRANCH   5  10
ENDBRANCH   1   6
BRANCH   1  18
ATOM     18  C   UNL     1       5.794   5.548  19.062  0.00  0.00    +0.000 C 
BRANCH  18  19
ATOM     19  C   UNL     1       7.079   6.033  18.342  0.00  0.00    +0.000 C 
ATOM     20  C   UNL     1       7.825   4.794  17.802  0.00  0.00    +0.000 C 
BRANCH  19  21
ATOM     21  N   UNL     1       6.931   7.047  17.269  0.00  0.00    +0.000 NA
ATOM     22  C   UNL     1       5.533   7.243  16.863  0.00  0.00    +0.000 C 
BRANCH  21  23
ATOM     23  C   UNL     1       7.571   8.362  17.495  0.00  0.00    +0.000 C 
BRANCH  23  24
ATOM     24  C   UNL     1       8.609   8.462  18.634  0.00  0.00    +0.000 C 
BRANCH  24  25
ATOM     25  C   UNL     1       9.023   9.901  18.855  0.00  0.00    +0.000 A 
ATOM     26  C   UNL     1       9.718  10.303  19.999  0.00  0.00    +0.000 A 
ATOM     27  C   UNL     1       9.989  11.654  20.215  0.00  0.00    +0.000 A 
ATOM     28  C   UNL     1       9.596  12.624  19.285  0.00  0.00    +0.000 A 
ATOM     29  C   UNL     1       8.903  12.234  18.126  0.00  0.00    +0.000 A 
ATOM     30  C   UNL     1       8.632  10.873  17.927  0.00  0.00    +0.000 A 
BRANCH  28  31
ATOM     31  O   UNL     1       9.899  13.903  19.678  0.00  0.00    +0.000 OA
ATOM     32  C   UNL     1      11.157  14.412  19.254  0.00  0.00    +0.000 C 
ENDBRANCH  28  31
BRANCH  29  33
ATOM     33  O   UNL     1       8.482  13.203  17.255  0.00  0.00    +0.000 OA
ATOM     34  C   UNL     1       7.231  13.824  17.526  0.00  0.00    +0.000 C 
ENDBRANCH  29  33
ENDBRANCH  24  25
ENDBRANCH  23  24
ENDBRANCH  21  23
ENDBRANCH  19  21
ENDBRANCH  18  19
ENDBRANCH   1  18
TORSDOF 12
ENDMDL
MODEL 2
REMARK VINA RESULT:      -7.5      0.975      1.605
REMARK  Name = 
REMARK  17 active torsions:
REMARK  status: ('A' for Active; 'I' for Inactive)
REMARK    1  A    between atoms: C_1  and  O_2
REMARK    2  A    between atoms: O_2  and  C_3
REMARK    3  A    between atoms: C_6  and  C_7
REMARK    4  A    between atoms: C_8  and  C_9
REMARK    5  A    between atoms: C_15  and  C_16
REMARK    6  A    between atoms: C_16  and  C_17
REMARK    7  A    between atoms: C_17  and  C_18
REMARK    8  A    between atoms: C_18  and  C_19
REMARK    9  A    between atoms: C_18  and  N_20
REMARK   10  A    between atoms: N_20  and  C_21
REMARK   11  A    between atoms: N_20  and  C_22
REMARK   12  A    between atoms: C_22  and  C_23
REMARK   13  A    between atoms: C_23  and  C_24
REMARK   14  A    between atoms: C_27  and  O_28
REMARK   15  A    between atoms: O_28  and  C_29
REMARK   16  A    between atoms: C_30  and  O_31
REMARK   17  A    between atoms: O_31  and  C_32
REMARK                            x       y       z     vdW  Elec       q    Type
REMARK                         _______ _______ _______ _____ _____    ______ ____
ROOT
ATOM      1  C   UNL     1       5.632   4.223  19.093  0.00  0.00    +0.000 C 
ENDROOT
BRANCH   1   6
ATOM      2  C   UNL     1       2.243   2.697  19.733  0.00  0.00    +0.000 A 
ATOM      3  C   UNL     1       1.812   2.416  18.437  0.00  0.00    +0.000 A 
ATOM      4  C   UNL     1       2.596   2.763  17.330  0.00  0.00    +0.000 A 
ATOM      5  C   UNL     1       3.836   3.388  17.506  0.00  0.00    +0.000 A 
ATOM      6  C   UNL     1       4.278   3.650  18.808  0.00  0.00    +0.000 A 
ATOM      7  C   UNL     1       3.479   3.299  19.910  0.00  0.00    +0.000 A 
BRANCH   2   9
ATOM      8  C   UNL     1       1.501   3.097  21.935  0.00  0.00    +0.000 C 
ATOM      9  O   UNL     1       1.423   2.301  20.753  0.00  0.00    +0.000 OA
ENDBRANCH   2   9
BRANCH   5  10
ATOM     10  C   UNL     1       4.657   3.696  16.377  0.00  0.00    +0.000 C 
ATOM     11  C   UNL     1       5.337   3.911  15.406  0.00  0.00    +0.000 C 
BRANCH  11  12
ATOM     12  C   UNL     1       6.128   4.206  14.254  0.00  0.00    +0.000 A 
ATOM     13  C   UNL     1       5.851   3.539  13.061  0.00  0.00    +0.000 A 
ATOM     14  C   UNL     1       6.604   3.793  11.916  0.00  0.00    +0.000 A 
ATOM     15  C   UNL     1       7.642   4.729  11.963  0.00  0.00    +0.000 A 
ATOM     16  C   UNL     1       7.925   5.399  13.153  0.00  0.00    +0.000 A 
ATOM     17  C   UNL     1       7.171   5.140  14.302  0.00  0.00    +0.000 A 
ENDBRANCH  11  12
ENDBRANCH   5  10
ENDBRANCH   1   6
BRANCH   1  18
ATOM     18  C   UNL     1       5.730   5.738  18.990  0.00  0.00    +0.000 C 
BRANCH  18  19
ATOM     19  C   UNL     1       7.061   6.234  18.367  0.00  0.00    +0.000 C 
ATOM     20  C   UNL     1       7.894   4.999  17.963  0.00  0.00    +0.000 C 
BRANCH  19  21
ATOM     21  N   UNL     1       6.981   7.189  17.234  0.00  0.00    +0.000 NA
ATOM     22  C   UNL     1       5.608   7.387  16.754  0.00  0.00    +0.000 C 
BRANCH  21  23
ATOM     23  C   UNL     1       7.637   8.503  17.415  0.00  0.00    +0.000 C 
BRANCH  23  24
ATOM     24  C   UNL     1       8.567   8.672  18.637  0.00  0.00    +0.000 C 
BRANCH  24  25
ATOM     25  C   UNL     1       9.125  10.077  18.694  0.00  0.00    +0.000 A 
ATOM     26  C   UNL     1      10.068  10.537  17.770  0.00  0.00    +0.000 A 
ATOM     27  C   UNL     1      10.634  11.803  17.919  0.00  0.00    +0.000 A 
ATOM     28  C   UNL     1      10.255  12.642  18.975  0.00  0.00    +0.000 A 
ATOM     29  C   UNL     1       9.302  12.196  19.907  0.00  0.00    +0.000 A 
ATOM     30  C   UNL     1       8.747  10.918  19.747  0.00  0.00    +0.000 A 
BRANCH  28  31
ATOM     31  O   UNL     1      10.945  13.827  18.997  0.00  0.00    +0.000 OA
ATOM     32  C   UNL     1      10.454  14.860  18.153  0.00  0.00    +0.000 C 
ENDBRANCH  28  31
BRANCH  29  33
ATOM     33  O   UNL     1       8.983  13.010  20.960  0.00  0.00    +0.000 OA
ATOM     34  C   UNL     1       9.217  12.504  22.270  0.00  0.00    +0.000 C 
ENDBRANCH  29  33
ENDBRANCH  24  25
ENDBRANCH  23  24
ENDBRANCH  21  23
ENDBRANCH  19  21
ENDBRANCH  18  19
ENDBRANCH   1  18
TORSDOF 12
ENDMDL
MODEL 3
REMARK VINA RESULT:      -7.2      6.353      7.574
REMARK  Name = 
REMARK  17 active torsions:
REMARK  status: ('A' for Active; 'I' for Inactive)
REMARK    1  A    between atoms: C_1  and  O_2
REMARK    2  A    between atoms: O_2  and  C_3
REMARK    3  A    between atoms: C_6  and  C_7
REMARK    4  A    between atoms: C_8  and  C_9
REMARK    5  A    between atoms: C_15  and  C_16
REMARK    6  A    between atoms: C_16  and  C_17
REMARK    7  A    between atoms: C_17  and  C_18
REMARK    8  A    between atoms: C_18  and  C_19
REMARK    9  A    between atoms: C_18  and  N_20
REMARK   10  A    between atoms: N_20  and  C_21
REMARK   11  A    between atoms: N_20  and  C_22
REMARK   12  A    between atoms: C_22  and  C_23
REMARK   13  A    between atoms: C_23  and  C_24
REMARK   14  A    between atoms: C_27  and  O_28
REMARK   15  A    between atoms: O_28  and  C_29
REMARK   16  A    between atoms: C_30  and  O_31
REMARK   17  A    between atoms: O_31  and  C_32
REMARK                            x       y       z     vdW  Elec       q    Type
REMARK                         _______ _______ _______ _____ _____    ______ ____
ROOT
ATOM      1  C   UNL     1       3.547   6.211  18.145  0.00  0.00    +0.000 C 
ENDROOT
BRANCH   1   6
ATOM      2  C   UNL     1       2.950   3.481  20.679  0.00  0.00    +0.000 A 
ATOM      3  C   UNL     1       3.562   2.390  20.065  0.00  0.00    +0.000 A 
ATOM      4  C   UNL     1       4.136   2.510  18.793  0.00  0.00    +0.000 A 
ATOM      5  C   UNL     1       4.119   3.738  18.120  0.00  0.00    +0.000 A 
ATOM      6  C   UNL     1       3.524   4.839  18.747  0.00  0.00    +0.000 A 
ATOM      7  C   UNL     1       2.947   4.703  20.022  0.00  0.00    +0.000 A 
BRANCH   2   9
ATOM      8  C   UNL     1       1.201   2.565  21.967  0.00  0.00    +0.000 C 
ATOM      9  O   UNL     1       2.437   3.277  21.929  0.00  0.00    +0.000 OA
ENDBRANCH   2   9
BRANCH   5  10
ATOM     10  C   UNL     1       4.749   3.872  16.845  0.00  0.00    +0.000 C 
ATOM     11  C   UNL     1       5.292   4.032  15.781  0.00  0.00    +0.000 C 
BRANCH  11  12
ATOM     12  C   UNL     1       5.953   4.184  14.523  0.00  0.00    +0.000 A 
ATOM     13  C   UNL     1       5.465   3.483  13.421  0.00  0.00    +0.000 A 
ATOM     14  C   UNL     1       6.085   3.598  12.178  0.00  0.00    +0.000 A 
ATOM     15  C   UNL     1       7.202   4.427  12.035  0.00  0.00    +0.000 A 
ATOM     16  C   UNL     1       7.695   5.129  13.135  0.00  0.00    +0.000 A 
ATOM     17  C   UNL     1       7.074   5.010  14.382  0.00  0.00    +0.000 A 
ENDBRANCH  11  12
ENDBRANCH   5  10
ENDBRANCH   1   6
BRANCH   1  18
ATOM     18  C   UNL     1       2.202   6.922  18.100  0.00  0.00    +0.000 C 
BRANCH  18  19
ATOM     19  C   UNL     1       2.221   8.330  18.749  0.00  0.00    +0.000 C 
ATOM     20  C   UNL     1       2.228   9.382  17.620  0.00  0.00    +0.000 C 
BRANCH  19  21
ATOM     21  N   UNL     1       1.162   8.650  19.738  0.00  0.00    +0.000 NA
ATOM     22  C   UNL     1       1.352   7.958  21.019  0.00  0.00    +0.000 C 
BRANCH  21  23
ATOM     23  C   UNL     1       0.884  10.082  19.986  0.00  0.00    +0.000 C 
BRANCH  23  24
ATOM     24  C   UNL     1      -0.493  10.627  19.548  0.00  0.00    +0.000 C 
BRANCH  24  25
ATOM     25  C   UNL     1      -1.139  11.411  20.668  0.00  0.00    +0.000 A 
ATOM     26  C   UNL     1      -0.687  11.326  21.988  0.00  0.00    +0.000 A 
ATOM     27  C   UNL     1      -1.374  11.983  23.008  0.00  0.00    +0.000 A 
ATOM     28  C   UNL     1      -2.508  12.756  22.729  0.00  0.00    +0.000 A 
ATOM     29  C   UNL     1      -2.970  12.858  21.406  0.00  0.00    +0.000 A 
ATOM     30  C   UNL     1      -2.272  12.186  20.393  0.00  0.00    +0.000 A 
BRANCH  28  31
ATOM     31  O   UNL     1      -3.086  13.291  23.853  0.00  0.00    +0.000 OA
ATOM     32  C   UNL     1      -4.119  12.525  24.457  0.00  0.00    +0.000 C 
ENDBRANCH  28  31
BRANCH  29  33
ATOM     33  O   UNL     1      -4.110  13.576  21.162  0.00  0.00    +0.000 OA
ATOM     34  C   UNL     1      -4.963  13.112  20.122  0.00  0.00    +0.000 C 
ENDBRANCH  29  33
ENDBRANCH  24  25
ENDBRANCH  23  24
ENDBRANCH  21  23
ENDBRANCH  19  21
ENDBRANCH  18  19
ENDBRANCH   1  18
TORSDOF 12
ENDMDL
MODEL 4
REMARK VINA RESULT:      -7.2      6.129      7.936
REMARK  Name = 
REMARK  17 active torsions:
REMARK  status: ('A' for Active; 'I' for Inactive)
REMARK    1  A    between atoms: C_1  and  O_2
REMARK    2  A    between atoms: O_2  and  C_3
REMARK    3  A    between atoms: C_6  and  C_7
REMARK    4  A    between atoms: C_8  and  C_9
REMARK    5  A    between atoms: C_15  and  C_16
REMARK    6  A    between atoms: C_16  and  C_17
REMARK    7  A    between atoms: C_17  and  C_18
REMARK    8  A    between atoms: C_18  and  C_19
REMARK    9  A    between atoms: C_18  and  N_20
REMARK   10  A    between atoms: N_20  and  C_21
REMARK   11  A    between atoms: N_20  and  C_22
REMARK   12  A    between atoms: C_22  and  C_23
REMARK   13  A    between atoms: C_23  and  C_24
REMARK   14  A    between atoms: C_27  and  O_28
REMARK   15  A    between atoms: O_28  and  C_29
REMARK   16  A    between atoms: C_30  and  O_31
REMARK   17  A    between atoms: O_31  and  C_32
REMARK                            x       y       z     vdW  Elec       q    Type
REMARK                         _______ _______ _______ _____ _____    ______ ____
ROOT
ATOM      1  C   UNL     1       3.159   6.067  17.980  0.00  0.00    +0.000 C 
ENDROOT
BRANCH   1   6
ATOM      2  C   UNL     1       1.668   3.087  19.748  0.00  0.00    +0.000 A 
ATOM      3  C   UNL     1       2.214   2.029  19.024  0.00  0.00    +0.000 A 
ATOM      4  C   UNL     1       3.037   2.266  17.916  0.00  0.00    +0.000 A 
ATOM      5  C   UNL     1       3.340   3.576  17.525  0.00  0.00    +0.000 A 
ATOM      6  C   UNL     1       2.810   4.639  18.266  0.00  0.00    +0.000 A 
ATOM      7  C   UNL     1       1.981   4.385  19.373  0.00  0.00    +0.000 A 
BRANCH   2   9
ATOM      8  C   UNL     1       1.618   2.429  22.011  0.00  0.00    +0.000 C 
ATOM      9  O   UNL     1       0.895   2.761  20.827  0.00  0.00    +0.000 OA
ENDBRANCH   2   9
BRANCH   5  10
ATOM     10  C   UNL     1       4.221   3.817  16.425  0.00  0.00    +0.000 C 
ATOM     11  C   UNL     1       4.985   4.056  15.525  0.00  0.00    +0.000 C 
BRANCH  11  12
ATOM     12  C   UNL     1       5.895   4.298  14.451  0.00  0.00    +0.000 A 
ATOM     13  C   UNL     1       5.694   3.638  13.239  0.00  0.00    +0.000 A 
ATOM     14  C   UNL     1       6.564   3.841  12.170  0.00  0.00    +0.000 A 
ATOM     15  C   UNL     1       7.643   4.718  12.311  0.00  0.00    +0.000 A 
ATOM     16  C   UNL     1       7.850   5.381  13.521  0.00  0.00    +0.000 A 
ATOM     17  C   UNL     1       6.979   5.173  14.595  0.00  0.00    +0.000 A 
ENDBRANCH  11  12
ENDBRANCH   5  10
ENDBRANCH   1   6
BRANCH   1  18
ATOM     18  C   UNL     1       3.178   6.986  19.193  0.00  0.00    +0.000 C 
BRANCH  18  19
ATOM     19  C   UNL     1       1.827   7.699  19.454  0.00  0.00    +0.000 C 
ATOM     20  C   UNL     1       1.481   7.544  20.951  0.00  0.00    +0.000 C 
BRANCH  19  21
ATOM     21  N   UNL     1       1.705   9.121  19.047  0.00  0.00    +0.000 NA
ATOM     22  C   UNL     1       1.793   9.306  17.593  0.00  0.00    +0.000 C 
BRANCH  21  23
ATOM     23  C   UNL     1       0.545   9.874  19.573  0.00  0.00    +0.000 C 
BRANCH  23  24
ATOM     24  C   UNL     1       0.037  11.071  18.740  0.00  0.00    +0.000 C 
BRANCH  24  25
ATOM     25  C   UNL     1      -1.464  11.003  18.565  0.00  0.00    +0.000 A 
ATOM     26  C   UNL     1      -2.064  10.130  17.652  0.00  0.00    +0.000 A 
ATOM     27  C   UNL     1      -3.443  10.171  17.446  0.00  0.00    +0.000 A 
ATOM     28  C   UNL     1      -4.251  11.064  18.161  0.00  0.00    +0.000 A 
ATOM     29  C   UNL     1      -3.663  11.942  19.088  0.00  0.00    +0.000 A 
ATOM     30  C   UNL     1      -2.275  11.893  19.278  0.00  0.00    +0.000 A 
BRANCH  28  31
ATOM     31  O   UNL     1      -5.573  11.003  17.799  0.00  0.00    +0.000 OA
ATOM     32  C   UNL     1      -6.448  10.353  18.712  0.00  0.00    +0.000 C 
ENDBRANCH  28  31
BRANCH  29  33
ATOM     33  O   UNL     1      -4.464  12.842  19.739  0.00  0.00    +0.000 OA
ATOM     34  C   UNL     1      -3.858  13.646  20.744  0.00  0.00    +0.000 C 
ENDBRANCH  29  33
ENDBRANCH  24  25
ENDBRANCH  23  24
ENDBRANCH  21  23
ENDBRANCH  19  21
ENDBRANCH  18  19
ENDBRANCH   1  18
TORSDOF 12
ENDMDL
MODEL 5
REMARK VINA RESULT:      -7.1      3.539      6.151
REMARK  Name = 
REMARK  17 active torsions:
REMARK  status: ('A' for Active; 'I' for Inactive)
REMARK    1  A    between atoms: C_1  and  O_2
REMARK    2  A    between atoms: O_2  and  C_3
REMARK    3  A    between atoms: C_6  and  C_7
REMARK    4  A    between atoms: C_8  and  C_9
REMARK    5  A    between atoms: C_15  and  C_16
REMARK    6  A    between atoms: C_16  and  C_17
REMARK    7  A    between atoms: C_17  and  C_18
REMARK    8  A    between atoms: C_18  and  C_19
REMARK    9  A    between atoms: C_18  and  N_20
REMARK   10  A    between atoms: N_20  and  C_21
REMARK   11  A    between atoms: N_20  and  C_22
REMARK   12  A    between atoms: C_22  and  C_23
REMARK   13  A    between atoms: C_23  and  C_24
REMARK   14  A    between atoms: C_27  and  O_28
REMARK   15  A    between atoms: O_28  and  C_29
REMARK   16  A    between atoms: C_30  and  O_31
REMARK   17  A    between atoms: O_31  and  C_32
REMARK                            x       y       z     vdW  Elec       q    Type
REMARK                         _______ _______ _______ _____ _____    ______ ____
ROOT
ATOM      1  C   UNL     1       3.751   6.564  19.046  0.00  0.00    +0.000 C 
ENDROOT
BRANCH   1   6
ATOM      2  C   UNL     1       2.837   2.945  19.596  0.00  0.00    +0.000 A 
ATOM      3  C   UNL     1       1.690   3.061  20.379  0.00  0.00    +0.000 A 
ATOM      4  C   UNL     1       1.222   4.317  20.784  0.00  0.00    +0.000 A 
ATOM      5  C   UNL     1       1.892   5.484  20.395  0.00  0.00    +0.000 A 
ATOM      6  C   UNL     1       3.030   5.368  19.590  0.00  0.00    +0.000 A 
ATOM      7  C   UNL     1       3.492   4.100  19.194  0.00  0.00    +0.000 A 
BRANCH   2   9
ATOM      8  C   UNL     1       3.598   1.538  17.864  0.00  0.00    +0.000 C 
ATOM      9  O   UNL     1       3.207   1.682  19.229  0.00  0.00    +0.000 OA
ENDBRANCH   2   9
BRANCH   5  10
ATOM     10  C   UNL     1       1.384   6.767  20.768  0.00  0.00    +0.000 C 
ATOM     11  C   UNL     1       0.910   7.829  21.083  0.00  0.00    +0.000 C 
BRANCH  11  12
ATOM     12  C   UNL     1       0.380   9.094  21.484  0.00  0.00    +0.000 A 
ATOM     13  C   UNL     1       0.675  10.218  20.713  0.00  0.00    +0.000 A 
ATOM     14  C   UNL     1       0.184  11.472  21.074  0.00  0.00    +0.000 A 
ATOM     15  C   UNL     1      -0.616  11.601  22.213  0.00  0.00    +0.000 A 
ATOM     16  C   UNL     1      -0.914  10.480  22.988  0.00  0.00    +0.000 A 
ATOM     17  C   UNL     1      -0.416   9.223  22.627  0.00  0.00    +0.000 A 
ENDBRANCH  11  12
ENDBRANCH   5  10
ENDBRANCH   1   6
BRANCH   1  18
ATOM     18  C   UNL     1       3.942   6.575  17.536  0.00  0.00    +0.000 C 
BRANCH  18  19
ATOM     19  C   UNL     1       5.371   6.176  17.087  0.00  0.00    +0.000 C 
ATOM     20  C   UNL     1       5.591   6.705  15.654  0.00  0.00    +0.000 C 
BRANCH  19  21
ATOM     21  N   UNL     1       6.506   6.574  17.957  0.00  0.00    +0.000 NA
ATOM     22  C   UNL     1       7.371   5.442  18.314  0.00  0.00    +0.000 C 
BRANCH  21  23
ATOM     23  C   UNL     1       7.338   7.708  17.500  0.00  0.00    +0.000 C 
BRANCH  23  24
ATOM     24  C   UNL     1       8.507   8.145  18.410  0.00  0.00    +0.000 C 
BRANCH  24  25
ATOM     25  C   UNL     1       8.608   9.654  18.464  0.00  0.00    +0.000 A 
ATOM     26  C   UNL     1       8.070  10.468  17.464  0.00  0.00    +0.000 A 
ATOM     27  C   UNL     1       8.274  11.848  17.497  0.00  0.00    +0.000 A 
ATOM     28  C   UNL     1       8.996  12.442  18.539  0.00  0.00    +0.000 A 
ATOM     29  C   UNL     1       9.536  11.637  19.557  0.00  0.00    +0.000 A 
ATOM     30  C   UNL     1       9.328  10.252  19.505  0.00  0.00    +0.000 A 
BRANCH  28  31
ATOM     31  O   UNL     1       9.142  13.799  18.390  0.00  0.00    +0.000 OA
ATOM     32  C   UNL     1       7.958  14.534  18.111  0.00  0.00    +0.000 C 
ENDBRANCH  28  31
BRANCH  29  33
ATOM     33  O   UNL     1      10.283  12.233  20.538  0.00  0.00    +0.000 OA
ATOM     34  C   UNL     1       9.704  12.321  21.835  0.00  0.00    +0.000 C 
ENDBRANCH  29  33
ENDBRANCH  24  25
ENDBRANCH  23  24
ENDBRANCH  21  23
ENDBRANCH  19  21
ENDBRANCH  18  19
ENDBRANCH   1  18
TORSDOF 12
ENDMDL
MODEL 6
REMARK VINA RESULT:      -7.0      6.111      7.770
REMARK  Name = 
REMARK  17 active torsions:
REMARK  status: ('A' for Active; 'I' for Inactive)
REMARK    1  A    between atoms: C_1  and  O_2
REMARK    2  A    between atoms: O_2  and  C_3
REMARK    3  A    between atoms: C_6  and  C_7
REMARK    4  A    between atoms: C_8  and  C_9
REMARK    5  A    between atoms: C_15  and  C_16
REMARK    6  A    between atoms: C_16  and  C_17
REMARK    7  A    between atoms: C_17  and  C_18
REMARK    8  A    between atoms: C_18  and  C_19
REMARK    9  A    between atoms: C_18  and  N_20
REMARK   10  A    between atoms: N_20  and  C_21
REMARK   11  A    between atoms: N_20  and  C_22
REMARK   12  A    between atoms: C_22  and  C_23
REMARK   13  A    between atoms: C_23  and  C_24
REMARK   14  A    between atoms: C_27  and  O_28
REMARK   15  A    between atoms: O_28  and  C_29
REMARK   16  A    between atoms: C_30  and  O_31
REMARK   17  A    between atoms: O_31  and  C_32
REMARK                            x       y       z     vdW  Elec       q    Type
REMARK                         _______ _______ _______ _____ _____    ______ ____
ROOT
ATOM      1  C   UNL     1       3.314   5.980  18.051  0.00  0.00    +0.000 C 
ENDROOT
BRANCH   1   6
ATOM      2  C   UNL     1       3.130   3.298  20.697  0.00  0.00    +0.000 A 
ATOM      3  C   UNL     1       3.959   2.316  20.159  0.00  0.00    +0.000 A 
ATOM      4  C   UNL     1       4.553   2.487  18.903  0.00  0.00    +0.000 A 
ATOM      5  C   UNL     1       4.336   3.660  18.169  0.00  0.00    +0.000 A 
ATOM      6  C   UNL     1       3.521   4.656  18.719  0.00  0.00    +0.000 A 
ATOM      7  C   UNL     1       2.927   4.468  19.980  0.00  0.00    +0.000 A 
BRANCH   2   9
ATOM      8  C   UNL     1       1.274   2.559  21.949  0.00  0.00    +0.000 C 
ATOM      9  O   UNL     1       2.611   3.055  21.938  0.00  0.00    +0.000 OA
ENDBRANCH   2   9
BRANCH   5  10
ATOM     10  C   UNL     1       4.984   3.855  16.910  0.00  0.00    +0.000 C 
ATOM     11  C   UNL     1       5.497   3.987  15.828  0.00  0.00    +0.000 C 
BRANCH  11  12
ATOM     12  C   UNL     1       6.108   4.185  14.552  0.00  0.00    +0.000 A 
ATOM     13  C   UNL     1       5.613   3.482  13.454  0.00  0.00    +0.000 A 
ATOM     14  C   UNL     1       6.185   3.642  12.194  0.00  0.00    +0.000 A 
ATOM     15  C   UNL     1       7.262   4.519  12.028  0.00  0.00    +0.000 A 
ATOM     16  C   UNL     1       7.763   5.224  13.123  0.00  0.00    +0.000 A 
ATOM     17  C   UNL     1       7.189   5.059  14.388  0.00  0.00    +0.000 A 
ENDBRANCH  11  12
ENDBRANCH   5  10
ENDBRANCH   1   6
BRANCH   1  18
ATOM     18  C   UNL     1       2.019   6.694  18.413  0.00  0.00    +0.000 C 
BRANCH  18  19
ATOM     19  C   UNL     1       2.220   8.177  18.820  0.00  0.00    +0.000 C 
ATOM     20  C   UNL     1       2.725   8.952  17.585  0.00  0.00    +0.000 C 
BRANCH  19  21
ATOM     21  N   UNL     1       1.070   8.887  19.434  0.00  0.00    +0.000 NA
ATOM     22  C   UNL     1       1.126   8.897  20.901  0.00  0.00    +0.000 C 
BRANCH  21  23
ATOM     23  C   UNL     1       0.783  10.252  18.940  0.00  0.00    +0.000 C 
BRANCH  23  24
ATOM     24  C   UNL     1      -0.002  11.197  19.877  0.00  0.00    +0.000 C 
BRANCH  24  25
ATOM     25  C   UNL     1      -1.359  11.523  19.293  0.00  0.00    +0.000 A 
ATOM     26  C   UNL     1      -2.405  12.012  20.080  0.00  0.00    +0.000 A 
ATOM     27  C   UNL     1      -3.671  12.202  19.525  0.00  0.00    +0.000 A 
ATOM     28  C   UNL     1      -3.910  11.930  18.172  0.00  0.00    +0.000 A 
ATOM     29  C   UNL     1      -2.866  11.445  17.367  0.00  0.00    +0.000 A 
ATOM     30  C   UNL     1      -1.602  11.253  17.941  0.00  0.00    +0.000 A 
BRANCH  28  31
ATOM     31  O   UNL     1      -5.218  12.125  17.806  0.00  0.00    +0.000 OA
ATOM     32  C   UNL     1      -6.118  11.062  18.088  0.00  0.00    +0.000 C 
ENDBRANCH  28  31
BRANCH  29  33
ATOM     33  O   UNL     1      -3.135  11.136  16.060  0.00  0.00    +0.000 OA
ATOM     34  C   UNL     1      -3.023   9.771  15.676  0.00  0.00    +0.000 C 
ENDBRANCH  29  33
ENDBRANCH  24  25
ENDBRANCH  23  24
ENDBRANCH  21  23
ENDBRANCH  19  21
ENDBRANCH  18  19
ENDBRANCH   1  18
TORSDOF 12
ENDMDL
MODEL 7
REMARK VINA RESULT:      -7.0      3.104      5.113
REMARK  Name = 
REMARK  17 active torsions:
REMARK  status: ('A' for Active; 'I' for Inactive)
REMARK    1  A    between atoms: C_1  and  O_2
REMARK    2  A    between atoms: O_2  and  C_3
REMARK    3  A    between atoms: C_6  and  C_7
REMARK    4  A    between atoms: C_8  and  C_9
REMARK    5  A    between atoms: C_15  and  C_16
REMARK    6  A    between atoms: C_16  and  C_17
REMARK    7  A    between atoms: C_17  and  C_18
REMARK    8  A    between atoms: C_18  and  C_19
REMARK    9  A    between atoms: C_18  and  N_20
REMARK   10  A    between atoms: N_20  and  C_21
REMARK   11  A    between atoms: N_20  and  C_22
REMARK   12  A    between atoms: C_22  and  C_23
REMARK   13  A    between atoms: C_23  and  C_24
REMARK   14  A    between atoms: C_27  and  O_28
REMARK   15  A    between atoms: O_28  and  C_29
REMARK   16  A    between atoms: C_30  and  O_31
REMARK   17  A    between atoms: O_31  and  C_32
REMARK                            x       y       z     vdW  Elec       q    Type
REMARK                         _______ _______ _______ _____ _____    ______ ____
ROOT
ATOM      1  C   UNL     1       4.530   6.682  16.549  0.00  0.00    +0.000 C 
ENDROOT
BRANCH   1   6
ATOM      2  C   UNL     1       3.298   3.321  17.740  0.00  0.00    +0.000 A 
ATOM      3  C   UNL     1       2.185   3.683  18.497  0.00  0.00    +0.000 A 
ATOM      4  C   UNL     1       1.843   5.029  18.674  0.00  0.00    +0.000 A 
ATOM      5  C   UNL     1       2.609   6.039  18.080  0.00  0.00    +0.000 A 
ATOM      6  C   UNL     1       3.714   5.675  17.302  0.00  0.00    +0.000 A 
ATOM      7  C   UNL     1       4.047   4.319  17.136  0.00  0.00    +0.000 A 
BRANCH   2   9
ATOM      8  C   UNL     1       3.612   1.252  18.825  0.00  0.00    +0.000 C 
ATOM      9  O   UNL     1       3.541   1.983  17.602  0.00  0.00    +0.000 OA
ENDBRANCH   2   9
BRANCH   5  10
ATOM     10  C   UNL     1       2.231   7.410  18.220  0.00  0.00    +0.000 C 
ATOM     11  C   UNL     1       1.887   8.554  18.381  0.00  0.00    +0.000 C 
BRANCH  11  12
ATOM     12  C   UNL     1       1.519   9.923  18.560  0.00  0.00    +0.000 A 
ATOM     13  C   UNL     1       2.350  10.914  18.039  0.00  0.00    +0.000 A 
ATOM     14  C   UNL     1       2.030  12.261  18.198  0.00  0.00    +0.000 A 
ATOM     15  C   UNL     1       0.864  12.621  18.880  0.00  0.00    +0.000 A 
ATOM     16  C   UNL     1       0.029  11.633  19.404  0.00  0.00    +0.000 A 
ATOM     17  C   UNL     1       0.354  10.282  19.247  0.00  0.00    +0.000 A 
ENDBRANCH  11  12
ENDBRANCH   5  10
ENDBRANCH   1   6
BRANCH   1  18
ATOM     18  C   UNL     1       6.006   6.344  16.406  0.00  0.00    +0.000 C 
BRANCH  18  19
ATOM     19  C   UNL     1       6.619   5.683  17.668  0.00  0.00    +0.000 C 
ATOM     20  C   UNL     1       7.556   4.545  17.209  0.00  0.00    +0.000 C 
BRANCH  19  21
ATOM     21  N   UNL     1       7.318   6.560  18.638  0.00  0.00    +0.000 NA
ATOM     22  C   UNL     1       7.946   5.810  19.733  0.00  0.00    +0.000 C 
BRANCH  21  23
ATOM     23  C   UNL     1       8.286   7.534  18.087  0.00  0.00    +0.000 C 
BRANCH  23  24
ATOM     24  C   UNL     1       7.767   8.956  17.777  0.00  0.00    +0.000 C 
BRANCH  24  25
ATOM     25  C   UNL     1       8.653  10.001  18.420  0.00  0.00    +0.000 A 
ATOM     26  C   UNL     1       9.074   9.897  19.748  0.00  0.00    +0.000 A 
ATOM     27  C   UNL     1       9.802  10.932  20.335  0.00  0.00    +0.000 A 
ATOM     28  C   UNL     1      10.144  12.076  19.604  0.00  0.00    +0.000 A 
ATOM     29  C   UNL     1       9.733  12.191  18.264  0.00  0.00    +0.000 A 
ATOM     30  C   UNL     1       8.996  11.145  17.692  0.00  0.00    +0.000 A 
BRANCH  28  31
ATOM     31  O   UNL     1      10.817  13.012  20.348  0.00  0.00    +0.000 OA
ATOM     32  C   UNL     1      10.073  13.657  21.373  0.00  0.00    +0.000 C 
ENDBRANCH  28  31
BRANCH  29  33
ATOM     33  O   UNL     1      10.033  13.340  17.582  0.00  0.00    +0.000 OA
ATOM     34  C   UNL     1      11.162  13.309  16.717  0.00  0.00    +0.000 C 
ENDBRANCH  29  33
ENDBRANCH  24  25
ENDBRANCH  23  24
ENDBRANCH  21  23
ENDBRANCH  19  21
ENDBRANCH  18  19
ENDBRANCH   1  18
TORSDOF 12
ENDMDL
MODEL 8
REMARK VINA RESULT:      -6.9      6.246      7.282
REMARK  Name = 
REMARK  17 active torsions:
REMARK  status: ('A' for Active; 'I' for Inactive)
REMARK    1  A    between atoms: C_1  and  O_2
REMARK    2  A    between atoms: O_2  and  C_3
REMARK    3  A    between atoms: C_6  and  C_7
REMARK    4  A    between atoms: C_8  and  C_9
REMARK    5  A    between atoms: C_15  and  C_16
REMARK    6  A    between atoms: C_16  and  C_17
REMARK    7  A    between atoms: C_17  and  C_18
REMARK    8  A    between atoms: C_18  and  C_19
REMARK    9  A    between atoms: C_18  and  N_20
REMARK   10  A    between atoms: N_20  and  C_21
REMARK   11  A    between atoms: N_20  and  C_22
REMARK   12  A    between atoms: C_22  and  C_23
REMARK   13  A    between atoms: C_23  and  C_24
REMARK   14  A    between atoms: C_27  and  O_28
REMARK   15  A    between atoms: O_28  and  C_29
REMARK   16  A    between atoms: C_30  and  O_31
REMARK   17  A    between atoms: O_31  and  C_32
REMARK                            x       y       z     vdW  Elec       q    Type
REMARK                         _______ _______ _______ _____ _____    ______ ____
ROOT
ATOM      1  C   UNL     1       3.307   6.635  17.904  0.00  0.00    +0.000 C 
ENDROOT
BRANCH   1   6
ATOM      2  C   UNL     1       2.096   3.903  20.205  0.00  0.00    +0.000 A 
ATOM      3  C   UNL     1       2.649   2.770  19.610  0.00  0.00    +0.000 A 
ATOM      4  C   UNL     1       3.384   2.869  18.422  0.00  0.00    +0.000 A 
ATOM      5  C   UNL     1       3.590   4.115  17.817  0.00  0.00    +0.000 A 
ATOM      6  C   UNL     1       3.054   5.254  18.426  0.00  0.00    +0.000 A 
ATOM      7  C   UNL     1       2.314   5.140  19.617  0.00  0.00    +0.000 A 
BRANCH   2   9
ATOM      8  C   UNL     1       1.567   2.423  21.962  0.00  0.00    +0.000 C 
ATOM      9  O   UNL     1       1.414   3.714  21.374  0.00  0.00    +0.000 OA
ENDBRANCH   2   9
BRANCH   5  10
ATOM     10  C   UNL     1       4.383   4.220  16.632  0.00  0.00    +0.000 C 
ATOM     11  C   UNL     1       5.092   4.308  15.662  0.00  0.00    +0.000 C 
BRANCH  11  12
ATOM     12  C   UNL     1       5.907   4.384  14.492  0.00  0.00    +0.000 A 
ATOM     13  C   UNL     1       5.556   3.621  13.379  0.00  0.00    +0.000 A 
ATOM     14  C   UNL     1       6.329   3.661  12.220  0.00  0.00    +0.000 A 
ATOM     15  C   UNL     1       7.462   4.478  12.171  0.00  0.00    +0.000 A 
ATOM     16  C   UNL     1       7.819   5.243  13.282  0.00  0.00    +0.000 A 
ATOM     17  C   UNL     1       7.045   5.198  14.445  0.00  0.00    +0.000 A 
ENDBRANCH  11  12
ENDBRANCH   5  10
ENDBRANCH   1   6
BRANCH   1  18
ATOM     18  C   UNL     1       2.073   7.515  17.769  0.00  0.00    +0.000 C 
BRANCH  18  19
ATOM     19  C   UNL     1       2.077   8.742  18.717  0.00  0.00    +0.000 C 
ATOM     20  C   UNL     1       2.069  10.020  17.851  0.00  0.00    +0.000 C 
BRANCH  19  21
ATOM     21  N   UNL     1       1.015   8.820  19.751  0.00  0.00    +0.000 NA
ATOM     22  C   UNL     1       1.448   8.290  21.050  0.00  0.00    +0.000 C 
BRANCH  21  23
ATOM     23  C   UNL     1       0.362  10.133  19.945  0.00  0.00    +0.000 C 
BRANCH  23  24
ATOM     24  C   UNL     1       0.945  11.066  21.029  0.00  0.00    +0.000 C 
BRANCH  24  25
ATOM     25  C   UNL     1      -0.161  11.787  21.767  0.00  0.00    +0.000 A 
ATOM     26  C   UNL     1      -1.068  11.109  22.588  0.00  0.00    +0.000 A 
ATOM     27  C   UNL     1      -2.136  11.794  23.167  0.00  0.00    +0.000 A 
ATOM     28  C   UNL     1      -2.307  13.168  22.959  0.00  0.00    +0.000 A 
ATOM     29  C   UNL     1      -1.399  13.864  22.143  0.00  0.00    +0.000 A 
ATOM     30  C   UNL     1      -0.335  13.160  21.563  0.00  0.00    +0.000 A 
BRANCH  28  31
ATOM     31  O   UNL     1      -3.433  13.669  23.562  0.00  0.00    +0.000 OA
ATOM     32  C   UNL     1      -3.247  14.300  24.822  0.00  0.00    +0.000 C 
ENDBRANCH  28  31
BRANCH  29  33
ATOM     33  O   UNL     1      -1.613  15.197  21.911  0.00  0.00    +0.000 OA
ATOM     34  C   UNL     1      -2.448  15.541  20.812  0.00  0.00    +0.000 C 
ENDBRANCH  29  33
ENDBRANCH  24  25
ENDBRANCH  23  24
ENDBRANCH  21  23
ENDBRANCH  19  21
ENDBRANCH  18  19
ENDBRANCH   1  18
TORSDOF 12
ENDMDL
MODEL 9
REMARK VINA RESULT:      -6.8      8.415     11.832
REMARK  Name = 
REMARK  17 active torsions:
REMARK  status: ('A' for Active; 'I' for Inactive)
REMARK    1  A    between atoms: C_1  and  O_2
REMARK    2  A    between atoms: O_2  and  C_3
REMARK    3  A    between atoms: C_6  and  C_7
REMARK    4  A    between atoms: C_8  and  C_9
REMARK    5  A    between atoms: C_15  and  C_16
REMARK    6  A    between atoms: C_16  and  C_17
REMARK    7  A    between atoms: C_17  and  C_18
REMARK    8  A    between atoms: C_18  and  C_19
REMARK    9  A    between atoms: C_18  and  N_20
REMARK   10  A    between atoms: N_20  and  C_21
REMARK   11  A    between atoms: N_20  and  C_22
REMARK   12  A    between atoms: C_22  and  C_23
REMARK   13  A    between atoms: C_23  and  C_24
REMARK   14  A    between atoms: C_27  and  O_28
REMARK   15  A    between atoms: O_28  and  C_29
REMARK   16  A    between atoms: C_30  and  O_31
REMARK   17  A    between atoms: O_31  and  C_32
REMARK                            x       y       z     vdW  Elec       q    Type
REMARK                         _______ _______ _______ _____ _____    ______ ____
ROOT
ATOM      1  C   UNL     1      -1.167  11.509  19.009  0.00  0.00    +0.000 C 
ENDROOT
BRANCH   1   6
ATOM      2  C   UNL     1      -3.924  10.883  16.512  0.00  0.00    +0.000 A 
ATOM      3  C   UNL     1      -5.006  11.515  17.123  0.00  0.00    +0.000 A 
ATOM      4  C   UNL     1      -4.870  12.113  18.382  0.00  0.00    +0.000 A 
ATOM      5  C   UNL     1      -3.636  12.099  19.044  0.00  0.00    +0.000 A 
ATOM      6  C   UNL     1      -2.545  11.484  18.420  0.00  0.00    +0.000 A 
ATOM      7  C   UNL     1      -2.697  10.885  17.157  0.00  0.00    +0.000 A 
BRANCH   2   9
ATOM      8  C   UNL     1      -2.975  10.171  14.474  0.00  0.00    +0.000 C 
ATOM      9  O   UNL     1      -4.144  10.348  15.273  0.00  0.00    +0.000 OA
ENDBRANCH   2   9
BRANCH   5  10
ATOM     10  C   UNL     1      -3.486  12.753  20.307  0.00  0.00    +0.000 C 
ATOM     11  C   UNL     1      -3.378  13.346  21.350  0.00  0.00    +0.000 C 
BRANCH  11  12
ATOM     12  C   UNL     1      -3.265  14.015  22.607  0.00  0.00    +0.000 A 
ATOM     13  C   UNL     1      -4.386  14.663  23.125  0.00  0.00    +0.000 A 
ATOM     14  C   UNL     1      -4.315  15.333  24.345  0.00  0.00    +0.000 A 
ATOM     15  C   UNL     1      -3.113  15.349  25.058  0.00  0.00    +0.000 A 
ATOM     16  C   UNL     1      -1.988  14.703  24.545  0.00  0.00    +0.000 A 
ATOM     17  C   UNL     1      -2.060  14.035  23.318  0.00  0.00    +0.000 A 
ENDBRANCH  11  12
ENDBRANCH   5  10
ENDBRANCH   1   6
BRANCH   1  18
ATOM     18  C   UNL     1      -0.550  10.144  19.272  0.00  0.00    +0.000 C 
BRANCH  18  19
ATOM     19  C   UNL     1       0.875  10.212  19.881  0.00  0.00    +0.000 C 
ATOM     20  C   UNL     1       0.978  11.503  20.721  0.00  0.00    +0.000 C 
BRANCH  19  21
ATOM     21  N   UNL     1       1.344   9.049  20.674  0.00  0.00    +0.000 NA
ATOM     22  C   UNL     1       0.367   8.616  21.681  0.00  0.00    +0.000 C 
BRANCH  21  23
ATOM     23  C   UNL     1       1.831   7.874  19.919  0.00  0.00    +0.000 C 
BRANCH  23  24
ATOM     24  C   UNL     1       2.328   8.110  18.476  0.00  0.00    +0.000 C 
BRANCH  24  25
ATOM     25  C   UNL     1       3.136   6.928  17.987  0.00  0.00    +0.000 A 
ATOM     26  C   UNL     1       4.226   7.082  17.126  0.00  0.00    +0.000 A 
ATOM     27  C   UNL     1       4.880   5.961  16.615  0.00  0.00    +0.000 A 
ATOM     28  C   UNL     1       4.475   4.668  16.973  0.00  0.00    +0.000 A 
ATOM     29  C   UNL     1       3.386   4.498  17.844  0.00  0.00    +0.000 A 
ATOM     30  C   UNL     1       2.736   5.635  18.343  0.00  0.00    +0.000 A 
BRANCH  28  31
ATOM     31  O   UNL     1       5.195   3.684  16.343  0.00  0.00    +0.000 OA
ATOM     32  C   UNL     1       6.399   4.092  15.707  0.00  0.00    +0.000 C 
ENDBRANCH  28  31
BRANCH  29  33
ATOM     33  O   UNL     1       2.975   3.226  18.140  0.00  0.00    +0.000 OA
ATOM     34  C   UNL     1       3.489   2.634  19.327  0.00  0.00    +0.000 C 
ENDBRANCH  29  33
ENDBRANCH  24  25
ENDBRANCH  23  24
ENDBRANCH  21  23
ENDBRANCH  19  21
ENDBRANCH  18  19
ENDBRANCH   1  18
TORSDOF 12
ENDMDL
