MODEL 1
REMARK VINA RESULT:      -7.0      0.000      0.000
REMARK  Name = 
REMARK  16 active torsions:
REMARK  status: ('A' for Active; 'I' for Inactive)
REMARK    1  A    between atoms: N_1  and  C_2
REMARK    2  A    between atoms: C_2  and  C_3
REMARK    3  A    between atoms: C_3  and  N_4
REMARK    4  A    between atoms: N_4  and  C_5
REMARK    5  A    between atoms: C_5  and  C_6
REMARK    6  A    between atoms: C_6  and  N_7
REMARK    7  A    between atoms: N_7  and  C_8
REMARK    8  A    between atoms: C_11  and  N_12
REMARK    9  A    between atoms: N_12  and  C_13
REMARK   10  A    between atoms: C_13  and  C_14
REMARK   11  A    between atoms: C_14  and  N_15
REMARK   12  A    between atoms: N_15  and  C_16
REMARK   13  A    between atoms: C_16  and  C_17
REMARK   14  A    between atoms: C_17  and  N_18
REMARK   15  A    between atoms: C_24  and  O_25
REMARK   16  A    between atoms: C_28  and  O_29
REMARK                            x       y       z     vdW  Elec       q    Type
REMARK                         _______ _______ _______ _____ _____    ______ ____
ROOT
ATOM      1  C   UNL     1       3.997   6.310  17.867  0.00  0.00    +0.000 A 
ATOM      2  C   UNL     1       4.369   5.076  18.403  0.00  0.00    +0.000 A 
ATOM      3  C   UNL     1       3.812   4.592  19.581  0.00  0.00    +0.000 A 
ATOM      4  C   UNL     1       2.882   5.336  20.310  0.00  0.00    +0.000 A 
ATOM      5  C   UNL     1       2.481   6.595  19.790  0.00  0.00    +0.000 A 
ATOM      6  C   UNL     1       3.028   7.067  18.582  0.00  0.00    +0.000 A 
ATOM      7  C   UNL     1       2.566   8.374  18.050  0.00  0.00    +0.000 C 
ATOM      8  O   UNL     1       2.812   8.722  16.894  0.00  0.00    +0.000 OA
ATOM      9  C   UNL     1       1.776   9.290  18.894  0.00  0.00    +0.000 A 
ATOM     10  C   UNL     1       1.531  10.609  18.469  0.00  0.00    +0.000 A 
ATOM     11  C   UNL     1       0.771  11.484  19.240  0.00  0.00    +0.000 A 
ATOM     12  C   UNL     1       0.236  11.047  20.447  0.00  0.00    +0.000 A 
ATOM     13  C   UNL     1       0.474   9.740  20.877  0.00  0.00    +0.000 A 
ATOM     14  C   UNL     1       1.249   8.848  20.106  0.00  0.00    +0.000 A 
ATOM     15  C   UNL     1       1.501   7.444  20.533  0.00  0.00    +0.000 C 
ATOM     16  O   UNL     1       0.910   6.975  21.499  0.00  0.00    +0.000 OA
ENDROOT
BRANCH   4  17
ATOM     17  N   UNL     1       2.350   4.786  21.478  0.00  0.00    +0.000 N 
ATOM     18  H   UNL     1       2.641   5.266  22.344  0.00  0.00    +0.000 HD
BRANCH  17  19
ATOM     19  C   UNL     1       2.225   3.333  21.620  0.00  0.00    +0.000 C 
BRANCH  19  20
ATOM     20  C   UNL     1       1.055   2.787  20.776  0.00  0.00    +0.000 C 
BRANCH  20  21
ATOM     21  N   UNL     1       1.519   1.835  19.763  0.00  0.00    +0.000 NA
ATOM     22  H   UNL     1       0.963   0.983  19.823  0.00  0.00    +0.000 HD
BRANCH  21  23
ATOM     23  C   UNL     1       1.393   2.387  18.412  0.00  0.00    +0.000 C 
BRANCH  23  24
ATOM     24  C   UNL     1       2.617   2.019  17.554  0.00  0.00    +0.000 C 
BRANCH  24  25
ATOM     25  N   UNL     1       3.609   1.238  18.305  0.00  0.00    +0.000 NA
ATOM     26  H   UNL     1       4.528   1.459  17.924  0.00  0.00    +0.000 HD
ATOM     27  H   UNL     1       3.466   0.250  18.096  0.00  0.00    +0.000 HD
ENDBRANCH  24  25
ENDBRANCH  23  24
ENDBRANCH  21  23
ENDBRANCH  20  21
ENDBRANCH  19  20
ENDBRANCH  17  19
ENDBRANCH   4  17
BRANCH  13  28
ATOM     28  O   UNL     1      -0.058   9.363  22.078  0.00  0.00    +0.000 OA
ATOM     29  H   UNL     1      -0.620  10.067  22.440  0.00  0.00    +0.000 HD
ENDBRANCH  13  28
BRANCH  10  30
ATOM     30  O   UNL     1       2.013  11.124  17.293  0.00  0.00    +0.000 OA
ATOM     31  H   UNL     1       1.288  11.087  16.628  0.00  0.00    +0.000 HD
ENDBRANCH  10  30
BRANCH   1  32
ATOM     32  N   UNL     1       4.665   6.830  16.759  0.00  0.00    +0.000 N 
ATOM     33  H   UNL     1       4.200   7.640  16.336  0.00  0.00    +0.000 HD
BRANCH  32  34
ATOM     34  C   UNL     1       5.472   6.035  15.832  0.00  0.00    +0.000 C 
BRANCH  34  35
ATOM     35  C   UNL     1       6.880   5.738  16.380  0.00  0.00    +0.000 C 
BRANCH  35  36
ATOM     36  N   UNL     1       7.554   6.976  16.789  0.00  0.00    +0.000 NA
ATOM     37  H   UNL     1       8.431   7.052  16.271  0.00  0.00    +0.000 HD
BRANCH  36  38
ATOM     38  C   UNL     1       7.828   6.982  18.227  0.00  0.00    +0.000 C 
BRANCH  38  39
ATOM     39  C   UNL     1       7.858   5.541  18.766  0.00  0.00    +0.000 C 
BRANCH  39  40
ATOM     40  N   UNL     1       7.861   5.509  20.229  0.00  0.00    +0.000 NA
ATOM     41  H   UNL     1       8.715   5.952  20.565  0.00  0.00    +0.000 HD
ATOM     42  H   UNL     1       7.895   4.543  20.549  0.00  0.00    +0.000 HD
ENDBRANCH  39  40
ENDBRANCH  38  39
ENDBRANCH  36  38
ENDBRANCH  35  36
ENDBRANCH  34  35
ENDBRANCH  32  34
ENDBRANCH   1  32
TORSDOF 16
ENDMDL
MODEL 2
REMARK VINA RESULT:      -6.7      1.969      2.720
REMARK  Name = 
REMARK  16 active torsions:
REMARK  status: ('A' for Active; 'I' for Inactive)
REMARK    1  A    between atoms: N_1  and  C_2
REMARK    2  A    between atoms: C_2  and  C_3
REMARK    3  A    between atoms: C_3  and  N_4
REMARK    4  A    between atoms: N_4  and  C_5
REMARK    5  A    between atoms: C_5  and  C_6
REMARK    6  A    between atoms: C_6  and  N_7
REMARK    7  A    between atoms: N_7  and  C_8
REMARK    8  A    between atoms: C_11  and  N_12
REMARK    9  A    between atoms: N_12  and  C_13
REMARK   10  A    between atoms: C_13  and  C_14
REMARK   11  A    between atoms: C_14  and  N_15
REMARK   12  A    between atoms: N_15  and  C_16
REMARK   13  A    between atoms: C_16  and  C_17
REMARK   14  A    between atoms: C_17  and  N_18
REMARK   15  A    between atoms: C_24  and  O_25
REMARK   16  A    between atoms: C_28  and  O_29
REMARK                            x       y       z     vdW  Elec       q    Type
REMARK                         _______ _______ _______ _____ _____    ______ ____
ROOT
ATOM      1  C   UNL     1       4.587   5.872  17.719  0.00  0.00    +0.000 A 
ATOM      2  C   UNL     1       5.045   4.673  18.270  0.00  0.00    +0.000 A 
ATOM      3  C   UNL     1       4.506   4.153  19.440  0.00  0.00    +0.000 A 
ATOM      4  C   UNL     1       3.506   4.824  20.148  0.00  0.00    +0.000 A 
ATOM      5  C   UNL     1       3.017   6.045  19.613  0.00  0.00    +0.000 A 
ATOM      6  C   UNL     1       3.548   6.553  18.412  0.00  0.00    +0.000 A 
ATOM      7  C   UNL     1       2.994   7.817  17.864  0.00  0.00    +0.000 C 
ATOM      8  O   UNL     1       3.234   8.179  16.711  0.00  0.00    +0.000 OA
ATOM      9  C   UNL     1       2.119   8.672  18.688  0.00  0.00    +0.000 A 
ATOM     10  C   UNL     1       1.779   9.965  18.250  0.00  0.00    +0.000 A 
ATOM     11  C   UNL     1       0.938  10.781  19.002  0.00  0.00    +0.000 A 
ATOM     12  C   UNL     1       0.416  10.309  20.202  0.00  0.00    +0.000 A 
ATOM     13  C   UNL     1       0.748   9.026  20.644  0.00  0.00    +0.000 A 
ATOM     14  C   UNL     1       1.606   8.195  19.893  0.00  0.00    +0.000 A 
ATOM     15  C   UNL     1       1.960   6.818  20.333  0.00  0.00    +0.000 C 
ATOM     16  O   UNL     1       1.389   6.307  21.290  0.00  0.00    +0.000 OA
ENDROOT
BRANCH   4  17
ATOM     17  N   UNL     1       2.997   4.239  21.309  0.00  0.00    +0.000 N 
ATOM     18  H   UNL     1       3.460   4.550  22.178  0.00  0.00    +0.000 HD
BRANCH  17  19
ATOM     19  C   UNL     1       2.613   2.826  21.316  0.00  0.00    +0.000 C 
BRANCH  19  20
ATOM     20  C   UNL     1       1.082   2.662  21.222  0.00  0.00    +0.000 C 
BRANCH  20  21
ATOM     21  N   UNL     1       0.575   3.079  19.911  0.00  0.00    +0.000 NA
ATOM     22  H   UNL     1       0.966   3.990  19.674  0.00  0.00    +0.000 HD
BRANCH  21  23
ATOM     23  C   UNL     1       0.942   2.120  18.865  0.00  0.00    +0.000 C 
BRANCH  23  24
ATOM     24  C   UNL     1       1.780   2.802  17.769  0.00  0.00    +0.000 C 
BRANCH  24  25
ATOM     25  N   UNL     1       1.213   4.093  17.356  0.00  0.00    +0.000 NA
ATOM     26  H   UNL     1       0.477   3.902  16.677  0.00  0.00    +0.000 HD
ATOM     27  H   UNL     1       1.926   4.605  16.838  0.00  0.00    +0.000 HD
ENDBRANCH  24  25
ENDBRANCH  23  24
ENDBRANCH  21  23
ENDBRANCH  20  21
ENDBRANCH  19  20
ENDBRANCH  17  19
ENDBRANCH   4  17
BRANCH  13  28
ATOM     28  O   UNL     1       0.226   8.615  21.837  0.00  0.00    +0.000 OA
ATOM     29  H   UNL     1      -0.277   7.792  21.726  0.00  0.00    +0.000 HD
ENDBRANCH  13  28
BRANCH  10  30
ATOM     30  O   UNL     1       2.241  10.511  17.080  0.00  0.00    +0.000 OA
ATOM     31  H   UNL     1       1.944   9.934  16.340  0.00  0.00    +0.000 HD
ENDBRANCH  10  30
BRANCH   1  32
ATOM     32  N   UNL     1       5.232   6.438  16.621  0.00  0.00    +0.000 N 
ATOM     33  H   UNL     1       5.209   7.463  16.608  0.00  0.00    +0.000 HD
BRANCH  32  34
ATOM     34  C   UNL     1       5.322   5.811  15.302  0.00  0.00    +0.000 C 
BRANCH  34  35
ATOM     35  C   UNL     1       6.582   4.939  15.146  0.00  0.00    +0.000 C 
BRANCH  35  36
ATOM     36  N   UNL     1       6.289   3.733  14.362  0.00  0.00    +0.000 NA
ATOM     37  H   UNL     1       6.889   2.978  14.697  0.00  0.00    +0.000 HD
BRANCH  36  38
ATOM     38  C   UNL     1       6.528   3.957  12.935  0.00  0.00    +0.000 C 
BRANCH  38  39
ATOM     39  C   UNL     1       5.818   2.876  12.102  0.00  0.00    +0.000 C 
BRANCH  39  40
ATOM     40  N   UNL     1       4.505   3.325  11.639  0.00  0.00    +0.000 NA
ATOM     41  H   UNL     1       4.622   3.832  10.763  0.00  0.00    +0.000 HD
ATOM     42  H   UNL     1       4.117   3.991  12.305  0.00  0.00    +0.000 HD
ENDBRANCH  39  40
ENDBRANCH  38  39
ENDBRANCH  36  38
ENDBRANCH  35  36
ENDBRANCH  34  35
ENDBRANCH  32  34
ENDBRANCH   1  32
TORSDOF 16
ENDMDL
MODEL 3
REMARK VINA RESULT:      -6.5      1.094      1.653
REMARK  Name = 
REMARK  16 active torsions:
REMARK  status: ('A' for Active; 'I' for Inactive)
REMARK    1  A    between atoms: N_1  and  C_2
REMARK    2  A    between atoms: C_2  and  C_3
REMARK    3  A    between atoms: C_3  and  N_4
REMARK    4  A    between atoms: N_4  and  C_5
REMARK    5  A    between atoms: C_5  and  C_6
REMARK    6  A    between atoms: C_6  and  N_7
REMARK    7  A    between atoms: N_7  and  C_8
REMARK    8  A    between atoms: C_11  and  N_12
REMARK    9  A    between atoms: N_12  and  C_13
REMARK   10  A    between atoms: C_13  and  C_14
REMARK   11  A    between atoms: C_14  and  N_15
REMARK   12  A    between atoms: N_15  and  C_16
REMARK   13  A    between atoms: C_16  and  C_17
REMARK   14  A    between atoms: C_17  and  N_18
REMARK   15  A    between atoms: C_24  and  O_25
REMARK   16  A    between atoms: C_28  and  O_29
REMARK                            x       y       z     vdW  Elec       q    Type
REMARK                         _______ _______ _______ _____ _____    ______ ____
ROOT
ATOM      1  C   UNL     1       4.147   6.311  17.940  0.00  0.00    +0.000 A 
ATOM      2  C   UNL     1       4.537   5.081  18.475  0.00  0.00    +0.000 A 
ATOM      3  C   UNL     1       3.939   4.556  19.613  0.00  0.00    +0.000 A 
ATOM      4  C   UNL     1       2.945   5.252  20.306  0.00  0.00    +0.000 A 
ATOM      5  C   UNL     1       2.525   6.505  19.787  0.00  0.00    +0.000 A 
ATOM      6  C   UNL     1       3.115   7.018  18.616  0.00  0.00    +0.000 A 
ATOM      7  C   UNL     1       2.633   8.318  18.083  0.00  0.00    +0.000 C 
ATOM      8  O   UNL     1       2.926   8.696  16.948  0.00  0.00    +0.000 OA
ATOM      9  C   UNL     1       1.767   9.189  18.900  0.00  0.00    +0.000 A 
ATOM     10  C   UNL     1       1.496  10.505  18.485  0.00  0.00    +0.000 A 
ATOM     11  C   UNL     1       0.666  11.338  19.230  0.00  0.00    +0.000 A 
ATOM     12  C   UNL     1       0.085  10.860  20.400  0.00  0.00    +0.000 A 
ATOM     13  C   UNL     1       0.349   9.554  20.820  0.00  0.00    +0.000 A 
ATOM     14  C   UNL     1       1.196   8.705  20.076  0.00  0.00    +0.000 A 
ATOM     15  C   UNL     1       1.478   7.304  20.492  0.00  0.00    +0.000 C 
ATOM     16  O   UNL     1       0.855   6.796  21.417  0.00  0.00    +0.000 OA
ENDROOT
BRANCH   4  17
ATOM     17  N   UNL     1       2.374   4.661  21.435  0.00  0.00    +0.000 N 
ATOM     18  H   UNL     1       2.474   5.216  22.300  0.00  0.00    +0.000 HD
BRANCH  17  19
ATOM     19  C   UNL     1       2.476   3.215  21.643  0.00  0.00    +0.000 C 
BRANCH  19  20
ATOM     20  C   UNL     1       1.166   2.500  21.256  0.00  0.00    +0.000 C 
BRANCH  20  21
ATOM     21  N   UNL     1       0.559   3.095  20.062  0.00  0.00    +0.000 NA
ATOM     22  H   UNL     1       1.057   3.953  19.824  0.00  0.00    +0.000 HD
BRANCH  21  23
ATOM     23  C   UNL     1       0.620   2.182  18.918  0.00  0.00    +0.000 C 
BRANCH  23  24
ATOM     24  C   UNL     1       1.877   2.449  18.071  0.00  0.00    +0.000 C 
BRANCH  24  25
ATOM     25  N   UNL     1       2.924   1.443  18.296  0.00  0.00    +0.000 NA
ATOM     26  H   UNL     1       3.038   1.339  19.305  0.00  0.00    +0.000 HD
ATOM     27  H   UNL     1       3.811   1.823  17.967  0.00  0.00    +0.000 HD
ENDBRANCH  24  25
ENDBRANCH  23  24
ENDBRANCH  21  23
ENDBRANCH  20  21
ENDBRANCH  19  20
ENDBRANCH  17  19
ENDBRANCH   4  17
BRANCH  13  28
ATOM     28  O   UNL     1      -0.229   9.137  21.985  0.00  0.00    +0.000 OA
ATOM     29  H   UNL     1      -0.100   8.183  22.110  0.00  0.00    +0.000 HD
ENDBRANCH  13  28
BRANCH  10  30
ATOM     30  O   UNL     1       2.019  11.059  17.344  0.00  0.00    +0.000 OA
ATOM     31  H   UNL     1       1.729  10.508  16.581  0.00  0.00    +0.000 HD
ENDBRANCH  10  30
BRANCH   1  32
ATOM     32  N   UNL     1       4.851   6.875  16.878  0.00  0.00    +0.000 N 
ATOM     33  H   UNL     1       4.716   6.389  15.985  0.00  0.00    +0.000 HD
BRANCH  32  34
ATOM     34  C   UNL     1       6.135   7.565  17.010  0.00  0.00    +0.000 C 
BRANCH  34  35
ATOM     35  C   UNL     1       7.325   6.590  17.093  0.00  0.00    +0.000 C 
BRANCH  35  36
ATOM     36  N   UNL     1       7.397   5.750  15.892  0.00  0.00    +0.000 NA
ATOM     37  H   UNL     1       6.673   6.057  15.240  0.00  0.00    +0.000 HD
BRANCH  36  38
ATOM     38  C   UNL     1       7.199   4.337  16.220  0.00  0.00    +0.000 C 
BRANCH  38  39
ATOM     39  C   UNL     1       6.107   3.732  15.320  0.00  0.00    +0.000 C 
BRANCH  39  40
ATOM     40  N   UNL     1       6.216   4.209  13.941  0.00  0.00    +0.000 NA
ATOM     41  H   UNL     1       7.177   4.503  13.770  0.00  0.00    +0.000 HD
ATOM     42  H   UNL     1       5.637   5.038  13.821  0.00  0.00    +0.000 HD
ENDBRANCH  39  40
ENDBRANCH  38  39
ENDBRANCH  36  38
ENDBRANCH  35  36
ENDBRANCH  34  35
ENDBRANCH  32  34
ENDBRANCH   1  32
TORSDOF 16
ENDMDL
MODEL 4
REMARK VINA RESULT:      -6.5      1.495      2.257
REMARK  Name = 
REMARK  16 active torsions:
REMARK  status: ('A' for Active; 'I' for Inactive)
REMARK    1  A    between atoms: N_1  and  C_2
REMARK    2  A    between atoms: C_2  and  C_3
REMARK    3  A    between atoms: C_3  and  N_4
REMARK    4  A    between atoms: N_4  and  C_5
REMARK    5  A    between atoms: C_5  and  C_6
REMARK    6  A    between atoms: C_6  and  N_7
REMARK    7  A    between atoms: N_7  and  C_8
REMARK    8  A    between atoms: C_11  and  N_12
REMARK    9  A    between atoms: N_12  and  C_13
REMARK   10  A    between atoms: C_13  and  C_14
REMARK   11  A    between atoms: C_14  and  N_15
REMARK   12  A    between atoms: N_15  and  C_16
REMARK   13  A    between atoms: C_16  and  C_17
REMARK   14  A    between atoms: C_17  and  N_18
REMARK   15  A    between atoms: C_24  and  O_25
REMARK   16  A    between atoms: C_28  and  O_29
REMARK                            x       y       z     vdW  Elec       q    Type
REMARK                         _______ _______ _______ _____ _____    ______ ____
ROOT
ATOM      1  C   UNL     1       4.393   6.134  17.984  0.00  0.00    +0.000 A 
ATOM      2  C   UNL     1       4.793   4.918  18.541  0.00  0.00    +0.000 A 
ATOM      3  C   UNL     1       4.156   4.377  19.651  0.00  0.00    +0.000 A 
ATOM      4  C   UNL     1       3.110   5.044  20.292  0.00  0.00    +0.000 A 
ATOM      5  C   UNL     1       2.677   6.283  19.750  0.00  0.00    +0.000 A 
ATOM      6  C   UNL     1       3.308   6.812  18.607  0.00  0.00    +0.000 A 
ATOM      7  C   UNL     1       2.813   8.095  18.047  0.00  0.00    +0.000 C 
ATOM      8  O   UNL     1       3.149   8.480  16.926  0.00  0.00    +0.000 OA
ATOM      9  C   UNL     1       1.883   8.941  18.819  0.00  0.00    +0.000 A 
ATOM     10  C   UNL     1       1.593  10.248  18.387  0.00  0.00    +0.000 A 
ATOM     11  C   UNL     1       0.702  11.056  19.088  0.00  0.00    +0.000 A 
ATOM     12  C   UNL     1       0.081  10.562  20.230  0.00  0.00    +0.000 A 
ATOM     13  C   UNL     1       0.364   9.266  20.667  0.00  0.00    +0.000 A 
ATOM     14  C   UNL     1       1.270   8.442  19.967  0.00  0.00    +0.000 A 
ATOM     15  C   UNL     1       1.574   7.051  20.400  0.00  0.00    +0.000 C 
ATOM     16  O   UNL     1       0.923   6.525  21.296  0.00  0.00    +0.000 OA
ENDROOT
BRANCH   4  17
ATOM     17  N   UNL     1       2.503   4.438  21.394  0.00  0.00    +0.000 N 
ATOM     18  H   UNL     1       2.918   4.698  22.303  0.00  0.00    +0.000 HD
BRANCH  17  19
ATOM     19  C   UNL     1       2.065   3.042  21.321  0.00  0.00    +0.000 C 
BRANCH  19  20
ATOM     20  C   UNL     1       1.083   2.824  20.152  0.00  0.00    +0.000 C 
BRANCH  20  21
ATOM     21  N   UNL     1       1.565   1.795  19.228  0.00  0.00    +0.000 NA
ATOM     22  H   UNL     1       0.811   1.136  19.035  0.00  0.00    +0.000 HD
BRANCH  21  23
ATOM     23  C   UNL     1       2.016   2.379  17.962  0.00  0.00    +0.000 C 
BRANCH  23  24
ATOM     24  C   UNL     1       3.368   1.781  17.534  0.00  0.00    +0.000 C 
BRANCH  24  25
ATOM     25  N   UNL     1       3.906   0.849  18.534  0.00  0.00    +0.000 NA
ATOM     26  H   UNL     1       3.115   0.366  18.961  0.00  0.00    +0.000 HD
ATOM     27  H   UNL     1       4.323   1.393  19.289  0.00  0.00    +0.000 HD
ENDBRANCH  24  25
ENDBRANCH  23  24
ENDBRANCH  21  23
ENDBRANCH  20  21
ENDBRANCH  19  20
ENDBRANCH  17  19
ENDBRANCH   4  17
BRANCH  13  28
ATOM     28  O   UNL     1      -0.258   8.833  21.804  0.00  0.00    +0.000 OA
ATOM     29  H   UNL     1      -1.106   8.413  21.592  0.00  0.00    +0.000 HD
ENDBRANCH  13  28
BRANCH  10  30
ATOM     30  O   UNL     1       2.153  10.815  17.271  0.00  0.00    +0.000 OA
ATOM     31  H   UNL     1       2.759  10.153  16.867  0.00  0.00    +0.000 HD
ENDBRANCH  10  30
BRANCH   1  32
ATOM     32  N   UNL     1       5.130   6.718  16.955  0.00  0.00    +0.000 N 
ATOM     33  H   UNL     1       4.626   6.778  16.064  0.00  0.00    +0.000 HD
BRANCH  32  34
ATOM     34  C   UNL     1       6.586   6.631  16.829  0.00  0.00    +0.000 C 
BRANCH  34  35
ATOM     35  C   UNL     1       7.031   5.489  15.896  0.00  0.00    +0.000 C 
BRANCH  35  36
ATOM     36  N   UNL     1       6.150   5.397  14.726  0.00  0.00    +0.000 NA
ATOM     37  H   UNL     1       5.277   5.880  14.941  0.00  0.00    +0.000 HD
BRANCH  36  38
ATOM     38  C   UNL     1       5.870   4.001  14.382  0.00  0.00    +0.000 C 
BRANCH  38  39
ATOM     39  C   UNL     1       6.352   3.701  12.952  0.00  0.00    +0.000 C 
BRANCH  39  40
ATOM     40  N   UNL     1       5.240   3.346  12.069  0.00  0.00    +0.000 NA
ATOM     41  H   UNL     1       5.019   4.148  11.480  0.00  0.00    +0.000 HD
ATOM     42  H   UNL     1       4.408   3.162  12.626  0.00  0.00    +0.000 HD
ENDBRANCH  39  40
ENDBRANCH  38  39
ENDBRANCH  36  38
ENDBRANCH  35  36
ENDBRANCH  34  35
ENDBRANCH  32  34
ENDBRANCH   1  32
TORSDOF 16
ENDMDL
MODEL 5
REMARK VINA RESULT:      -6.4      3.454      6.616
REMARK  Name = 
REMARK  16 active torsions:
REMARK  status: ('A' for Active; 'I' for Inactive)
REMARK    1  A    between atoms: N_1  and  C_2
REMARK    2  A    between atoms: C_2  and  C_3
REMARK    3  A    between atoms: C_3  and  N_4
REMARK    4  A    between atoms: N_4  and  C_5
REMARK    5  A    between atoms: C_5  and  C_6
REMARK    6  A    between atoms: C_6  and  N_7
REMARK    7  A    between atoms: N_7  and  C_8
REMARK    8  A    between atoms: C_11  and  N_12
REMARK    9  A    between atoms: N_12  and  C_13
REMARK   10  A    between atoms: C_13  and  C_14
REMARK   11  A    between atoms: C_14  and  N_15
REMARK   12  A    between atoms: N_15  and  C_16
REMARK   13  A    between atoms: C_16  and  C_17
REMARK   14  A    between atoms: C_17  and  N_18
REMARK   15  A    between atoms: C_24  and  O_25
REMARK   16  A    between atoms: C_28  and  O_29
REMARK                            x       y       z     vdW  Elec       q    Type
REMARK                         _______ _______ _______ _____ _____    ______ ____
ROOT
ATOM      1  C   UNL     1       5.744   6.045  17.286  0.00  0.00    +0.000 A 
ATOM      2  C   UNL     1       5.479   7.212  16.566  0.00  0.00    +0.000 A 
ATOM      3  C   UNL     1       4.300   7.927  16.738  0.00  0.00    +0.000 A 
ATOM      4  C   UNL     1       3.300   7.491  17.612  0.00  0.00    +0.000 A 
ATOM      5  C   UNL     1       3.540   6.308  18.361  0.00  0.00    +0.000 A 
ATOM      6  C   UNL     1       4.749   5.604  18.202  0.00  0.00    +0.000 A 
ATOM      7  C   UNL     1       4.980   4.387  19.022  0.00  0.00    +0.000 C 
ATOM      8  O   UNL     1       6.097   3.876  19.113  0.00  0.00    +0.000 OA
ATOM      9  C   UNL     1       3.872   3.765  19.769  0.00  0.00    +0.000 A 
ATOM     10  C   UNL     1       4.040   2.499  20.359  0.00  0.00    +0.000 A 
ATOM     11  C   UNL     1       3.015   1.901  21.087  0.00  0.00    +0.000 A 
ATOM     12  C   UNL     1       1.804   2.569  21.241  0.00  0.00    +0.000 A 
ATOM     13  C   UNL     1       1.628   3.826  20.658  0.00  0.00    +0.000 A 
ATOM     14  C   UNL     1       2.659   4.436  19.913  0.00  0.00    +0.000 A 
ATOM     15  C   UNL     1       2.502   5.783  19.298  0.00  0.00    +0.000 C 
ATOM     16  O   UNL     1       1.520   6.470  19.554  0.00  0.00    +0.000 OA
ENDROOT
BRANCH   4  17
ATOM     17  N   UNL     1       2.146   8.263  17.750  0.00  0.00    +0.000 N 
ATOM     18  H   UNL     1       1.400   8.035  17.074  0.00  0.00    +0.000 HD
BRANCH  17  19
ATOM     19  C   UNL     1       2.246   9.691  18.062  0.00  0.00    +0.000 C 
BRANCH  19  20
ATOM     20  C   UNL     1       0.950  10.212  18.716  0.00  0.00    +0.000 C 
BRANCH  20  21
ATOM     21  N   UNL     1      -0.176  10.186  17.779  0.00  0.00    +0.000 NA
ATOM     22  H   UNL     1      -0.157   9.310  17.255  0.00  0.00    +0.000 HD
BRANCH  21  23
ATOM     23  C   UNL     1      -1.459  10.289  18.478  0.00  0.00    +0.000 C 
BRANCH  23  24
ATOM     24  C   UNL     1      -2.063  11.695  18.309  0.00  0.00    +0.000 C 
BRANCH  24  25
ATOM     25  N   UNL     1      -1.304  12.515  17.354  0.00  0.00    +0.000 NA
ATOM     26  H   UNL     1      -1.973  12.921  16.699  0.00  0.00    +0.000 HD
ATOM     27  H   UNL     1      -0.724  11.896  16.789  0.00  0.00    +0.000 HD
ENDBRANCH  24  25
ENDBRANCH  23  24
ENDBRANCH  21  23
ENDBRANCH  20  21
ENDBRANCH  19  20
ENDBRANCH  17  19
ENDBRANCH   4  17
BRANCH  13  28
ATOM     28  O   UNL     1       0.415   4.434  20.823  0.00  0.00    +0.000 OA
ATOM     29  H   UNL     1       0.327   5.191  20.223  0.00  0.00    +0.000 HD
ENDBRANCH  13  28
BRANCH  10  30
ATOM     30  O   UNL     1       5.199   1.771  20.264  0.00  0.00    +0.000 OA
ATOM     31  H   UNL     1       5.866   2.325  19.799  0.00  0.00    +0.000 HD
ENDBRANCH  10  30
BRANCH   1  32
ATOM     32  N   UNL     1       6.871   5.277  16.999  0.00  0.00    +0.000 N 
ATOM     33  H   UNL     1       7.690   5.511  17.571  0.00  0.00    +0.000 HD
BRANCH  32  34
ATOM     34  C   UNL     1       7.184   4.729  15.679  0.00  0.00    +0.000 C 
BRANCH  34  35
ATOM     35  C   UNL     1       5.933   4.219  14.939  0.00  0.00    +0.000 C 
BRANCH  35  36
ATOM     36  N   UNL     1       6.290   3.183  13.962  0.00  0.00    +0.000 NA
ATOM     37  H   UNL     1       7.236   2.858  14.168  0.00  0.00    +0.000 HD
BRANCH  36  38
ATOM     38  C   UNL     1       6.235   3.703  12.594  0.00  0.00    +0.000 C 
BRANCH  38  39
ATOM     39  C   UNL     1       5.341   2.805  11.722  0.00  0.00    +0.000 C 
BRANCH  39  40
ATOM     40  N   UNL     1       5.943   1.489  11.504  0.00  0.00    +0.000 NA
ATOM     41  H   UNL     1       6.396   1.189  12.366  0.00  0.00    +0.000 HD
ATOM     42  H   UNL     1       6.679   1.563  10.804  0.00  0.00    +0.000 HD
ENDBRANCH  39  40
ENDBRANCH  38  39
ENDBRANCH  36  38
ENDBRANCH  35  36
ENDBRANCH  34  35
ENDBRANCH  32  34
ENDBRANCH   1  32
TORSDOF 16
ENDMDL
MODEL 6
REMARK VINA RESULT:      -6.2      3.108      6.299
REMARK  Name = 
REMARK  16 active torsions:
REMARK  status: ('A' for Active; 'I' for Inactive)
REMARK    1  A    between atoms: N_1  and  C_2
REMARK    2  A    between atoms: C_2  and  C_3
REMARK    3  A    between atoms: C_3  and  N_4
REMARK    4  A    between atoms: N_4  and  C_5
REMARK    5  A    between atoms: C_5  and  C_6
REMARK    6  A    between atoms: C_6  and  N_7
REMARK    7  A    between atoms: N_7  and  C_8
REMARK    8  A    between atoms: C_11  and  N_12
REMARK    9  A    between atoms: N_12  and  C_13
REMARK   10  A    between atoms: C_13  and  C_14
REMARK   11  A    between atoms: C_14  and  N_15
REMARK   12  A    between atoms: N_15  and  C_16
REMARK   13  A    between atoms: C_16  and  C_17
REMARK   14  A    between atoms: C_17  and  N_18
REMARK   15  A    between atoms: C_24  and  O_25
REMARK   16  A    between atoms: C_28  and  O_29
REMARK                            x       y       z     vdW  Elec       q    Type
REMARK                         _______ _______ _______ _____ _____    ______ ____
ROOT
ATOM      1  C   UNL     1       5.664   6.029  17.208  0.00  0.00    +0.000 A 
ATOM      2  C   UNL     1       5.360   7.180  16.477  0.00  0.00    +0.000 A 
ATOM      3  C   UNL     1       4.170   7.872  16.665  0.00  0.00    +0.000 A 
ATOM      4  C   UNL     1       3.198   7.428  17.564  0.00  0.00    +0.000 A 
ATOM      5  C   UNL     1       3.477   6.262  18.324  0.00  0.00    +0.000 A 
ATOM      6  C   UNL     1       4.697   5.580  18.150  0.00  0.00    +0.000 A 
ATOM      7  C   UNL     1       4.971   4.380  18.981  0.00  0.00    +0.000 C 
ATOM      8  O   UNL     1       6.100   3.893  19.057  0.00  0.00    +0.000 OA
ATOM      9  C   UNL     1       3.891   3.746  19.760  0.00  0.00    +0.000 A 
ATOM     10  C   UNL     1       4.098   2.492  20.364  0.00  0.00    +0.000 A 
ATOM     11  C   UNL     1       3.100   1.884  21.121  0.00  0.00    +0.000 A 
ATOM     12  C   UNL     1       1.879   2.529  21.291  0.00  0.00    +0.000 A 
ATOM     13  C   UNL     1       1.665   3.773  20.695  0.00  0.00    +0.000 A 
ATOM     14  C   UNL     1       2.667   4.394  19.920  0.00  0.00    +0.000 A 
ATOM     15  C   UNL     1       2.470   5.728  19.290  0.00  0.00    +0.000 C 
ATOM     16  O   UNL     1       1.479   6.398  19.557  0.00  0.00    +0.000 OA
ENDROOT
BRANCH   4  17
ATOM     17  N   UNL     1       2.031   8.179  17.716  0.00  0.00    +0.000 N 
ATOM     18  H   UNL     1       1.281   7.936  17.048  0.00  0.00    +0.000 HD
BRANCH  17  19
ATOM     19  C   UNL     1       2.107   9.608  18.026  0.00  0.00    +0.000 C 
BRANCH  19  20
ATOM     20  C   UNL     1       1.012  10.021  19.031  0.00  0.00    +0.000 C 
BRANCH  20  21
ATOM     21  N   UNL     1       0.999   9.144  20.205  0.00  0.00    +0.000 NA
ATOM     22  H   UNL     1       1.806   8.521  20.168  0.00  0.00    +0.000 HD
BRANCH  21  23
ATOM     23  C   UNL     1       1.053   9.914  21.450  0.00  0.00    +0.000 C 
BRANCH  23  24
ATOM     24  C   UNL     1      -0.056   9.465  22.419  0.00  0.00    +0.000 C 
BRANCH  24  25
ATOM     25  N   UNL     1      -0.719   8.232  21.973  0.00  0.00    +0.000 NA
ATOM     26  H   UNL     1      -1.726   8.396  22.002  0.00  0.00    +0.000 HD
ATOM     27  H   UNL     1      -0.549   7.507  22.669  0.00  0.00    +0.000 HD
ENDBRANCH  24  25
ENDBRANCH  23  24
ENDBRANCH  21  23
ENDBRANCH  20  21
ENDBRANCH  19  20
ENDBRANCH  17  19
ENDBRANCH   4  17
BRANCH  13  28
ATOM     28  O   UNL     1       0.443   4.358  20.876  0.00  0.00    +0.000 OA
ATOM     29  H   UNL     1      -0.241   3.685  21.020  0.00  0.00    +0.000 HD
ENDBRANCH  13  28
BRANCH  10  30
ATOM     30  O   UNL     1       5.269   1.787  20.255  0.00  0.00    +0.000 OA
ATOM     31  H   UNL     1       5.933   2.369  19.819  0.00  0.00    +0.000 HD
ENDBRANCH  10  30
BRANCH   1  32
ATOM     32  N   UNL     1       6.801   5.281  16.908  0.00  0.00    +0.000 N 
ATOM     33  H   UNL     1       7.618   5.520  17.479  0.00  0.00    +0.000 HD
BRANCH  32  34
ATOM     34  C   UNL     1       7.116   4.751  15.581  0.00  0.00    +0.000 C 
BRANCH  34  35
ATOM     35  C   UNL     1       6.073   3.729  15.090  0.00  0.00    +0.000 C 
BRANCH  35  36
ATOM     36  N   UNL     1       6.368   3.301  13.717  0.00  0.00    +0.000 NA
ATOM     37  H   UNL     1       7.311   3.609  13.479  0.00  0.00    +0.000 HD
BRANCH  36  38
ATOM     38  C   UNL     1       5.409   3.868  12.767  0.00  0.00    +0.000 C 
BRANCH  38  39
ATOM     39  C   UNL     1       5.061   2.832  11.684  0.00  0.00    +0.000 C 
BRANCH  39  40
ATOM     40  N   UNL     1       6.026   1.733  11.654  0.00  0.00    +0.000 NA
ATOM     41  H   UNL     1       6.383   1.636  10.705  0.00  0.00    +0.000 HD
ATOM     42  H   UNL     1       5.554   0.858  11.873  0.00  0.00    +0.000 HD
ENDBRANCH  39  40
ENDBRANCH  38  39
ENDBRANCH  36  38
ENDBRANCH  35  36
ENDBRANCH  34  35
ENDBRANCH  32  34
ENDBRANCH   1  32
TORSDOF 16
ENDMDL
MODEL 7
REMARK VINA RESULT:      -6.2      5.209      8.795
REMARK  Name = 
REMARK  16 active torsions:
REMARK  status: ('A' for Active; 'I' for Inactive)
REMARK    1  A    between atoms: N_1  and  C_2
REMARK    2  A    between atoms: C_2  and  C_3
REMARK    3  A    between atoms: C_3  and  N_4
REMARK    4  A    between atoms: N_4  and  C_5
REMARK    5  A    between atoms: C_5  and  C_6
REMARK    6  A    between atoms: C_6  and  N_7
REMARK    7  A    between atoms: N_7  and  C_8
REMARK    8  A    between atoms: C_11  and  N_12
REMARK    9  A    between atoms: N_12  and  C_13
REMARK   10  A    between atoms: C_13  and  C_14
REMARK   11  A    between atoms: C_14  and  N_15
REMARK   12  A    between atoms: N_15  and  C_16
REMARK   13  A    between atoms: C_16  and  C_17
REMARK   14  A    between atoms: C_17  and  N_18
REMARK   15  A    between atoms: C_24  and  O_25
REMARK   16  A    between atoms: C_28  and  O_29
REMARK                            x       y       z     vdW  Elec       q    Type
REMARK                         _______ _______ _______ _____ _____    ______ ____
ROOT
ATOM      1  C   UNL     1      -1.436  11.933  21.920  0.00  0.00    +0.000 A 
ATOM      2  C   UNL     1      -0.315  11.320  22.483  0.00  0.00    +0.000 A 
ATOM      3  C   UNL     1       0.492  10.458  21.751  0.00  0.00    +0.000 A 
ATOM      4  C   UNL     1       0.199  10.128  20.426  0.00  0.00    +0.000 A 
ATOM      5  C   UNL     1      -0.933  10.737  19.823  0.00  0.00    +0.000 A 
ATOM      6  C   UNL     1      -1.731  11.632  20.561  0.00  0.00    +0.000 A 
ATOM      7  C   UNL     1      -2.891  12.274  19.892  0.00  0.00    +0.000 C 
ATOM      8  O   UNL     1      -3.471  13.238  20.395  0.00  0.00    +0.000 OA
ATOM      9  C   UNL     1      -3.372  11.781  18.588  0.00  0.00    +0.000 A 
ATOM     10  C   UNL     1      -4.595  12.241  18.066  0.00  0.00    +0.000 A 
ATOM     11  C   UNL     1      -5.058  11.805  16.828  0.00  0.00    +0.000 A 
ATOM     12  C   UNL     1      -4.296  10.906  16.088  0.00  0.00    +0.000 A 
ATOM     13  C   UNL     1      -3.082  10.444  16.599  0.00  0.00    +0.000 A 
ATOM     14  C   UNL     1      -2.607  10.875  17.856  0.00  0.00    +0.000 A 
ATOM     15  C   UNL     1      -1.307  10.412  18.413  0.00  0.00    +0.000 C 
ATOM     16  O   UNL     1      -0.534   9.759  17.722  0.00  0.00    +0.000 OA
ENDROOT
BRANCH   4  17
ATOM     17  N   UNL     1       1.060   9.268  19.742  0.00  0.00    +0.000 N 
ATOM     18  H   UNL     1       0.819   9.129  18.748  0.00  0.00    +0.000 HD
BRANCH  17  19
ATOM     19  C   UNL     1       1.578   8.065  20.399  0.00  0.00    +0.000 C 
BRANCH  19  20
ATOM     20  C   UNL     1       2.407   7.207  19.422  0.00  0.00    +0.000 C 
BRANCH  20  21
ATOM     21  N   UNL     1       3.029   6.068  20.101  0.00  0.00    +0.000 NA
ATOM     22  H   UNL     1       2.712   6.039  21.070  0.00  0.00    +0.000 HD
BRANCH  21  23
ATOM     23  C   UNL     1       2.678   4.801  19.453  0.00  0.00    +0.000 C 
BRANCH  23  24
ATOM     24  C   UNL     1       2.292   5.029  17.980  0.00  0.00    +0.000 C 
BRANCH  24  25
ATOM     25  N   UNL     1       1.296   4.057  17.509  0.00  0.00    +0.000 NA
ATOM     26  H   UNL     1       0.686   4.538  16.848  0.00  0.00    +0.000 HD
ATOM     27  H   UNL     1       0.694   3.808  18.293  0.00  0.00    +0.000 HD
ENDBRANCH  24  25
ENDBRANCH  23  24
ENDBRANCH  21  23
ENDBRANCH  20  21
ENDBRANCH  19  20
ENDBRANCH  17  19
ENDBRANCH   4  17
BRANCH  13  28
ATOM     28  O   UNL     1      -2.379   9.549  15.843  0.00  0.00    +0.000 OA
ATOM     29  H   UNL     1      -1.551   9.943  15.526  0.00  0.00    +0.000 HD
ENDBRANCH  13  28
BRANCH  10  30
ATOM     30  O   UNL     1      -5.408  13.130  18.722  0.00  0.00    +0.000 OA
ATOM     31  H   UNL     1      -5.955  12.622  19.364  0.00  0.00    +0.000 HD
ENDBRANCH  10  30
BRANCH   1  32
ATOM     32  N   UNL     1      -2.302  12.687  22.710  0.00  0.00    +0.000 N 
ATOM     33  H   UNL     1      -1.959  13.631  22.920  0.00  0.00    +0.000 HD
BRANCH  32  34
ATOM     34  C   UNL     1      -3.200  12.126  23.719  0.00  0.00    +0.000 C 
BRANCH  34  35
ATOM     35  C   UNL     1      -4.574  12.823  23.742  0.00  0.00    +0.000 C 
BRANCH  35  36
ATOM     36  N   UNL     1      -5.331  12.524  22.520  0.00  0.00    +0.000 NA
ATOM     37  H   UNL     1      -4.958  13.096  21.762  0.00  0.00    +0.000 HD
BRANCH  36  38
ATOM     38  C   UNL     1      -6.756  12.809  22.697  0.00  0.00    +0.000 C 
BRANCH  38  39
ATOM     39  C   UNL     1      -7.579  12.094  21.611  0.00  0.00    +0.000 C 
BRANCH  39  40
ATOM     40  N   UNL     1      -6.749  11.195  20.807  0.00  0.00    +0.000 NA
ATOM     41  H   UNL     1      -5.904  11.691  20.528  0.00  0.00    +0.000 HD
ATOM     42  H   UNL     1      -7.239  10.958  19.947  0.00  0.00    +0.000 HD
ENDBRANCH  39  40
ENDBRANCH  38  39
ENDBRANCH  36  38
ENDBRANCH  35  36
ENDBRANCH  34  35
ENDBRANCH  32  34
ENDBRANCH   1  32
TORSDOF 16
ENDMDL
MODEL 8
REMARK VINA RESULT:      -6.2      0.667      5.185
REMARK  Name = 
REMARK  16 active torsions:
REMARK  status: ('A' for Active; 'I' for Inactive)
REMARK    1  A    between atoms: N_1  and  C_2
REMARK    2  A    between atoms: C_2  and  C_3
REMARK    3  A    between atoms: C_3  and  N_4
REMARK    4  A    between atoms: N_4  and  C_5
REMARK    5  A    between atoms: C_5  and  C_6
REMARK    6  A    between atoms: C_6  and  N_7
REMARK    7  A    between atoms: N_7  and  C_8
REMARK    8  A    between atoms: C_11  and  N_12
REMARK    9  A    between atoms: N_12  and  C_13
REMARK   10  A    between atoms: C_13  and  C_14
REMARK   11  A    between atoms: C_14  and  N_15
REMARK   12  A    between atoms: N_15  and  C_16
REMARK   13  A    between atoms: C_16  and  C_17
REMARK   14  A    between atoms: C_17  and  N_18
REMARK   15  A    between atoms: C_24  and  O_25
REMARK   16  A    between atoms: C_28  and  O_29
REMARK                            x       y       z     vdW  Elec       q    Type
REMARK                         _______ _______ _______ _____ _____    ______ ____
ROOT
ATOM      1  C   UNL     1       2.793   5.226  20.155  0.00  0.00    +0.000 A 
ATOM      2  C   UNL     1       3.682   4.526  19.336  0.00  0.00    +0.000 A 
ATOM      3  C   UNL     1       4.242   5.103  18.203  0.00  0.00    +0.000 A 
ATOM      4  C   UNL     1       3.911   6.400  17.802  0.00  0.00    +0.000 A 
ATOM      5  C   UNL     1       3.011   7.139  18.614  0.00  0.00    +0.000 A 
ATOM      6  C   UNL     1       2.469   6.559  19.776  0.00  0.00    +0.000 A 
ATOM      7  C   UNL     1       1.553   7.369  20.620  0.00  0.00    +0.000 C 
ATOM      8  O   UNL     1       1.247   7.016  21.760  0.00  0.00    +0.000 OA
ATOM      9  C   UNL     1       0.996   8.638  20.116  0.00  0.00    +0.000 A 
ATOM     10  C   UNL     1      -0.035   9.286  20.820  0.00  0.00    +0.000 A 
ATOM     11  C   UNL     1      -0.562  10.495  20.375  0.00  0.00    +0.000 A 
ATOM     12  C   UNL     1      -0.056  11.079  19.218  0.00  0.00    +0.000 A 
ATOM     13  C   UNL     1       0.968  10.443  18.512  0.00  0.00    +0.000 A 
ATOM     14  C   UNL     1       1.503   9.213  18.952  0.00  0.00    +0.000 A 
ATOM     15  C   UNL     1       2.606   8.525  18.228  0.00  0.00    +0.000 C 
ATOM     16  O   UNL     1       3.189   9.087  17.309  0.00  0.00    +0.000 OA
ENDROOT
BRANCH   4  17
ATOM     17  N   UNL     1       4.521   6.926  16.662  0.00  0.00    +0.000 N 
ATOM     18  H   UNL     1       3.897   7.501  16.074  0.00  0.00    +0.000 HD
BRANCH  17  19
ATOM     19  C   UNL     1       5.478   6.122  15.898  0.00  0.00    +0.000 C 
BRANCH  19  20
ATOM     20  C   UNL     1       6.906   6.265  16.464  0.00  0.00    +0.000 C 
BRANCH  20  21
ATOM     21  N   UNL     1       7.574   4.966  16.575  0.00  0.00    +0.000 NA
ATOM     22  H   UNL     1       8.485   5.016  16.120  0.00  0.00    +0.000 HD
BRANCH  21  23
ATOM     23  C   UNL     1       7.767   4.581  17.976  0.00  0.00    +0.000 C 
BRANCH  23  24
ATOM     24  C   UNL     1       7.805   5.823  18.885  0.00  0.00    +0.000 C 
BRANCH  24  25
ATOM     25  N   UNL     1       7.956   5.471  20.303  0.00  0.00    +0.000 NA
ATOM     26  H   UNL     1       7.376   6.114  20.843  0.00  0.00    +0.000 HD
ATOM     27  H   UNL     1       8.913   5.677  20.585  0.00  0.00    +0.000 HD
ENDBRANCH  24  25
ENDBRANCH  23  24
ENDBRANCH  21  23
ENDBRANCH  20  21
ENDBRANCH  19  20
ENDBRANCH  17  19
ENDBRANCH   4  17
BRANCH  13  28
ATOM     28  O   UNL     1       1.418  11.046  17.372  0.00  0.00    +0.000 OA
ATOM     29  H   UNL     1       1.856  11.887  17.579  0.00  0.00    +0.000 HD
ENDBRANCH  13  28
BRANCH  10  30
ATOM     30  O   UNL     1      -0.591   8.788  21.971  0.00  0.00    +0.000 OA
ATOM     31  H   UNL     1      -0.513   9.480  22.668  0.00  0.00    +0.000 HD
ENDBRANCH  10  30
BRANCH   1  32
ATOM     32  N   UNL     1       2.145   4.583  21.208  0.00  0.00    +0.000 N 
ATOM     33  H   UNL     1       2.385   4.955  22.133  0.00  0.00    +0.000 HD
BRANCH  32  34
ATOM     34  C   UNL     1       1.751   3.173  21.199  0.00  0.00    +0.000 C 
BRANCH  34  35
ATOM     35  C   UNL     1       0.931   2.797  19.950  0.00  0.00    +0.000 C 
BRANCH  35  36
ATOM     36  N   UNL     1       1.578   1.706  19.210  0.00  0.00    +0.000 NA
ATOM     37  H   UNL     1       2.392   1.395  19.741  0.00  0.00    +0.000 HD
BRANCH  36  38
ATOM     38  C   UNL     1       1.996   2.146  17.878  0.00  0.00    +0.000 C 
BRANCH  38  39
ATOM     39  C   UNL     1       3.439   1.690  17.598  0.00  0.00    +0.000 C 
BRANCH  39  40
ATOM     40  N   UNL     1       3.931   0.783  18.635  0.00  0.00    +0.000 NA
ATOM     41  H   UNL     1       3.697  -0.174  18.373  0.00  0.00    +0.000 HD
ATOM     42  H   UNL     1       3.443   0.968  19.509  0.00  0.00    +0.000 HD
ENDBRANCH  39  40
ENDBRANCH  38  39
ENDBRANCH  36  38
ENDBRANCH  35  36
ENDBRANCH  34  35
ENDBRANCH  32  34
ENDBRANCH   1  32
TORSDOF 16
ENDMDL
MODEL 9
REMARK VINA RESULT:      -6.1      1.221      1.561
REMARK  Name = 
REMARK  16 active torsions:
REMARK  status: ('A' for Active; 'I' for Inactive)
REMARK    1  A    between atoms: N_1  and  C_2
REMARK    2  A    between atoms: C_2  and  C_3
REMARK    3  A    between atoms: C_3  and  N_4
REMARK    4  A    between atoms: N_4  and  C_5
REMARK    5  A    between atoms: C_5  and  C_6
REMARK    6  A    between atoms: C_6  and  N_7
REMARK    7  A    between atoms: N_7  and  C_8
REMARK    8  A    between atoms: C_11  and  N_12
REMARK    9  A    between atoms: N_12  and  C_13
REMARK   10  A    between atoms: C_13  and  C_14
REMARK   11  A    between atoms: C_14  and  N_15
REMARK   12  A    between atoms: N_15  and  C_16
REMARK   13  A    between atoms: C_16  and  C_17
REMARK   14  A    between atoms: C_17  and  N_18
REMARK   15  A    between atoms: C_24  and  O_25
REMARK   16  A    between atoms: C_28  and  O_29
REMARK                            x       y       z     vdW  Elec       q    Type
REMARK                         _______ _______ _______ _____ _____    ______ ____
ROOT
ATOM      1  C   UNL     1       4.221   6.232  17.900  0.00  0.00    +0.000 A 
ATOM      2  C   UNL     1       4.603   4.997  18.427  0.00  0.00    +0.000 A 
ATOM      3  C   UNL     1       3.996   4.465  19.558  0.00  0.00    +0.000 A 
ATOM      4  C   UNL     1       3.000   5.159  20.250  0.00  0.00    +0.000 A 
ATOM      5  C   UNL     1       2.587   6.418  19.737  0.00  0.00    +0.000 A 
ATOM      6  C   UNL     1       3.187   6.938  18.575  0.00  0.00    +0.000 A 
ATOM      7  C   UNL     1       2.712   8.243  18.048  0.00  0.00    +0.000 C 
ATOM      8  O   UNL     1       3.014   8.629  16.917  0.00  0.00    +0.000 OA
ATOM      9  C   UNL     1       1.844   9.111  18.866  0.00  0.00    +0.000 A 
ATOM     10  C   UNL     1       1.580  10.431  18.459  0.00  0.00    +0.000 A 
ATOM     11  C   UNL     1       0.747  11.261  19.204  0.00  0.00    +0.000 A 
ATOM     12  C   UNL     1       0.158  10.776  20.367  0.00  0.00    +0.000 A 
ATOM     13  C   UNL     1       0.415   9.466  20.779  0.00  0.00    +0.000 A 
ATOM     14  C   UNL     1       1.263   8.620  20.034  0.00  0.00    +0.000 A 
ATOM     15  C   UNL     1       1.538   7.215  20.441  0.00  0.00    +0.000 C 
ATOM     16  O   UNL     1       0.908   6.702  21.359  0.00  0.00    +0.000 OA
ENDROOT
BRANCH   4  17
ATOM     17  N   UNL     1       2.420   4.562  21.370  0.00  0.00    +0.000 N 
ATOM     18  H   UNL     1       3.011   4.585  22.216  0.00  0.00    +0.000 HD
BRANCH  17  19
ATOM     19  C   UNL     1       1.635   3.334  21.229  0.00  0.00    +0.000 C 
BRANCH  19  20
ATOM     20  C   UNL     1       0.558   3.480  20.135  0.00  0.00    +0.000 C 
BRANCH  20  21
ATOM     21  N   UNL     1       0.674   2.430  19.120  0.00  0.00    +0.000 NA
ATOM     22  H   UNL     1       0.609   2.849  18.193  0.00  0.00    +0.000 HD
BRANCH  21  23
ATOM     23  C   UNL     1       1.951   1.719  19.228  0.00  0.00    +0.000 C 
BRANCH  23  24
ATOM     24  C   UNL     1       2.738   1.805  17.908  0.00  0.00    +0.000 C 
BRANCH  24  25
ATOM     25  N   UNL     1       4.093   1.251  18.030  0.00  0.00    +0.000 NA
ATOM     26  H   UNL     1       4.124   0.391  17.484  0.00  0.00    +0.000 HD
ATOM     27  H   UNL     1       4.233   0.957  18.996  0.00  0.00    +0.000 HD
ENDBRANCH  24  25
ENDBRANCH  23  24
ENDBRANCH  21  23
ENDBRANCH  20  21
ENDBRANCH  19  20
ENDBRANCH  17  19
ENDBRANCH   4  17
BRANCH  13  28
ATOM     28  O   UNL     1      -0.172   9.042  21.937  0.00  0.00    +0.000 OA
ATOM     29  H   UNL     1      -1.108   9.300  21.962  0.00  0.00    +0.000 HD
ENDBRANCH  13  28
BRANCH  10  30
ATOM     30  O   UNL     1       2.112  10.992  17.326  0.00  0.00    +0.000 OA
ATOM     31  H   UNL     1       1.675  10.575  16.549  0.00  0.00    +0.000 HD
ENDBRANCH  10  30
BRANCH   1  32
ATOM     32  N   UNL     1       4.934   6.802  16.846  0.00  0.00    +0.000 N 
ATOM     33  H   UNL     1       4.350   7.081  16.051  0.00  0.00    +0.000 HD
BRANCH  32  34
ATOM     34  C   UNL     1       6.314   6.458  16.500  0.00  0.00    +0.000 C 
BRANCH  34  35
ATOM     35  C   UNL     1       7.321   6.890  17.582  0.00  0.00    +0.000 C 
BRANCH  35  36
ATOM     36  N   UNL     1       8.089   8.061  17.144  0.00  0.00    +0.000 NA
ATOM     37  H   UNL     1       9.081   7.865  17.278  0.00  0.00    +0.000 HD
BRANCH  36  38
ATOM     38  C   UNL     1       7.714   9.255  17.905  0.00  0.00    +0.000 C 
BRANCH  38  39
ATOM     39  C   UNL     1       8.970   9.929  18.486  0.00  0.00    +0.000 C 
BRANCH  39  40
ATOM     40  N   UNL     1       9.059  11.336  18.095  0.00  0.00    +0.000 NA
ATOM     41  H   UNL     1       9.016  11.913  18.934  0.00  0.00    +0.000 HD
ATOM     42  H   UNL     1       8.247  11.586  17.534  0.00  0.00    +0.000 HD
ENDBRANCH  39  40
ENDBRANCH  38  39
ENDBRANCH  36  38
ENDBRANCH  35  36
ENDBRANCH  34  35
ENDBRANCH  32  34
ENDBRANCH   1  32
TORSDOF 16
ENDMDL
