MODEL 1
REMARK VINA RESULT:      -7.5      0.000      0.000
REMARK  Name = 
REMARK  12 active torsions:
REMARK  status: ('A' for Active; 'I' for Inactive)
REMARK    1  A    between atoms: C_1  and  C_2
REMARK    2  A    between atoms: C_2  and  O_3
REMARK    3  A    between atoms: O_3  and  C_4
REMARK    4  A    between atoms: C_4  and  C_5
REMARK    5  A    between atoms: C_4  and  O_25
REMARK    6  A    between atoms: C_5  and  C_6
REMARK    7  A    between atoms: N_8  and  N_9
REMARK    8  A    between atoms: C_10  and  C_12
REMARK    9  A    between atoms: C_13  and  C_14
REMARK   10  A    between atoms: C_23  and  C_24
REMARK   11  A    between atoms: O_25  and  C_26
REMARK   12  A    between atoms: C_26  and  C_27
REMARK                            x       y       z     vdW  Elec       q    Type
REMARK                         _______ _______ _______ _____ _____    ______ ____
ROOT
ATOM      1  N   UNL     1       2.563   7.173  18.565  0.00  0.00    +0.000 N 
ATOM      2  C   UNL     1       2.524   6.009  19.309  0.00  0.00    +0.000 C 
ATOM      3  O   UNL     1       2.073   5.984  20.451  0.00  0.00    +0.000 OA
ATOM      4  H   UNL     1       2.732   7.196  17.562  0.00  0.00    +0.000 HD
ENDROOT
BRANCH   2   5
ATOM      5  C   UNL     1       2.992   4.821  18.635  0.00  0.00    +0.000 A 
ATOM      6  C   UNL     1       4.294   4.569  18.083  0.00  0.00    +0.000 A 
ATOM      7  N   UNL     1       4.316   3.350  17.520  0.00  0.00    +0.000 NA
ATOM      8  O   UNL     1       3.063   2.814  17.671  0.00  0.00    +0.000 OA
ATOM      9  C   UNL     1       2.275   3.676  18.356  0.00  0.00    +0.000 A 
ATOM     10  C   UNL     1       0.896   3.214  18.614  0.00  0.00    +0.000 C 
BRANCH   6  11
ATOM     11  C   UNL     1       5.516   5.387  18.171  0.00  0.00    +0.000 A 
ATOM     12  C   UNL     1       6.407   5.161  19.240  0.00  0.00    +0.000 A 
ATOM     13  C   UNL     1       7.598   5.882  19.370  0.00  0.00    +0.000 A 
ATOM     14  C   UNL     1       7.941   6.827  18.411  0.00  0.00    +0.000 A 
ATOM     15  C   UNL     1       7.085   7.060  17.338  0.00  0.00    +0.000 A 
ATOM     16  C   UNL     1       5.875   6.360  17.218  0.00  0.00    +0.000 A 
ATOM     17 CL   UNL     1       4.874   6.805  15.876  0.00  0.00    +0.000 Cl
ENDBRANCH   6  11
ENDBRANCH   2   5
BRANCH   1  20
ATOM     18  C   UNL     1       1.826   9.452  18.380  0.00  0.00    +0.000 C 
ATOM     19  O   UNL     1       2.112   9.524  17.183  0.00  0.00    +0.000 OA
ATOM     20  N   UNL     1       1.938   8.294  19.112  0.00  0.00    +0.000 N 
ATOM     21  H   UNL     1       1.850   8.316  20.136  0.00  0.00    +0.000 HD
BRANCH  18  22
ATOM     22  C   UNL     1       1.267  10.609  19.171  0.00  0.00    +0.000 C 
BRANCH  22  23
ATOM     23  C   UNL     1      -0.224  10.411  19.448  0.00  0.00    +0.000 C 
BRANCH  23  24
ATOM     24  O   UNL     1      -0.465   9.645  20.629  0.00  0.00    +0.000 OA
BRANCH  24  26
ATOM     25  C   UNL     1      -0.516   9.709  23.026  0.00  0.00    +0.000 C 
ATOM     26  C   UNL     1       0.237  10.119  21.777  0.00  0.00    +0.000 C 
ENDBRANCH  24  26
ENDBRANCH  23  24
BRANCH  23  27
ATOM     27  O   UNL     1      -0.791   9.771  18.295  0.00  0.00    +0.000 OA
BRANCH  27  28
ATOM     28  C   UNL     1      -2.135  10.168  18.032  0.00  0.00    +0.000 C 
ATOM     29  C   UNL     1      -2.350  10.159  16.528  0.00  0.00    +0.000 C 
ENDBRANCH  27  28
ENDBRANCH  23  27
ENDBRANCH  22  23
ENDBRANCH  18  22
ENDBRANCH   1  20
TORSDOF 9
ENDMDL
MODEL 2
REMARK VINA RESULT:      -7.4      1.737      2.477
REMARK  Name = 
REMARK  12 active torsions:
REMARK  status: ('A' for Active; 'I' for Inactive)
REMARK    1  A    between atoms: C_1  and  C_2
REMARK    2  A    between atoms: C_2  and  O_3
REMARK    3  A    between atoms: O_3  and  C_4
REMARK    4  A    between atoms: C_4  and  C_5
REMARK    5  A    between atoms: C_4  and  O_25
REMARK    6  A    between atoms: C_5  and  C_6
REMARK    7  A    between atoms: N_8  and  N_9
REMARK    8  A    between atoms: C_10  and  C_12
REMARK    9  A    between atoms: C_13  and  C_14
REMARK   10  A    between atoms: C_23  and  C_24
REMARK   11  A    between atoms: O_25  and  C_26
REMARK   12  A    between atoms: C_26  and  C_27
REMARK                            x       y       z     vdW  Elec       q    Type
REMARK                         _______ _______ _______ _____ _____    ______ ____
ROOT
ATOM      1  N   UNL     1       2.601   6.538  20.161  0.00  0.00    +0.000 N 
ATOM      2  C   UNL     1       2.519   5.443  19.323  0.00  0.00    +0.000 C 
ATOM      3  O   UNL     1       1.857   5.465  18.288  0.00  0.00    +0.000 OA
ATOM      4  H   UNL     1       3.290   6.630  20.904  0.00  0.00    +0.000 HD
ENDROOT
BRANCH   2   5
ATOM      5  C   UNL     1       3.307   4.297  19.712  0.00  0.00    +0.000 A 
ATOM      6  C   UNL     1       4.662   3.986  19.349  0.00  0.00    +0.000 A 
ATOM      7  N   UNL     1       5.019   2.814  19.900  0.00  0.00    +0.000 NA
ATOM      8  O   UNL     1       3.930   2.347  20.591  0.00  0.00    +0.000 OA
ATOM      9  C   UNL     1       2.914   3.238  20.504  0.00  0.00    +0.000 A 
ATOM     10  C   UNL     1       1.679   2.871  21.227  0.00  0.00    +0.000 C 
BRANCH   6  11
ATOM     11  C   UNL     1       5.635   4.802  18.603  0.00  0.00    +0.000 A 
ATOM     12  C   UNL     1       6.643   5.477  19.321  0.00  0.00    +0.000 A 
ATOM     13  C   UNL     1       7.616   6.247  18.676  0.00  0.00    +0.000 A 
ATOM     14  C   UNL     1       7.621   6.333  17.289  0.00  0.00    +0.000 A 
ATOM     15  C   UNL     1       6.644   5.665  16.556  0.00  0.00    +0.000 A 
ATOM     16  C   UNL     1       5.648   4.915  17.199  0.00  0.00    +0.000 A 
ATOM     17 CL   UNL     1       4.454   4.200  16.168  0.00  0.00    +0.000 Cl
ENDBRANCH   6  11
ENDBRANCH   2   5
BRANCH   1  20
ATOM     18  C   UNL     1       1.292   8.508  20.578  0.00  0.00    +0.000 C 
ATOM     19  O   UNL     1       1.252   8.314  21.795  0.00  0.00    +0.000 OA
ATOM     20  N   UNL     1       2.014   7.722  19.713  0.00  0.00    +0.000 N 
ATOM     21  H   UNL     1       1.887   7.815  18.697  0.00  0.00    +0.000 HD
BRANCH  18  22
ATOM     22  C   UNL     1       0.598   9.665  19.900  0.00  0.00    +0.000 C 
BRANCH  22  23
ATOM     23  C   UNL     1       0.950   9.716  18.412  0.00  0.00    +0.000 C 
BRANCH  23  24
ATOM     24  O   UNL     1       1.946  10.696  18.119  0.00  0.00    +0.000 OA
BRANCH  24  26
ATOM     25  C   UNL     1       2.609  13.001  18.152  0.00  0.00    +0.000 C 
ATOM     26  C   UNL     1       1.761  11.932  18.809  0.00  0.00    +0.000 C 
ENDBRANCH  24  26
ENDBRANCH  23  24
BRANCH  23  27
ATOM     27  O   UNL     1      -0.265   9.986  17.696  0.00  0.00    +0.000 OA
BRANCH  27  28
ATOM     28  C   UNL     1      -1.370  10.275  18.548  0.00  0.00    +0.000 C 
ATOM     29  C   UNL     1      -2.651   9.976  17.787  0.00  0.00    +0.000 C 
ENDBRANCH  27  28
ENDBRANCH  23  27
ENDBRANCH  22  23
ENDBRANCH  18  22
ENDBRANCH   1  20
TORSDOF 9
ENDMDL
MODEL 3
REMARK VINA RESULT:      -7.4      1.645      2.641
REMARK  Name = 
REMARK  12 active torsions:
REMARK  status: ('A' for Active; 'I' for Inactive)
REMARK    1  A    between atoms: C_1  and  C_2
REMARK    2  A    between atoms: C_2  and  O_3
REMARK    3  A    between atoms: O_3  and  C_4
REMARK    4  A    between atoms: C_4  and  C_5
REMARK    5  A    between atoms: C_4  and  O_25
REMARK    6  A    between atoms: C_5  and  C_6
REMARK    7  A    between atoms: N_8  and  N_9
REMARK    8  A    between atoms: C_10  and  C_12
REMARK    9  A    between atoms: C_13  and  C_14
REMARK   10  A    between atoms: C_23  and  C_24
REMARK   11  A    between atoms: O_25  and  C_26
REMARK   12  A    between atoms: C_26  and  C_27
REMARK                            x       y       z     vdW  Elec       q    Type
REMARK                         _______ _______ _______ _____ _____    ______ ____
ROOT
ATOM      1  N   UNL     1       2.657   6.408  19.872  0.00  0.00    +0.000 N 
ATOM      2  C   UNL     1       2.412   5.167  19.318  0.00  0.00    +0.000 C 
ATOM      3  O   UNL     1       1.533   4.994  18.476  0.00  0.00    +0.000 OA
ATOM      4  H   UNL     1       3.494   6.632  20.406  0.00  0.00    +0.000 HD
ENDROOT
BRANCH   2   5
ATOM      5  C   UNL     1       3.290   4.105  19.748  0.00  0.00    +0.000 A 
ATOM      6  C   UNL     1       4.665   3.890  19.391  0.00  0.00    +0.000 A 
ATOM      7  N   UNL     1       5.116   2.774  19.986  0.00  0.00    +0.000 NA
ATOM      8  O   UNL     1       4.070   2.247  20.699  0.00  0.00    +0.000 OA
ATOM      9  C   UNL     1       2.984   3.049  20.581  0.00  0.00    +0.000 A 
ATOM     10  C   UNL     1       1.784   2.611  21.324  0.00  0.00    +0.000 C 
BRANCH   6  11
ATOM     11  C   UNL     1       5.569   4.753  18.611  0.00  0.00    +0.000 A 
ATOM     12  C   UNL     1       6.589   5.452  19.288  0.00  0.00    +0.000 A 
ATOM     13  C   UNL     1       7.498   6.267  18.606  0.00  0.00    +0.000 A 
ATOM     14  C   UNL     1       7.427   6.376  17.223  0.00  0.00    +0.000 A 
ATOM     15  C   UNL     1       6.436   5.686  16.530  0.00  0.00    +0.000 A 
ATOM     16  C   UNL     1       5.503   4.890  17.211  0.00  0.00    +0.000 A 
ATOM     17 CL   UNL     1       4.282   4.149  16.230  0.00  0.00    +0.000 Cl
ENDBRANCH   6  11
ENDBRANCH   2   5
BRANCH   1  20
ATOM     18  C   UNL     1       2.486   8.196  18.278  0.00  0.00    +0.000 C 
ATOM     19  O   UNL     1       3.488   7.837  17.656  0.00  0.00    +0.000 OA
ATOM     20  N   UNL     1       1.961   7.490  19.333  0.00  0.00    +0.000 N 
ATOM     21  H   UNL     1       1.231   7.907  19.926  0.00  0.00    +0.000 HD
BRANCH  18  22
ATOM     22  C   UNL     1       1.684   9.424  17.920  0.00  0.00    +0.000 C 
BRANCH  22  23
ATOM     23  C   UNL     1       0.624   9.713  18.984  0.00  0.00    +0.000 C 
BRANCH  23  24
ATOM     24  O   UNL     1      -0.454  10.505  18.483  0.00  0.00    +0.000 OA
BRANCH  24  26
ATOM     25  C   UNL     1      -2.708  10.217  17.716  0.00  0.00    +0.000 C 
ATOM     26  C   UNL     1      -1.256   9.837  17.510  0.00  0.00    +0.000 C 
ENDBRANCH  24  26
ENDBRANCH  23  24
BRANCH  23  27
ATOM     27  O   UNL     1       1.284  10.374  20.075  0.00  0.00    +0.000 OA
BRANCH  27  28
ATOM     28  C   UNL     1       0.481  10.463  21.249  0.00  0.00    +0.000 C 
ATOM     29  C   UNL     1      -0.091   9.087  21.543  0.00  0.00    +0.000 C 
ENDBRANCH  27  28
ENDBRANCH  23  27
ENDBRANCH  22  23
ENDBRANCH  18  22
ENDBRANCH   1  20
TORSDOF 9
ENDMDL
MODEL 4
REMARK VINA RESULT:      -7.4      1.821      2.671
REMARK  Name = 
REMARK  12 active torsions:
REMARK  status: ('A' for Active; 'I' for Inactive)
REMARK    1  A    between atoms: C_1  and  C_2
REMARK    2  A    between atoms: C_2  and  O_3
REMARK    3  A    between atoms: O_3  and  C_4
REMARK    4  A    between atoms: C_4  and  C_5
REMARK    5  A    between atoms: C_4  and  O_25
REMARK    6  A    between atoms: C_5  and  C_6
REMARK    7  A    between atoms: N_8  and  N_9
REMARK    8  A    between atoms: C_10  and  C_12
REMARK    9  A    between atoms: C_13  and  C_14
REMARK   10  A    between atoms: C_23  and  C_24
REMARK   11  A    between atoms: O_25  and  C_26
REMARK   12  A    between atoms: C_26  and  C_27
REMARK                            x       y       z     vdW  Elec       q    Type
REMARK                         _______ _______ _______ _____ _____    ______ ____
ROOT
ATOM      1  N   UNL     1       2.742   6.455  19.852  0.00  0.00    +0.000 N 
ATOM      2  C   UNL     1       2.430   5.226  19.304  0.00  0.00    +0.000 C 
ATOM      3  O   UNL     1       1.537   5.095  18.470  0.00  0.00    +0.000 OA
ATOM      4  H   UNL     1       3.594   6.638  20.378  0.00  0.00    +0.000 HD
ENDROOT
BRANCH   2   5
ATOM      5  C   UNL     1       3.257   4.122  19.731  0.00  0.00    +0.000 A 
ATOM      6  C   UNL     1       4.625   3.852  19.384  0.00  0.00    +0.000 A 
ATOM      7  N   UNL     1       5.021   2.710  19.971  0.00  0.00    +0.000 NA
ATOM      8  O   UNL     1       3.946   2.222  20.668  0.00  0.00    +0.000 OA
ATOM      9  C   UNL     1       2.898   3.071  20.549  0.00  0.00    +0.000 A 
ATOM     10  C   UNL     1       1.673   2.679  21.276  0.00  0.00    +0.000 C 
BRANCH   6  11
ATOM     11  C   UNL     1       5.572   4.683  18.622  0.00  0.00    +0.000 A 
ATOM     12  C   UNL     1       6.555   5.409  19.326  0.00  0.00    +0.000 A 
ATOM     13  C   UNL     1       7.503   6.196  18.665  0.00  0.00    +0.000 A 
ATOM     14  C   UNL     1       7.509   6.249  17.277  0.00  0.00    +0.000 A 
ATOM     15  C   UNL     1       6.558   5.531  16.557  0.00  0.00    +0.000 A 
ATOM     16  C   UNL     1       5.586   4.763  17.216  0.00  0.00    +0.000 A 
ATOM     17 CL   UNL     1       4.420   3.984  16.199  0.00  0.00    +0.000 Cl
ENDBRANCH   6  11
ENDBRANCH   2   5
BRANCH   1  20
ATOM     18  C   UNL     1       2.588   8.177  18.185  0.00  0.00    +0.000 C 
ATOM     19  O   UNL     1       3.499   7.702  17.504  0.00  0.00    +0.000 OA
ATOM     20  N   UNL     1       2.097   7.569  19.315  0.00  0.00    +0.000 N 
ATOM     21  H   UNL     1       1.458   8.075  19.943  0.00  0.00    +0.000 HD
BRANCH  18  22
ATOM     22  C   UNL     1       1.865   9.454  17.830  0.00  0.00    +0.000 C 
BRANCH  22  23
ATOM     23  C   UNL     1       1.142  10.030  19.048  0.00  0.00    +0.000 C 
BRANCH  23  24
ATOM     24  O   UNL     1      -0.250   9.714  19.058  0.00  0.00    +0.000 OA
BRANCH  24  26
ATOM     25  C   UNL     1      -1.812  10.043  17.268  0.00  0.00    +0.000 C 
ATOM     26  C   UNL     1      -1.068  10.691  18.417  0.00  0.00    +0.000 C 
ENDBRANCH  24  26
ENDBRANCH  23  24
BRANCH  23  27
ATOM     27  O   UNL     1       1.348  11.451  19.035  0.00  0.00    +0.000 OA
BRANCH  27  28
ATOM     28  C   UNL     1       2.359  11.866  18.119  0.00  0.00    +0.000 C 
ATOM     29  C   UNL     1       2.538  13.368  18.254  0.00  0.00    +0.000 C 
ENDBRANCH  27  28
ENDBRANCH  23  27
ENDBRANCH  22  23
ENDBRANCH  18  22
ENDBRANCH   1  20
TORSDOF 9
ENDMDL
MODEL 5
REMARK VINA RESULT:      -7.3      1.938      3.073
REMARK  Name = 
REMARK  12 active torsions:
REMARK  status: ('A' for Active; 'I' for Inactive)
REMARK    1  A    between atoms: C_1  and  C_2
REMARK    2  A    between atoms: C_2  and  O_3
REMARK    3  A    between atoms: O_3  and  C_4
REMARK    4  A    between atoms: C_4  and  C_5
REMARK    5  A    between atoms: C_4  and  O_25
REMARK    6  A    between atoms: C_5  and  C_6
REMARK    7  A    between atoms: N_8  and  N_9
REMARK    8  A    between atoms: C_10  and  C_12
REMARK    9  A    between atoms: C_13  and  C_14
REMARK   10  A    between atoms: C_23  and  C_24
REMARK   11  A    between atoms: O_25  and  C_26
REMARK   12  A    between atoms: C_26  and  C_27
REMARK                            x       y       z     vdW  Elec       q    Type
REMARK                         _______ _______ _______ _____ _____    ______ ____
ROOT
ATOM      1  N   UNL     1       2.667   6.370  19.776  0.00  0.00    +0.000 N 
ATOM      2  C   UNL     1       2.411   5.153  19.174  0.00  0.00    +0.000 C 
ATOM      3  O   UNL     1       1.560   5.030  18.297  0.00  0.00    +0.000 OA
ATOM      4  H   UNL     1       3.489   6.555  20.347  0.00  0.00    +0.000 HD
ENDROOT
BRANCH   2   5
ATOM      5  C   UNL     1       3.245   4.056  19.602  0.00  0.00    +0.000 A 
ATOM      6  C   UNL     1       4.455   3.571  18.995  0.00  0.00    +0.000 A 
ATOM      7  N   UNL     1       4.914   2.515  19.687  0.00  0.00    +0.000 NA
ATOM      8  O   UNL     1       4.028   2.287  20.708  0.00  0.00    +0.000 OA
ATOM      9  C   UNL     1       3.043   3.217  20.678  0.00  0.00    +0.000 A 
ATOM     10  C   UNL     1       2.027   3.105  21.744  0.00  0.00    +0.000 C 
BRANCH   6  11
ATOM     11  C   UNL     1       5.224   4.137  17.874  0.00  0.00    +0.000 A 
ATOM     12  C   UNL     1       4.827   3.830  16.557  0.00  0.00    +0.000 A 
ATOM     13  C   UNL     1       5.495   4.354  15.446  0.00  0.00    +0.000 A 
ATOM     14  C   UNL     1       6.560   5.227  15.629  0.00  0.00    +0.000 A 
ATOM     15  C   UNL     1       6.964   5.558  16.919  0.00  0.00    +0.000 A 
ATOM     16  C   UNL     1       6.316   5.012  18.038  0.00  0.00    +0.000 A 
ATOM     17 CL   UNL     1       6.971   5.450  19.581  0.00  0.00    +0.000 Cl
ENDBRANCH   6  11
ENDBRANCH   2   5
BRANCH   1  20
ATOM     18  C   UNL     1       2.576   8.181  18.201  0.00  0.00    +0.000 C 
ATOM     19  O   UNL     1       3.564   7.786  17.578  0.00  0.00    +0.000 OA
ATOM     20  N   UNL     1       2.018   7.486  19.248  0.00  0.00    +0.000 N 
ATOM     21  H   UNL     1       1.305   7.927  19.844  0.00  0.00    +0.000 HD
BRANCH  18  22
ATOM     22  C   UNL     1       1.828   9.446  17.856  0.00  0.00    +0.000 C 
BRANCH  22  23
ATOM     23  C   UNL     1       0.616   9.631  18.771  0.00  0.00    +0.000 C 
BRANCH  23  24
ATOM     24  O   UNL     1      -0.305  10.600  18.269  0.00  0.00    +0.000 OA
BRANCH  24  26
ATOM     25  C   UNL     1      -2.683  10.805  18.033  0.00  0.00    +0.000 C 
ATOM     26  C   UNL     1      -1.446  10.033  17.625  0.00  0.00    +0.000 C 
ENDBRANCH  24  26
ENDBRANCH  23  24
BRANCH  23  27
ATOM     27  O   UNL     1       1.112  10.012  20.063  0.00  0.00    +0.000 OA
BRANCH  27  28
ATOM     28  C   UNL     1       0.158   9.838  21.108  0.00  0.00    +0.000 C 
ATOM     29  C   UNL     1       0.853   9.171  22.283  0.00  0.00    +0.000 C 
ENDBRANCH  27  28
ENDBRANCH  23  27
ENDBRANCH  22  23
ENDBRANCH  18  22
ENDBRANCH   1  20
TORSDOF 9
ENDMDL
MODEL 6
REMARK VINA RESULT:      -7.3      2.046      2.786
REMARK  Name = 
REMARK  12 active torsions:
REMARK  status: ('A' for Active; 'I' for Inactive)
REMARK    1  A    between atoms: C_1  and  C_2
REMARK    2  A    between atoms: C_2  and  O_3
REMARK    3  A    between atoms: O_3  and  C_4
REMARK    4  A    between atoms: C_4  and  C_5
REMARK    5  A    between atoms: C_4  and  O_25
REMARK    6  A    between atoms: C_5  and  C_6
REMARK    7  A    between atoms: N_8  and  N_9
REMARK    8  A    between atoms: C_10  and  C_12
REMARK    9  A    between atoms: C_13  and  C_14
REMARK   10  A    between atoms: C_23  and  C_24
REMARK   11  A    between atoms: O_25  and  C_26
REMARK   12  A    between atoms: C_26  and  C_27
REMARK                            x       y       z     vdW  Elec       q    Type
REMARK                         _______ _______ _______ _____ _____    ______ ____
ROOT
ATOM      1  N   UNL     1       2.494   6.517  20.146  0.00  0.00    +0.000 N 
ATOM      2  C   UNL     1       2.537   5.536  19.174  0.00  0.00    +0.000 C 
ATOM      3  O   UNL     1       2.040   5.701  18.062  0.00  0.00    +0.000 OA
ATOM      4  H   UNL     1       3.063   6.500  20.990  0.00  0.00    +0.000 HD
ENDROOT
BRANCH   2   5
ATOM      5  C   UNL     1       3.251   4.333  19.530  0.00  0.00    +0.000 A 
ATOM      6  C   UNL     1       4.391   3.751  18.878  0.00  0.00    +0.000 A 
ATOM      7  N   UNL     1       4.741   2.617  19.507  0.00  0.00    +0.000 NA
ATOM      8  O   UNL     1       3.848   2.434  20.532  0.00  0.00    +0.000 OA
ATOM      9  C   UNL     1       2.971   3.466  20.567  0.00  0.00    +0.000 A 
ATOM     10  C   UNL     1       1.963   3.411  21.644  0.00  0.00    +0.000 C 
BRANCH   6  11
ATOM     11  C   UNL     1       5.204   4.287  17.772  0.00  0.00    +0.000 A 
ATOM     12  C   UNL     1       4.819   3.998  16.447  0.00  0.00    +0.000 A 
ATOM     13  C   UNL     1       5.529   4.497  15.350  0.00  0.00    +0.000 A 
ATOM     14  C   UNL     1       6.624   5.325  15.555  0.00  0.00    +0.000 A 
ATOM     15  C   UNL     1       7.018   5.637  16.853  0.00  0.00    +0.000 A 
ATOM     16  C   UNL     1       6.327   5.116  17.958  0.00  0.00    +0.000 A 
ATOM     17 CL   UNL     1       6.971   5.525  19.514  0.00  0.00    +0.000 Cl
ENDBRANCH   6  11
ENDBRANCH   2   5
BRANCH   1  20
ATOM     18  C   UNL     1       1.333   8.549  20.682  0.00  0.00    +0.000 C 
ATOM     19  O   UNL     1       1.293   8.296  21.887  0.00  0.00    +0.000 OA
ATOM     20  N   UNL     1       1.987   7.760  19.767  0.00  0.00    +0.000 N 
ATOM     21  H   UNL     1       1.857   7.914  18.759  0.00  0.00    +0.000 HD
BRANCH  18  22
ATOM     22  C   UNL     1       0.715   9.785  20.073  0.00  0.00    +0.000 C 
BRANCH  22  23
ATOM     23  C   UNL     1       1.245  10.020  18.658  0.00  0.00    +0.000 C 
BRANCH  23  24
ATOM     24  O   UNL     1       1.652  11.372  18.444  0.00  0.00    +0.000 OA
BRANCH  24  26
ATOM     25  C   UNL     1       2.485  13.385  19.449  0.00  0.00    +0.000 C 
ATOM     26  C   UNL     1       1.563  12.193  19.608  0.00  0.00    +0.000 C 
ENDBRANCH  24  26
ENDBRANCH  23  24
BRANCH  23  27
ATOM     27  O   UNL     1       0.202   9.646  17.744  0.00  0.00    +0.000 OA
BRANCH  27  28
ATOM     28  C   UNL     1      -1.060  10.227  18.060  0.00  0.00    +0.000 C 
ATOM     29  C   UNL     1      -2.039   9.873  16.954  0.00  0.00    +0.000 C 
ENDBRANCH  27  28
ENDBRANCH  23  27
ENDBRANCH  22  23
ENDBRANCH  18  22
ENDBRANCH   1  20
TORSDOF 9
ENDMDL
MODEL 7
REMARK VINA RESULT:      -7.3      1.942      3.163
REMARK  Name = 
REMARK  12 active torsions:
REMARK  status: ('A' for Active; 'I' for Inactive)
REMARK    1  A    between atoms: C_1  and  C_2
REMARK    2  A    between atoms: C_2  and  O_3
REMARK    3  A    between atoms: O_3  and  C_4
REMARK    4  A    between atoms: C_4  and  C_5
REMARK    5  A    between atoms: C_4  and  O_25
REMARK    6  A    between atoms: C_5  and  C_6
REMARK    7  A    between atoms: N_8  and  N_9
REMARK    8  A    between atoms: C_10  and  C_12
REMARK    9  A    between atoms: C_13  and  C_14
REMARK   10  A    between atoms: C_23  and  C_24
REMARK   11  A    between atoms: O_25  and  C_26
REMARK   12  A    between atoms: C_26  and  C_27
REMARK                            x       y       z     vdW  Elec       q    Type
REMARK                         _______ _______ _______ _____ _____    ______ ____
ROOT
ATOM      1  N   UNL     1       2.738   6.608  19.788  0.00  0.00    +0.000 N 
ATOM      2  C   UNL     1       2.572   5.478  19.011  0.00  0.00    +0.000 C 
ATOM      3  O   UNL     1       1.909   5.491  17.978  0.00  0.00    +0.000 OA
ATOM      4  H   UNL     1       3.436   6.691  20.524  0.00  0.00    +0.000 HD
ENDROOT
BRANCH   2   5
ATOM      5  C   UNL     1       3.276   4.300  19.463  0.00  0.00    +0.000 A 
ATOM      6  C   UNL     1       4.451   3.697  18.898  0.00  0.00    +0.000 A 
ATOM      7  N   UNL     1       4.776   2.599  19.601  0.00  0.00    +0.000 NA
ATOM      8  O   UNL     1       3.835   2.460  20.589  0.00  0.00    +0.000 OA
ATOM      9  C   UNL     1       2.951   3.485  20.528  0.00  0.00    +0.000 A 
ATOM     10  C   UNL     1       1.890   3.475  21.556  0.00  0.00    +0.000 C 
BRANCH   6  11
ATOM     11  C   UNL     1       5.314   4.184  17.808  0.00  0.00    +0.000 A 
ATOM     12  C   UNL     1       5.001   3.819  16.483  0.00  0.00    +0.000 A 
ATOM     13  C   UNL     1       5.760   4.267  15.398  0.00  0.00    +0.000 A 
ATOM     14  C   UNL     1       6.836   5.120  15.613  0.00  0.00    +0.000 A 
ATOM     15  C   UNL     1       7.158   5.506  16.911  0.00  0.00    +0.000 A 
ATOM     16  C   UNL     1       6.417   5.036  18.006  0.00  0.00    +0.000 A 
ATOM     17 CL   UNL     1       6.976   5.536  19.568  0.00  0.00    +0.000 Cl
ENDBRANCH   6  11
ENDBRANCH   2   5
BRANCH   1  20
ATOM     18  C   UNL     1       1.388   8.580  20.028  0.00  0.00    +0.000 C 
ATOM     19  O   UNL     1       1.149   8.361  21.218  0.00  0.00    +0.000 OA
ATOM     20  N   UNL     1       2.237   7.806  19.275  0.00  0.00    +0.000 N 
ATOM     21  H   UNL     1       2.278   7.920  18.254  0.00  0.00    +0.000 HD
BRANCH  18  22
ATOM     22  C   UNL     1       0.819   9.755  19.270  0.00  0.00    +0.000 C 
BRANCH  22  23
ATOM     23  C   UNL     1      -0.503  10.214  19.887  0.00  0.00    +0.000 C 
BRANCH  23  24
ATOM     24  O   UNL     1      -1.594  10.129  18.970  0.00  0.00    +0.000 OA
BRANCH  24  26
ATOM     25  C   UNL     1      -2.425   9.985  16.724  0.00  0.00    +0.000 C 
ATOM     26  C   UNL     1      -1.193  10.005  17.606  0.00  0.00    +0.000 C 
ENDBRANCH  24  26
ENDBRANCH  23  24
BRANCH  23  27
ATOM     27  O   UNL     1      -0.317  11.564  20.341  0.00  0.00    +0.000 OA
BRANCH  27  28
ATOM     28  C   UNL     1       0.067  11.651  21.711  0.00  0.00    +0.000 C 
ATOM     29  C   UNL     1      -1.042  11.048  22.557  0.00  0.00    +0.000 C 
ENDBRANCH  27  28
ENDBRANCH  23  27
ENDBRANCH  22  23
ENDBRANCH  18  22
ENDBRANCH   1  20
TORSDOF 9
ENDMDL
MODEL 8
REMARK VINA RESULT:      -7.2      2.089      2.957
REMARK  Name = 
REMARK  12 active torsions:
REMARK  status: ('A' for Active; 'I' for Inactive)
REMARK    1  A    between atoms: C_1  and  C_2
REMARK    2  A    between atoms: C_2  and  O_3
REMARK    3  A    between atoms: O_3  and  C_4
REMARK    4  A    between atoms: C_4  and  C_5
REMARK    5  A    between atoms: C_4  and  O_25
REMARK    6  A    between atoms: C_5  and  C_6
REMARK    7  A    between atoms: N_8  and  N_9
REMARK    8  A    between atoms: C_10  and  C_12
REMARK    9  A    between atoms: C_13  and  C_14
REMARK   10  A    between atoms: C_23  and  C_24
REMARK   11  A    between atoms: O_25  and  C_26
REMARK   12  A    between atoms: C_26  and  C_27
REMARK                            x       y       z     vdW  Elec       q    Type
REMARK                         _______ _______ _______ _____ _____    ______ ____
ROOT
ATOM      1  N   UNL     1       2.826   6.459  19.708  0.00  0.00    +0.000 N 
ATOM      2  C   UNL     1       2.466   5.235  19.178  0.00  0.00    +0.000 C 
ATOM      3  O   UNL     1       1.547   5.123  18.370  0.00  0.00    +0.000 OA
ATOM      4  H   UNL     1       3.696   6.622  20.210  0.00  0.00    +0.000 HD
ENDROOT
BRANCH   2   5
ATOM      5  C   UNL     1       3.274   4.112  19.591  0.00  0.00    +0.000 A 
ATOM      6  C   UNL     1       4.477   3.613  18.984  0.00  0.00    +0.000 A 
ATOM      7  N   UNL     1       4.909   2.535  19.659  0.00  0.00    +0.000 NA
ATOM      8  O   UNL     1       4.011   2.307  20.670  0.00  0.00    +0.000 OA
ATOM      9  C   UNL     1       3.046   3.258  20.650  0.00  0.00    +0.000 A 
ATOM     10  C   UNL     1       2.020   3.148  21.707  0.00  0.00    +0.000 C 
BRANCH   6  11
ATOM     11  C   UNL     1       5.266   4.183  17.878  0.00  0.00    +0.000 A 
ATOM     12  C   UNL     1       4.894   3.877  16.553  0.00  0.00    +0.000 A 
ATOM     13  C   UNL     1       5.582   4.405  15.456  0.00  0.00    +0.000 A 
ATOM     14  C   UNL     1       6.641   5.281  15.661  0.00  0.00    +0.000 A 
ATOM     15  C   UNL     1       7.020   5.610  16.959  0.00  0.00    +0.000 A 
ATOM     16  C   UNL     1       6.352   5.060  18.064  0.00  0.00    +0.000 A 
ATOM     17 CL   UNL     1       6.977   5.497  19.620  0.00  0.00    +0.000 Cl
ENDBRANCH   6  11
ENDBRANCH   2   5
BRANCH   1  20
ATOM     18  C   UNL     1       2.701   8.202  18.060  0.00  0.00    +0.000 C 
ATOM     19  O   UNL     1       3.610   7.723  17.378  0.00  0.00    +0.000 OA
ATOM     20  N   UNL     1       2.196   7.587  19.180  0.00  0.00    +0.000 N 
ATOM     21  H   UNL     1       1.561   8.093  19.810  0.00  0.00    +0.000 HD
BRANCH  18  22
ATOM     22  C   UNL     1       1.996   9.491  17.715  0.00  0.00    +0.000 C 
BRANCH  22  23
ATOM     23  C   UNL     1       0.726   9.659  18.551  0.00  0.00    +0.000 C 
BRANCH  23  24
ATOM     24  O   UNL     1      -0.444   9.809  17.746  0.00  0.00    +0.000 OA
BRANCH  24  26
ATOM     25  C   UNL     1      -2.261  11.362  17.546  0.00  0.00    +0.000 C 
ATOM     26  C   UNL     1      -1.558  10.364  18.444  0.00  0.00    +0.000 C 
ENDBRANCH  24  26
ENDBRANCH  23  24
BRANCH  23  27
ATOM     27  O   UNL     1       0.920  10.804  19.396  0.00  0.00    +0.000 OA
BRANCH  27  28
ATOM     28  C   UNL     1       1.745  11.806  18.807  0.00  0.00    +0.000 C 
ATOM     29  C   UNL     1       0.957  13.104  18.755  0.00  0.00    +0.000 C 
ENDBRANCH  27  28
ENDBRANCH  23  27
ENDBRANCH  22  23
ENDBRANCH  18  22
ENDBRANCH   1  20
TORSDOF 9
ENDMDL
MODEL 9
REMARK VINA RESULT:      -7.2      2.065      2.778
REMARK  Name = 
REMARK  12 active torsions:
REMARK  status: ('A' for Active; 'I' for Inactive)
REMARK    1  A    between atoms: C_1  and  C_2
REMARK    2  A    between atoms: C_2  and  O_3
REMARK    3  A    between atoms: O_3  and  C_4
REMARK    4  A    between atoms: C_4  and  C_5
REMARK    5  A    between atoms: C_4  and  O_25
REMARK    6  A    between atoms: C_5  and  C_6
REMARK    7  A    between atoms: N_8  and  N_9
REMARK    8  A    between atoms: C_10  and  C_12
REMARK    9  A    between atoms: C_13  and  C_14
REMARK   10  A    between atoms: C_23  and  C_24
REMARK   11  A    between atoms: O_25  and  C_26
REMARK   12  A    between atoms: C_26  and  C_27
REMARK                            x       y       z     vdW  Elec       q    Type
REMARK                         _______ _______ _______ _____ _____    ______ ____
ROOT
ATOM      1  N   UNL     1       2.667   6.340  19.754  0.00  0.00    +0.000 N 
ATOM      2  C   UNL     1       2.385   5.106  19.201  0.00  0.00    +0.000 C 
ATOM      3  O   UNL     1       1.490   4.953  18.374  0.00  0.00    +0.000 OA
ATOM      4  H   UNL     1       3.517   6.545  20.274  0.00  0.00    +0.000 HD
ENDROOT
BRANCH   2   5
ATOM      5  C   UNL     1       3.248   4.024  19.616  0.00  0.00    +0.000 A 
ATOM      6  C   UNL     1       4.466   3.575  19.001  0.00  0.00    +0.000 A 
ATOM      7  N   UNL     1       4.953   2.523  19.680  0.00  0.00    +0.000 NA
ATOM      8  O   UNL     1       4.076   2.264  20.703  0.00  0.00    +0.000 OA
ATOM      9  C   UNL     1       3.069   3.170  20.685  0.00  0.00    +0.000 A 
ATOM     10  C   UNL     1       2.060   3.024  21.753  0.00  0.00    +0.000 C 
BRANCH   6  11
ATOM     11  C   UNL     1       5.217   4.170  17.882  0.00  0.00    +0.000 A 
ATOM     12  C   UNL     1       4.811   3.880  16.564  0.00  0.00    +0.000 A 
ATOM     13  C   UNL     1       5.462   4.432  15.456  0.00  0.00    +0.000 A 
ATOM     14  C   UNL     1       6.518   5.315  15.644  0.00  0.00    +0.000 A 
ATOM     15  C   UNL     1       6.931   5.627  16.936  0.00  0.00    +0.000 A 
ATOM     16  C   UNL     1       6.300   5.054  18.051  0.00  0.00    +0.000 A 
ATOM     17 CL   UNL     1       6.966   5.473  19.595  0.00  0.00    +0.000 Cl
ENDBRANCH   6  11
ENDBRANCH   2   5
BRANCH   1  20
ATOM     18  C   UNL     1       2.531   8.166  18.199  0.00  0.00    +0.000 C 
ATOM     19  O   UNL     1       3.542   7.816  17.586  0.00  0.00    +0.000 OA
ATOM     20  N   UNL     1       1.985   7.438  19.228  0.00  0.00    +0.000 N 
ATOM     21  H   UNL     1       1.247   7.844  19.818  0.00  0.00    +0.000 HD
BRANCH  18  22
ATOM     22  C   UNL     1       1.742   9.406  17.856  0.00  0.00    +0.000 C 
BRANCH  22  23
ATOM     23  C   UNL     1       1.247  10.105  19.123  0.00  0.00    +0.000 C 
BRANCH  23  24
ATOM     24  O   UNL     1       0.044   9.529  19.633  0.00  0.00    +0.000 OA
BRANCH  24  26
ATOM     25  C   UNL     1       1.008   9.527  21.829  0.00  0.00    +0.000 C 
ATOM     26  C   UNL     1      -0.217   9.851  20.998  0.00  0.00    +0.000 C 
ENDBRANCH  24  26
ENDBRANCH  23  24
BRANCH  23  27
ATOM     27  O   UNL     1       1.057  11.491  18.798  0.00  0.00    +0.000 OA
BRANCH  27  28
ATOM     28  C   UNL     1       2.244  12.131  18.336  0.00  0.00    +0.000 C 
ATOM     29  C   UNL     1       2.529  13.319  19.238  0.00  0.00    +0.000 C 
ENDBRANCH  27  28
ENDBRANCH  23  27
ENDBRANCH  22  23
ENDBRANCH  18  22
ENDBRANCH   1  20
TORSDOF 9
ENDMDL
