MODEL 1
REMARK VINA RESULT:      -7.5      0.000      0.000
REMARK  Name = 
REMARK  3 active torsions:
REMARK  status: ('A' for Active; 'I' for Inactive)
REMARK    1  A    between atoms: C_1  and  C_2
REMARK    2  A    between atoms: N_4  and  C_5
REMARK    3  A    between atoms: C_8  and  C_9
REMARK                            x       y       z     vdW  Elec       q    Type
REMARK                         _______ _______ _______ _____ _____    ______ ____
ROOT
ATOM      1  C   UNL     1       7.435   7.552  17.268  0.00  0.00    +0.000 C 
ATOM      2  C   UNL     1       6.849   6.200  16.993  0.00  0.00    +0.000 C 
ATOM      3  N   UNL     1       5.702   5.860  17.477  0.00  0.00    +0.000 NA
ATOM      4  N   UNL     1       5.317   4.542  17.406  0.00  0.00    +0.000 N 
ATOM      5  C   UNL     1       5.242   3.805  16.218  0.00  0.00    +0.000 C 
ATOM      6  O   UNL     1       4.554   2.787  16.086  0.00  0.00    +0.000 OA
ATOM      7  C   UNL     1       5.992   4.254  15.028  0.00  0.00    +0.000 A 
ATOM      8  C   UNL     1       5.537   3.845  13.763  0.00  0.00    +0.000 A 
ATOM      9  C   UNL     1       6.273   4.135  12.614  0.00  0.00    +0.000 A 
ATOM     10  C   UNL     1       7.479   4.822  12.719  0.00  0.00    +0.000 A 
ATOM     11  C   UNL     1       7.935   5.239  13.969  0.00  0.00    +0.000 A 
ATOM     12  C   UNL     1       7.181   4.970  15.118  0.00  0.00    +0.000 A 
ATOM     13  O   UNL     1       7.732   5.390  16.325  0.00  0.00    +0.000 OA
ENDROOT
BRANCH   4  14
ATOM     14  C   UNL     1       4.464   4.147  18.481  0.00  0.00    +0.000 A 
ATOM     15  N   UNL     1       4.815   3.045  19.209  0.00  0.00    +0.000 NA
ATOM     16  C   UNL     1       4.015   2.678  20.234  0.00  0.00    +0.000 A 
ATOM     17  C   UNL     1       2.832   3.320  20.559  0.00  0.00    +0.000 A 
ATOM     18  C   UNL     1       2.455   4.417  19.778  0.00  0.00    +0.000 A 
ATOM     19  C   UNL     1       3.274   4.842  18.729  0.00  0.00    +0.000 A 
ATOM     20 CL   UNL     1       2.670   6.099  17.708  0.00  0.00    +0.000 Cl
BRANCH  17  21
ATOM     21  C   UNL     1       1.972   2.829  21.681  0.00  0.00    +0.000 C 
ATOM     22  F   UNL     1       0.641   2.841  21.396  0.00  0.00    +0.000 F 
ATOM     23  F   UNL     1       2.265   1.551  22.044  0.00  0.00    +0.000 F 
ATOM     24  F   UNL     1       2.119   3.580  22.808  0.00  0.00    +0.000 F 
ENDBRANCH  17  21
ENDBRANCH   4  14
TORSDOF 2
ENDMDL
MODEL 2
REMARK VINA RESULT:      -7.5      4.572      7.269
REMARK  Name = 
REMARK  3 active torsions:
REMARK  status: ('A' for Active; 'I' for Inactive)
REMARK    1  A    between atoms: C_1  and  C_2
REMARK    2  A    between atoms: N_4  and  C_5
REMARK    3  A    between atoms: C_8  and  C_9
REMARK                            x       y       z     vdW  Elec       q    Type
REMARK                         _______ _______ _______ _____ _____    ______ ____
ROOT
ATOM      1  C   UNL     1       2.389   7.819  18.555  0.00  0.00    +0.000 C 
ATOM      2  C   UNL     1       2.833   6.428  18.217  0.00  0.00    +0.000 C 
ATOM      3  N   UNL     1       3.991   6.207  17.692  0.00  0.00    +0.000 NA
ATOM      4  N   UNL     1       4.259   4.960  17.177  0.00  0.00    +0.000 N 
ATOM      5  C   UNL     1       4.155   3.769  17.904  0.00  0.00    +0.000 C 
ATOM      6  O   UNL     1       4.741   2.725  17.596  0.00  0.00    +0.000 OA
ATOM      7  C   UNL     1       3.328   3.724  19.127  0.00  0.00    +0.000 A 
ATOM      8  C   UNL     1       3.621   2.745  20.091  0.00  0.00    +0.000 A 
ATOM      9  C   UNL     1       2.800   2.576  21.207  0.00  0.00    +0.000 A 
ATOM     10  C   UNL     1       1.671   3.374  21.362  0.00  0.00    +0.000 A 
ATOM     11  C   UNL     1       1.376   4.356  20.415  0.00  0.00    +0.000 A 
ATOM     12  C   UNL     1       2.217   4.540  19.310  0.00  0.00    +0.000 A 
ATOM     13  O   UNL     1       1.825   5.515  18.397  0.00  0.00    +0.000 OA
ENDROOT
BRANCH   4  14
ATOM     14  C   UNL     1       5.179   4.988  16.086  0.00  0.00    +0.000 A 
ATOM     15  N   UNL     1       4.736   4.578  14.860  0.00  0.00    +0.000 NA
ATOM     16  C   UNL     1       5.604   4.616  13.825  0.00  0.00    +0.000 A 
ATOM     17  C   UNL     1       6.930   4.996  13.941  0.00  0.00    +0.000 A 
ATOM     18  C   UNL     1       7.388   5.367  15.209  0.00  0.00    +0.000 A 
ATOM     19  C   UNL     1       6.511   5.368  16.296  0.00  0.00    +0.000 A 
ATOM     20 CL   UNL     1       7.181   5.682  17.859  0.00  0.00    +0.000 Cl
BRANCH  17  21
ATOM     21  C   UNL     1       7.846   4.970  12.758  0.00  0.00    +0.000 C 
ATOM     22  F   UNL     1       7.685   3.875  11.965  0.00  0.00    +0.000 F 
ATOM     23  F   UNL     1       7.680   6.048  11.945  0.00  0.00    +0.000 F 
ATOM     24  F   UNL     1       9.158   4.976  13.123  0.00  0.00    +0.000 F 
ENDBRANCH  17  21
ENDBRANCH   4  14
TORSDOF 2
ENDMDL
MODEL 3
REMARK VINA RESULT:      -7.4      4.730      7.488
REMARK  Name = 
REMARK  3 active torsions:
REMARK  status: ('A' for Active; 'I' for Inactive)
REMARK    1  A    between atoms: C_1  and  C_2
REMARK    2  A    between atoms: N_4  and  C_5
REMARK    3  A    between atoms: C_8  and  C_9
REMARK                            x       y       z     vdW  Elec       q    Type
REMARK                         _______ _______ _______ _____ _____    ______ ____
ROOT
ATOM      1  C   UNL     1       3.395   1.395  18.557  0.00  0.00    +0.000 C 
ATOM      2  C   UNL     1       3.829   2.824  18.439  0.00  0.00    +0.000 C 
ATOM      3  N   UNL     1       4.102   3.345  17.289  0.00  0.00    +0.000 NA
ATOM      4  N   UNL     1       4.724   4.570  17.247  0.00  0.00    +0.000 N 
ATOM      5  C   UNL     1       4.231   5.726  17.861  0.00  0.00    +0.000 C 
ATOM      6  O   UNL     1       4.551   6.872  17.524  0.00  0.00    +0.000 OA
ATOM      7  C   UNL     1       3.251   5.613  18.961  0.00  0.00    +0.000 A 
ATOM      8  C   UNL     1       2.406   6.707  19.213  0.00  0.00    +0.000 A 
ATOM      9  C   UNL     1       1.547   6.705  20.312  0.00  0.00    +0.000 A 
ATOM     10  C   UNL     1       1.536   5.616  21.179  0.00  0.00    +0.000 A 
ATOM     11  C   UNL     1       2.365   4.521  20.933  0.00  0.00    +0.000 A 
ATOM     12  C   UNL     1       3.207   4.515  19.813  0.00  0.00    +0.000 A 
ATOM     13  O   UNL     1       4.025   3.399  19.668  0.00  0.00    +0.000 OA
ENDROOT
BRANCH   4  14
ATOM     14  C   UNL     1       5.559   4.737  16.100  0.00  0.00    +0.000 A 
ATOM     15  N   UNL     1       5.014   4.507  14.869  0.00  0.00    +0.000 NA
ATOM     16  C   UNL     1       5.800   4.676  13.783  0.00  0.00    +0.000 A 
ATOM     17  C   UNL     1       7.140   5.020  13.845  0.00  0.00    +0.000 A 
ATOM     18  C   UNL     1       7.702   5.207  15.112  0.00  0.00    +0.000 A 
ATOM     19  C   UNL     1       6.911   5.067  16.255  0.00  0.00    +0.000 A 
ATOM     20 CL   UNL     1       7.706   5.153  17.788  0.00  0.00    +0.000 Cl
BRANCH  17  21
ATOM     21  C   UNL     1       7.961   5.147  12.601  0.00  0.00    +0.000 C 
ATOM     22  F   UNL     1       7.746   4.151  11.699  0.00  0.00    +0.000 F 
ATOM     23  F   UNL     1       7.726   6.311  11.936  0.00  0.00    +0.000 F 
ATOM     24  F   UNL     1       9.298   5.130  12.863  0.00  0.00    +0.000 F 
ENDBRANCH  17  21
ENDBRANCH   4  14
TORSDOF 2
ENDMDL
MODEL 4
REMARK VINA RESULT:      -7.1      4.819      6.293
REMARK  Name = 
REMARK  3 active torsions:
REMARK  status: ('A' for Active; 'I' for Inactive)
REMARK    1  A    between atoms: C_1  and  C_2
REMARK    2  A    between atoms: N_4  and  C_5
REMARK    3  A    between atoms: C_8  and  C_9
REMARK                            x       y       z     vdW  Elec       q    Type
REMARK                         _______ _______ _______ _____ _____    ______ ____
ROOT
ATOM      1  C   UNL     1       5.245   6.619  17.137  0.00  0.00    +0.000 C 
ATOM      2  C   UNL     1       4.247   6.227  18.184  0.00  0.00    +0.000 C 
ATOM      3  N   UNL     1       3.202   6.949  18.412  0.00  0.00    +0.000 NA
ATOM      4  N   UNL     1       2.448   6.690  19.531  0.00  0.00    +0.000 N 
ATOM      5  C   UNL     1       1.881   5.445  19.830  0.00  0.00    +0.000 C 
ATOM      6  O   UNL     1       0.918   5.295  20.590  0.00  0.00    +0.000 OA
ATOM      7  C   UNL     1       2.420   4.223  19.199  0.00  0.00    +0.000 A 
ATOM      8  C   UNL     1       1.576   3.105  19.089  0.00  0.00    +0.000 A 
ATOM      9  C   UNL     1       2.065   1.888  18.616  0.00  0.00    +0.000 A 
ATOM     10  C   UNL     1       3.406   1.771  18.262  0.00  0.00    +0.000 A 
ATOM     11  C   UNL     1       4.250   2.878  18.358  0.00  0.00    +0.000 A 
ATOM     12  C   UNL     1       3.750   4.106  18.809  0.00  0.00    +0.000 A 
ATOM     13  O   UNL     1       4.672   5.144  18.910  0.00  0.00    +0.000 OA
ENDROOT
BRANCH   4  14
ATOM     14  C   UNL     1       1.803   7.851  20.056  0.00  0.00    +0.000 A 
ATOM     15  N   UNL     1       1.555   7.898  21.399  0.00  0.00    +0.000 NA
ATOM     16  C   UNL     1       0.954   9.001  21.897  0.00  0.00    +0.000 A 
ATOM     17  C   UNL     1       0.528  10.066  21.121  0.00  0.00    +0.000 A 
ATOM     18  C   UNL     1       0.742   9.988  19.741  0.00  0.00    +0.000 A 
ATOM     19  C   UNL     1       1.386   8.874  19.196  0.00  0.00    +0.000 A 
ATOM     20 CL   UNL     1       1.473   8.771  17.472  0.00  0.00    +0.000 Cl
BRANCH  17  21
ATOM     21  C   UNL     1      -0.171  11.236  21.737  0.00  0.00    +0.000 C 
ATOM     22  F   UNL     1      -0.417  11.090  23.067  0.00  0.00    +0.000 F 
ATOM     23  F   UNL     1       0.537  12.392  21.613  0.00  0.00    +0.000 F 
ATOM     24  F   UNL     1      -1.381  11.476  21.159  0.00  0.00    +0.000 F 
ENDBRANCH  17  21
ENDBRANCH   4  14
TORSDOF 2
ENDMDL
MODEL 5
REMARK VINA RESULT:      -7.1      4.592      6.877
REMARK  Name = 
REMARK  3 active torsions:
REMARK  status: ('A' for Active; 'I' for Inactive)
REMARK    1  A    between atoms: C_1  and  C_2
REMARK    2  A    between atoms: N_4  and  C_5
REMARK    3  A    between atoms: C_8  and  C_9
REMARK                            x       y       z     vdW  Elec       q    Type
REMARK                         _______ _______ _______ _____ _____    ______ ____
ROOT
ATOM      1  C   UNL     1       5.732   3.878  14.314  0.00  0.00    +0.000 C 
ATOM      2  C   UNL     1       5.578   4.300  15.744  0.00  0.00    +0.000 C 
ATOM      3  N   UNL     1       5.779   5.524  16.103  0.00  0.00    +0.000 NA
ATOM      4  N   UNL     1       5.866   5.816  17.443  0.00  0.00    +0.000 N 
ATOM      5  C   UNL     1       4.876   5.508  18.383  0.00  0.00    +0.000 C 
ATOM      6  O   UNL     1       4.760   6.083  19.471  0.00  0.00    +0.000 OA
ATOM      7  C   UNL     1       3.879   4.460  18.083  0.00  0.00    +0.000 A 
ATOM      8  C   UNL     1       2.644   4.506  18.752  0.00  0.00    +0.000 A 
ATOM      9  C   UNL     1       1.713   3.478  18.601  0.00  0.00    +0.000 A 
ATOM     10  C   UNL     1       2.014   2.386  17.792  0.00  0.00    +0.000 A 
ATOM     11  C   UNL     1       3.233   2.334  17.116  0.00  0.00    +0.000 A 
ATOM     12  C   UNL     1       4.155   3.381  17.249  0.00  0.00    +0.000 A 
ATOM     13  O   UNL     1       5.359   3.227  16.569  0.00  0.00    +0.000 OA
ENDROOT
BRANCH   4  14
ATOM     14  C   UNL     1       6.715   6.929  17.722  0.00  0.00    +0.000 A 
ATOM     15  N   UNL     1       6.458   8.110  17.085  0.00  0.00    +0.000 NA
ATOM     16  C   UNL     1       7.255   9.167  17.358  0.00  0.00    +0.000 A 
ATOM     17  C   UNL     1       8.349   9.112  18.205  0.00  0.00    +0.000 A 
ATOM     18  C   UNL     1       8.634   7.886  18.815  0.00  0.00    +0.000 A 
ATOM     19  C   UNL     1       7.814   6.780  18.577  0.00  0.00    +0.000 A 
ATOM     20 CL   UNL     1       8.316   5.262  19.234  0.00  0.00    +0.000 Cl
BRANCH  17  21
ATOM     21  C   UNL     1       9.214  10.312  18.425  0.00  0.00    +0.000 C 
ATOM     22  F   UNL     1      10.181  10.471  17.481  0.00  0.00    +0.000 F 
ATOM     23  F   UNL     1       8.505  11.474  18.432  0.00  0.00    +0.000 F 
ATOM     24  F   UNL     1       9.865  10.265  19.621  0.00  0.00    +0.000 F 
ENDBRANCH  17  21
ENDBRANCH   4  14
TORSDOF 2
ENDMDL
MODEL 6
REMARK VINA RESULT:      -6.8      5.302      6.666
REMARK  Name = 
REMARK  3 active torsions:
REMARK  status: ('A' for Active; 'I' for Inactive)
REMARK    1  A    between atoms: C_1  and  C_2
REMARK    2  A    between atoms: N_4  and  C_5
REMARK    3  A    between atoms: C_8  and  C_9
REMARK                            x       y       z     vdW  Elec       q    Type
REMARK                         _______ _______ _______ _____ _____    ______ ____
ROOT
ATOM      1  C   UNL     1       1.577   3.868  20.591  0.00  0.00    +0.000 C 
ATOM      2  C   UNL     1       1.831   5.088  19.759  0.00  0.00    +0.000 C 
ATOM      3  N   UNL     1       1.888   6.261  20.297  0.00  0.00    +0.000 NA
ATOM      4  N   UNL     1       1.879   7.366  19.479  0.00  0.00    +0.000 N 
ATOM      5  C   UNL     1       2.797   7.591  18.447  0.00  0.00    +0.000 C 
ATOM      6  O   UNL     1       3.040   8.708  17.977  0.00  0.00    +0.000 OA
ATOM      7  C   UNL     1       3.556   6.458  17.879  0.00  0.00    +0.000 A 
ATOM      8  C   UNL     1       4.782   6.728  17.249  0.00  0.00    +0.000 A 
ATOM      9  C   UNL     1       5.482   5.718  16.589  0.00  0.00    +0.000 A 
ATOM     10  C   UNL     1       4.956   4.431  16.539  0.00  0.00    +0.000 A 
ATOM     11  C   UNL     1       3.743   4.149  17.170  0.00  0.00    +0.000 A 
ATOM     12  C   UNL     1       3.056   5.160  17.854  0.00  0.00    +0.000 A 
ATOM     13  O   UNL     1       1.837   4.798  18.419  0.00  0.00    +0.000 OA
ENDROOT
BRANCH   4  14
ATOM     14  C   UNL     1       1.277   8.510  20.086  0.00  0.00    +0.000 A 
ATOM     15  N   UNL     1       1.412   8.667  21.436  0.00  0.00    +0.000 NA
ATOM     16  C   UNL     1       0.853   9.756  22.009  0.00  0.00    +0.000 A 
ATOM     17  C   UNL     1       0.106  10.695  21.319  0.00  0.00    +0.000 A 
ATOM     18  C   UNL     1      -0.068  10.500  19.945  0.00  0.00    +0.000 A 
ATOM     19  C   UNL     1       0.521   9.401  19.315  0.00  0.00    +0.000 A 
ATOM     20 CL   UNL     1       0.131   9.134  17.651  0.00  0.00    +0.000 Cl
BRANCH  17  21
ATOM     21  C   UNL     1      -0.523  11.853  22.028  0.00  0.00    +0.000 C 
ATOM     22  F   UNL     1       0.280  12.950  22.103  0.00  0.00    +0.000 F 
ATOM     23  F   UNL     1      -1.671  12.271  21.430  0.00  0.00    +0.000 F 
ATOM     24  F   UNL     1      -0.859  11.549  23.312  0.00  0.00    +0.000 F 
ENDBRANCH  17  21
ENDBRANCH   4  14
TORSDOF 2
ENDMDL
MODEL 7
REMARK VINA RESULT:      -6.8      8.824     10.245
REMARK  Name = 
REMARK  3 active torsions:
REMARK  status: ('A' for Active; 'I' for Inactive)
REMARK    1  A    between atoms: C_1  and  C_2
REMARK    2  A    between atoms: N_4  and  C_5
REMARK    3  A    between atoms: C_8  and  C_9
REMARK                            x       y       z     vdW  Elec       q    Type
REMARK                         _______ _______ _______ _____ _____    ______ ____
ROOT
ATOM      1  C   UNL     1      -1.670  10.574  17.297  0.00  0.00    +0.000 C 
ATOM      2  C   UNL     1      -0.743  10.589  18.474  0.00  0.00    +0.000 C 
ATOM      3  N   UNL     1      -1.175  10.862  19.659  0.00  0.00    +0.000 NA
ATOM      4  N   UNL     1      -0.262  11.103  20.658  0.00  0.00    +0.000 N 
ATOM      5  C   UNL     1       0.751  10.213  21.032  0.00  0.00    +0.000 C 
ATOM      6  O   UNL     1       1.310  10.234  22.134  0.00  0.00    +0.000 OA
ATOM      7  C   UNL     1       1.187   9.160  20.092  0.00  0.00    +0.000 A 
ATOM      8  C   UNL     1       1.792   8.007  20.620  0.00  0.00    +0.000 A 
ATOM      9  C   UNL     1       2.333   7.037  19.777  0.00  0.00    +0.000 A 
ATOM     10  C   UNL     1       2.287   7.216  18.397  0.00  0.00    +0.000 A 
ATOM     11  C   UNL     1       1.680   8.352  17.862  0.00  0.00    +0.000 A 
ATOM     12  C   UNL     1       1.114   9.312  18.712  0.00  0.00    +0.000 A 
ATOM     13  O   UNL     1       0.565  10.431  18.092  0.00  0.00    +0.000 OA
ENDROOT
BRANCH   4  14
ATOM     14  C   UNL     1      -0.742  12.010  21.652  0.00  0.00    +0.000 A 
ATOM     15  N   UNL     1      -1.821  11.633  22.400  0.00  0.00    +0.000 NA
ATOM     16  C   UNL     1      -2.268  12.486  23.347  0.00  0.00    +0.000 A 
ATOM     17  C   UNL     1      -1.731  13.742  23.573  0.00  0.00    +0.000 A 
ATOM     18  C   UNL     1      -0.657  14.139  22.770  0.00  0.00    +0.000 A 
ATOM     19  C   UNL     1      -0.151  13.271  21.799  0.00  0.00    +0.000 A 
ATOM     20 CL   UNL     1       1.068  13.886  20.738  0.00  0.00    +0.000 Cl
BRANCH  17  21
ATOM     21  C   UNL     1      -2.307  14.652  24.611  0.00  0.00    +0.000 C 
ATOM     22  F   UNL     1      -3.369  14.121  25.275  0.00  0.00    +0.000 F 
ATOM     23  F   UNL     1      -1.401  14.992  25.568  0.00  0.00    +0.000 F 
ATOM     24  F   UNL     1      -2.747  15.826  24.080  0.00  0.00    +0.000 F 
ENDBRANCH  17  21
ENDBRANCH   4  14
TORSDOF 2
ENDMDL
MODEL 8
REMARK VINA RESULT:      -6.7      7.973      9.719
REMARK  Name = 
REMARK  3 active torsions:
REMARK  status: ('A' for Active; 'I' for Inactive)
REMARK    1  A    between atoms: C_1  and  C_2
REMARK    2  A    between atoms: N_4  and  C_5
REMARK    3  A    between atoms: C_8  and  C_9
REMARK                            x       y       z     vdW  Elec       q    Type
REMARK                         _______ _______ _______ _____ _____    ______ ____
ROOT
ATOM      1  C   UNL     1      -3.231  11.890  19.020  0.00  0.00    +0.000 C 
ATOM      2  C   UNL     1      -1.766  12.058  19.286  0.00  0.00    +0.000 C 
ATOM      3  N   UNL     1      -0.895  11.282  18.733  0.00  0.00    +0.000 NA
ATOM      4  N   UNL     1       0.402  11.312  19.187  0.00  0.00    +0.000 N 
ATOM      5  C   UNL     1       1.192  12.466  19.242  0.00  0.00    +0.000 C 
ATOM      6  O   UNL     1       2.428  12.451  19.273  0.00  0.00    +0.000 OA
ATOM      7  C   UNL     1       0.549  13.796  19.238  0.00  0.00    +0.000 A 
ATOM      8  C   UNL     1       1.300  14.896  18.788  0.00  0.00    +0.000 A 
ATOM      9  C   UNL     1       0.790  16.191  18.877  0.00  0.00    +0.000 A 
ATOM     10  C   UNL     1      -0.470  16.402  19.430  0.00  0.00    +0.000 A 
ATOM     11  C   UNL     1      -1.228  15.316  19.871  0.00  0.00    +0.000 A 
ATOM     12  C   UNL     1      -0.723  14.014  19.756  0.00  0.00    +0.000 A 
ATOM     13  O   UNL     1      -1.531  12.998  20.257  0.00  0.00    +0.000 OA
ENDROOT
BRANCH   4  14
ATOM     14  C   UNL     1       1.075  10.060  19.051  0.00  0.00    +0.000 A 
ATOM     15  N   UNL     1       1.617   9.749  17.837  0.00  0.00    +0.000 NA
ATOM     16  C   UNL     1       2.264   8.569  17.711  0.00  0.00    +0.000 A 
ATOM     17  C   UNL     1       2.365   7.631  18.726  0.00  0.00    +0.000 A 
ATOM     18  C   UNL     1       1.764   7.937  19.951  0.00  0.00    +0.000 A 
ATOM     19  C   UNL     1       1.113   9.160  20.124  0.00  0.00    +0.000 A 
ATOM     20 CL   UNL     1       0.257   9.403  21.607  0.00  0.00    +0.000 Cl
BRANCH  17  21
ATOM     21  C   UNL     1       3.058   6.325  18.501  0.00  0.00    +0.000 C 
ATOM     22  F   UNL     1       3.910   5.978  19.504  0.00  0.00    +0.000 F 
ATOM     23  F   UNL     1       2.188   5.286  18.374  0.00  0.00    +0.000 F 
ATOM     24  F   UNL     1       3.805   6.328  17.362  0.00  0.00    +0.000 F 
ENDBRANCH  17  21
ENDBRANCH   4  14
TORSDOF 2
ENDMDL
MODEL 9
REMARK VINA RESULT:      -6.7      8.007     10.004
REMARK  Name = 
REMARK  3 active torsions:
REMARK  status: ('A' for Active; 'I' for Inactive)
REMARK    1  A    between atoms: C_1  and  C_2
REMARK    2  A    between atoms: N_4  and  C_5
REMARK    3  A    between atoms: C_8  and  C_9
REMARK                            x       y       z     vdW  Elec       q    Type
REMARK                         _______ _______ _______ _____ _____    ______ ____
ROOT
ATOM      1  C   UNL     1      -3.339  11.523  18.093  0.00  0.00    +0.000 C 
ATOM      2  C   UNL     1      -2.139  11.580  18.989  0.00  0.00    +0.000 C 
ATOM      3  N   UNL     1      -1.012  11.063  18.628  0.00  0.00    +0.000 NA
ATOM      4  N   UNL     1      -0.017  10.922  19.565  0.00  0.00    +0.000 N 
ATOM      5  C   UNL     1       0.499  11.973  20.331  0.00  0.00    +0.000 C 
ATOM      6  O   UNL     1       1.611  11.946  20.871  0.00  0.00    +0.000 OA
ATOM      7  C   UNL     1      -0.288  13.211  20.505  0.00  0.00    +0.000 A 
ATOM      8  C   UNL     1       0.399  14.398  20.811  0.00  0.00    +0.000 A 
ATOM      9  C   UNL     1      -0.299  15.569  21.106  0.00  0.00    +0.000 A 
ATOM     10  C   UNL     1      -1.691  15.561  21.114  0.00  0.00    +0.000 A 
ATOM     11  C   UNL     1      -2.383  14.390  20.802  0.00  0.00    +0.000 A 
ATOM     12  C   UNL     1      -1.679  13.223  20.480  0.00  0.00    +0.000 A 
ATOM     13  O   UNL     1      -2.450  12.094  20.222  0.00  0.00    +0.000 OA
ENDROOT
BRANCH   4  14
ATOM     14  C   UNL     1       0.840   9.808  19.312  0.00  0.00    +0.000 A 
ATOM     15  N   UNL     1       1.427   9.714  18.082  0.00  0.00    +0.000 NA
ATOM     16  C   UNL     1       2.246   8.666  17.847  0.00  0.00    +0.000 A 
ATOM     17  C   UNL     1       2.488   7.653  18.759  0.00  0.00    +0.000 A 
ATOM     18  C   UNL     1       1.845   7.732  19.999  0.00  0.00    +0.000 A 
ATOM     19  C   UNL     1       1.013   8.817  20.286  0.00  0.00    +0.000 A 
ATOM     20 CL   UNL     1       0.127   8.768  21.770  0.00  0.00    +0.000 Cl
BRANCH  17  21
ATOM     21  C   UNL     1       3.374   6.498  18.413  0.00  0.00    +0.000 C 
ATOM     22  F   UNL     1       2.730   5.489  17.767  0.00  0.00    +0.000 F 
ATOM     23  F   UNL     1       4.409   6.858  17.606  0.00  0.00    +0.000 F 
ATOM     24  F   UNL     1       3.939   5.934  19.516  0.00  0.00    +0.000 F 
ENDBRANCH  17  21
ENDBRANCH   4  14
TORSDOF 2
ENDMDL
