MODEL 1
REMARK VINA RESULT:      -9.1      0.000      0.000
REMARK  Name = 
REMARK  6 active torsions:
REMARK  status: ('A' for Active; 'I' for Inactive)
REMARK    1  A    between atoms: C_4  and  C_5
REMARK    2  A    between atoms: C_10  and  C_11
REMARK    3  A    between atoms: C_15  and  O_16
REMARK    4  A    between atoms: O_16  and  C_17
REMARK    5  A    between atoms: C_17  and  C_18
REMARK    6  A    between atoms: N_23  and  C_24
REMARK                            x       y       z     vdW  Elec       q    Type
REMARK                         _______ _______ _______ _____ _____    ______ ____
ROOT
ATOM      1  C   UNL     1       0.739  10.183  18.670  0.00  0.00    +0.000 C 
ATOM      2  O   UNL     1       0.961  10.171  17.459  0.00  0.00    +0.000 OA
ATOM      3  N   UNL     1       1.215   9.247  19.565  0.00  0.00    +0.000 N 
ATOM      4  C   UNL     1       2.021   8.206  19.168  0.00  0.00    +0.000 A 
ATOM      5  C   UNL     1       3.020   8.240  18.184  0.00  0.00    +0.000 A 
ATOM      6  C   UNL     1       3.534   6.959  18.110  0.00  0.00    +0.000 A 
ATOM      7  N   UNL     1       2.695   6.204  18.939  0.00  0.00    +0.000 N 
ATOM      8  N   UNL     1       1.963   7.015  19.762  0.00  0.00    +0.000 NA
ATOM      9  H   UNL     1       0.759   9.107  20.459  0.00  0.00    +0.000 HD
ENDROOT
BRANCH   1  13
ATOM     10  O   UNL     1      -3.075  11.649  17.379  0.00  0.00    +0.000 OA
ATOM     11  C   UNL     1      -2.003  11.746  17.945  0.00  0.00    +0.000 C 
ATOM     12  C   UNL     1      -1.570  11.003  19.182  0.00  0.00    +0.000 C 
ATOM     13  C   UNL     1      -0.078  11.322  19.267  0.00  0.00    +0.000 C 
ATOM     14  C   UNL     1       0.069  12.643  18.537  0.00  0.00    +0.000 C 
ATOM     15  N   UNL     1      -0.983  12.597  17.566  0.00  0.00    +0.000 N 
ATOM     16  H   UNL     1      -1.164  13.297  16.852  0.00  0.00    +0.000 HD
ENDBRANCH   1  13
BRANCH   7  17
ATOM     17  C   UNL     1       2.539   4.786  19.013  0.00  0.00    +0.000 A 
ATOM     18  C   UNL     1       1.556   4.155  18.237  0.00  0.00    +0.000 A 
ATOM     19  C   UNL     1       1.280   2.798  18.435  0.00  0.00    +0.000 A 
ATOM     20  C   UNL     1       2.000   2.076  19.382  0.00  0.00    +0.000 A 
ATOM     21  F   UNL     1       1.689   0.793  19.614  0.00  0.00    +0.000 F 
ATOM     22  C   UNL     1       3.036   2.666  20.091  0.00  0.00    +0.000 A 
ATOM     23  C   UNL     1       3.329   4.013  19.881  0.00  0.00    +0.000 A 
ENDBRANCH   7  17
BRANCH   6  24
ATOM     24  C   UNL     1       4.676   6.490  17.309  0.00  0.00    +0.000 A 
ATOM     25  C   UNL     1       5.997   6.881  17.580  0.00  0.00    +0.000 A 
ATOM     26  C   UNL     1       7.066   6.326  16.881  0.00  0.00    +0.000 A 
ATOM     27  C   UNL     1       6.820   5.428  15.842  0.00  0.00    +0.000 A 
ATOM     28  C   UNL     1       5.517   5.085  15.511  0.00  0.00    +0.000 A 
ATOM     29  C   UNL     1       4.450   5.618  16.232  0.00  0.00    +0.000 A 
BRANCH  28  30
ATOM     30  O   UNL     1       5.399   4.219  14.458  0.00  0.00    +0.000 OA
BRANCH  30  31
ATOM     31  C   UNL     1       6.605   3.877  13.765  0.00  0.00    +0.000 C 
BRANCH  31  32
ATOM     32  C   UNL     1       6.320   3.591  12.295  0.00  0.00    +0.000 C 
ATOM     33  F   UNL     1       5.010   3.696  11.981  0.00  0.00    +0.000 F 
ATOM     34  F   UNL     1       6.995   4.456  11.500  0.00  0.00    +0.000 F 
ATOM     35  F   UNL     1       6.719   2.343  11.960  0.00  0.00    +0.000 F 
ENDBRANCH  31  32
ENDBRANCH  30  31
ENDBRANCH  28  30
ENDBRANCH   6  24
TORSDOF 6
ENDMDL
MODEL 2
REMARK VINA RESULT:      -9.0      0.908      1.410
REMARK  Name = 
REMARK  6 active torsions:
REMARK  status: ('A' for Active; 'I' for Inactive)
REMARK    1  A    between atoms: C_4  and  C_5
REMARK    2  A    between atoms: C_10  and  C_11
REMARK    3  A    between atoms: C_15  and  O_16
REMARK    4  A    between atoms: O_16  and  C_17
REMARK    5  A    between atoms: C_17  and  C_18
REMARK    6  A    between atoms: N_23  and  C_24
REMARK                            x       y       z     vdW  Elec       q    Type
REMARK                         _______ _______ _______ _____ _____    ______ ____
ROOT
ATOM      1  C   UNL     1       0.747   9.544  18.646  0.00  0.00    +0.000 C 
ATOM      2  O   UNL     1       0.965   9.594  17.435  0.00  0.00    +0.000 OA
ATOM      3  N   UNL     1       1.336   8.645  19.513  0.00  0.00    +0.000 N 
ATOM      4  C   UNL     1       2.261   7.723  19.085  0.00  0.00    +0.000 A 
ATOM      5  C   UNL     1       3.245   7.905  18.102  0.00  0.00    +0.000 A 
ATOM      6  C   UNL     1       3.910   6.699  17.989  0.00  0.00    +0.000 A 
ATOM      7  N   UNL     1       3.171   5.824  18.796  0.00  0.00    +0.000 N 
ATOM      8  N   UNL     1       2.349   6.516  19.643  0.00  0.00    +0.000 NA
ATOM      9  H   UNL     1       0.904   8.426  20.402  0.00  0.00    +0.000 HD
ENDROOT
BRANCH   1  13
ATOM     10  O   UNL     1      -2.652  11.443  16.858  0.00  0.00    +0.000 OA
ATOM     11  C   UNL     1      -1.749  11.359  17.669  0.00  0.00    +0.000 C 
ATOM     12  C   UNL     1      -1.624  10.337  18.769  0.00  0.00    +0.000 C 
ATOM     13  C   UNL     1      -0.199  10.557  19.277  0.00  0.00    +0.000 C 
ATOM     14  C   UNL     1       0.110  12.000  18.926  0.00  0.00    +0.000 C 
ATOM     15  N   UNL     1      -0.675  12.223  17.749  0.00  0.00    +0.000 N 
ATOM     16  H   UNL     1      -0.683  13.073  17.192  0.00  0.00    +0.000 HD
ENDBRANCH   1  13
BRANCH   7  17
ATOM     17  C   UNL     1       3.188   4.395  18.828  0.00  0.00    +0.000 A 
ATOM     18  C   UNL     1       4.031   3.731  19.729  0.00  0.00    +0.000 A 
ATOM     19  C   UNL     1       4.183   2.343  19.645  0.00  0.00    +0.000 A 
ATOM     20  C   UNL     1       3.476   1.627  18.684  0.00  0.00    +0.000 A 
ATOM     21  F   UNL     1       3.673   0.307  18.563  0.00  0.00    +0.000 F 
ATOM     22  C   UNL     1       2.570   2.261  17.846  0.00  0.00    +0.000 A 
ATOM     23  C   UNL     1       2.399   3.641  17.943  0.00  0.00    +0.000 A 
ENDBRANCH   7  17
BRANCH   6  24
ATOM     24  C   UNL     1       5.097   6.396  17.175  0.00  0.00    +0.000 A 
ATOM     25  C   UNL     1       6.317   7.071  17.341  0.00  0.00    +0.000 A 
ATOM     26  C   UNL     1       7.454   6.679  16.640  0.00  0.00    +0.000 A 
ATOM     27  C   UNL     1       7.364   5.653  15.698  0.00  0.00    +0.000 A 
ATOM     28  C   UNL     1       6.151   5.022  15.467  0.00  0.00    +0.000 A 
ATOM     29  C   UNL     1       5.021   5.395  16.193  0.00  0.00    +0.000 A 
BRANCH  28  30
ATOM     30  O   UNL     1       6.180   4.051  14.503  0.00  0.00    +0.000 OA
BRANCH  30  31
ATOM     31  C   UNL     1       5.092   4.032  13.573  0.00  0.00    +0.000 C 
BRANCH  31  32
ATOM     32  C   UNL     1       5.553   3.520  12.213  0.00  0.00    +0.000 C 
ATOM     33  F   UNL     1       6.689   4.111  11.784  0.00  0.00    +0.000 F 
ATOM     34  F   UNL     1       5.785   2.186  12.259  0.00  0.00    +0.000 F 
ATOM     35  F   UNL     1       4.604   3.729  11.272  0.00  0.00    +0.000 F 
ENDBRANCH  31  32
ENDBRANCH  30  31
ENDBRANCH  28  30
ENDBRANCH   6  24
TORSDOF 6
ENDMDL
MODEL 3
REMARK VINA RESULT:      -8.5      1.451      2.059
REMARK  Name = 
REMARK  6 active torsions:
REMARK  status: ('A' for Active; 'I' for Inactive)
REMARK    1  A    between atoms: C_4  and  C_5
REMARK    2  A    between atoms: C_10  and  C_11
REMARK    3  A    between atoms: C_15  and  O_16
REMARK    4  A    between atoms: O_16  and  C_17
REMARK    5  A    between atoms: C_17  and  C_18
REMARK    6  A    between atoms: N_23  and  C_24
REMARK                            x       y       z     vdW  Elec       q    Type
REMARK                         _______ _______ _______ _____ _____    ______ ____
ROOT
ATOM      1  C   UNL     1       0.895   9.613  18.475  0.00  0.00    +0.000 C 
ATOM      2  O   UNL     1       1.185   9.625  17.278  0.00  0.00    +0.000 OA
ATOM      3  N   UNL     1       1.396   8.715  19.395  0.00  0.00    +0.000 N 
ATOM      4  C   UNL     1       2.308   7.747  19.043  0.00  0.00    +0.000 A 
ATOM      5  C   UNL     1       3.354   7.868  18.118  0.00  0.00    +0.000 A 
ATOM      6  C   UNL     1       3.977   6.635  18.072  0.00  0.00    +0.000 A 
ATOM      7  N   UNL     1       3.158   5.809  18.852  0.00  0.00    +0.000 N 
ATOM      8  N   UNL     1       2.316   6.553  19.632  0.00  0.00    +0.000 NA
ATOM      9  H   UNL     1       0.904   8.533  20.261  0.00  0.00    +0.000 HD
ENDROOT
BRANCH   1  13
ATOM     10  O   UNL     1       1.921  13.273  20.451  0.00  0.00    +0.000 OA
ATOM     11  C   UNL     1       1.175  12.352  20.178  0.00  0.00    +0.000 C 
ATOM     12  C   UNL     1       0.558  12.067  18.833  0.00  0.00    +0.000 C 
ATOM     13  C   UNL     1      -0.047  10.676  19.024  0.00  0.00    +0.000 C 
ATOM     14  C   UNL     1      -0.299  10.574  20.516  0.00  0.00    +0.000 C 
ATOM     15  N   UNL     1       0.726  11.405  21.077  0.00  0.00    +0.000 N 
ATOM     16  H   UNL     1       0.906  11.540  22.067  0.00  0.00    +0.000 HD
ENDBRANCH   1  13
BRANCH   7  17
ATOM     17  C   UNL     1       3.117   4.382  18.917  0.00  0.00    +0.000 A 
ATOM     18  C   UNL     1       4.105   3.691  19.633  0.00  0.00    +0.000 A 
ATOM     19  C   UNL     1       4.172   2.296  19.553  0.00  0.00    +0.000 A 
ATOM     20  C   UNL     1       3.243   1.601  18.786  0.00  0.00    +0.000 A 
ATOM     21  F   UNL     1       3.349   0.271  18.661  0.00  0.00    +0.000 F 
ATOM     22  C   UNL     1       2.207   2.266  18.147  0.00  0.00    +0.000 A 
ATOM     23  C   UNL     1       2.123   3.654  18.242  0.00  0.00    +0.000 A 
ENDBRANCH   7  17
BRANCH   6  24
ATOM     24  C   UNL     1       5.197   6.268  17.337  0.00  0.00    +0.000 A 
ATOM     25  C   UNL     1       6.470   6.288  17.931  0.00  0.00    +0.000 A 
ATOM     26  C   UNL     1       7.588   5.820  17.246  0.00  0.00    +0.000 A 
ATOM     27  C   UNL     1       7.459   5.397  15.922  0.00  0.00    +0.000 A 
ATOM     28  C   UNL     1       6.223   5.438  15.294  0.00  0.00    +0.000 A 
ATOM     29  C   UNL     1       5.099   5.878  15.992  0.00  0.00    +0.000 A 
BRANCH  28  30
ATOM     30  O   UNL     1       6.226   5.025  13.989  0.00  0.00    +0.000 OA
BRANCH  30  31
ATOM     31  C   UNL     1       5.467   3.851  13.682  0.00  0.00    +0.000 C 
BRANCH  31  32
ATOM     32  C   UNL     1       5.752   3.382  12.259  0.00  0.00    +0.000 C 
ATOM     33  F   UNL     1       6.053   2.067  12.187  0.00  0.00    +0.000 F 
ATOM     34  F   UNL     1       4.677   3.593  11.462  0.00  0.00    +0.000 F 
ATOM     35  F   UNL     1       6.788   4.066  11.724  0.00  0.00    +0.000 F 
ENDBRANCH  31  32
ENDBRANCH  30  31
ENDBRANCH  28  30
ENDBRANCH   6  24
TORSDOF 6
ENDMDL
MODEL 4
REMARK VINA RESULT:      -8.4      1.164      1.579
REMARK  Name = 
REMARK  6 active torsions:
REMARK  status: ('A' for Active; 'I' for Inactive)
REMARK    1  A    between atoms: C_4  and  C_5
REMARK    2  A    between atoms: C_10  and  C_11
REMARK    3  A    between atoms: C_15  and  O_16
REMARK    4  A    between atoms: O_16  and  C_17
REMARK    5  A    between atoms: C_17  and  C_18
REMARK    6  A    between atoms: N_23  and  C_24
REMARK                            x       y       z     vdW  Elec       q    Type
REMARK                         _______ _______ _______ _____ _____    ______ ____
ROOT
ATOM      1  C   UNL     1       0.814  10.112  18.753  0.00  0.00    +0.000 C 
ATOM      2  O   UNL     1       1.030  10.126  17.541  0.00  0.00    +0.000 OA
ATOM      3  N   UNL     1       1.284   9.150  19.623  0.00  0.00    +0.000 N 
ATOM      4  C   UNL     1       2.078   8.111  19.198  0.00  0.00    +0.000 A 
ATOM      5  C   UNL     1       3.072   8.156  18.210  0.00  0.00    +0.000 A 
ATOM      6  C   UNL     1       3.572   6.872  18.102  0.00  0.00    +0.000 A 
ATOM      7  N   UNL     1       2.729   6.107  18.918  0.00  0.00    +0.000 N 
ATOM      8  N   UNL     1       2.009   6.907  19.763  0.00  0.00    +0.000 NA
ATOM      9  H   UNL     1       0.832   8.994  20.515  0.00  0.00    +0.000 HD
ENDROOT
BRANCH   1  13
ATOM     10  O   UNL     1       2.042  14.166  19.400  0.00  0.00    +0.000 OA
ATOM     11  C   UNL     1       1.360  13.184  19.621  0.00  0.00    +0.000 C 
ATOM     12  C   UNL     1       0.343  12.570  18.694  0.00  0.00    +0.000 C 
ATOM     13  C   UNL     1       0.012  11.245  19.381  0.00  0.00    +0.000 C 
ATOM     14  C   UNL     1       0.320  11.489  20.845  0.00  0.00    +0.000 C 
ATOM     15  N   UNL     1       1.373  12.461  20.798  0.00  0.00    +0.000 N 
ATOM     16  H   UNL     1       1.876  12.831  21.599  0.00  0.00    +0.000 HD
ENDBRANCH   1  13
BRANCH   7  17
ATOM     17  C   UNL     1       2.557   4.689  18.959  0.00  0.00    +0.000 A 
ATOM     18  C   UNL     1       1.482   4.100  18.280  0.00  0.00    +0.000 A 
ATOM     19  C   UNL     1       1.207   2.740  18.460  0.00  0.00    +0.000 A 
ATOM     20  C   UNL     1       2.018   1.975  19.292  0.00  0.00    +0.000 A 
ATOM     21  F   UNL     1       1.714   0.689  19.514  0.00  0.00    +0.000 F 
ATOM     22  C   UNL     1       3.138   2.525  19.898  0.00  0.00    +0.000 A 
ATOM     23  C   UNL     1       3.428   3.875  19.703  0.00  0.00    +0.000 A 
ENDBRANCH   7  17
BRANCH   6  24
ATOM     24  C   UNL     1       4.704   6.411  17.285  0.00  0.00    +0.000 A 
ATOM     25  C   UNL     1       6.028   6.800  17.543  0.00  0.00    +0.000 A 
ATOM     26  C   UNL     1       7.090   6.252  16.828  0.00  0.00    +0.000 A 
ATOM     27  C   UNL     1       6.831   5.362  15.785  0.00  0.00    +0.000 A 
ATOM     28  C   UNL     1       5.525   5.020  15.467  0.00  0.00    +0.000 A 
ATOM     29  C   UNL     1       4.466   5.547  16.204  0.00  0.00    +0.000 A 
BRANCH  28  30
ATOM     30  O   UNL     1       5.396   4.161  14.408  0.00  0.00    +0.000 OA
BRANCH  30  31
ATOM     31  C   UNL     1       6.600   3.782  13.734  0.00  0.00    +0.000 C 
BRANCH  31  32
ATOM     32  C   UNL     1       6.342   3.573  12.246  0.00  0.00    +0.000 C 
ATOM     33  F   UNL     1       5.039   3.695  11.914  0.00  0.00    +0.000 F 
ATOM     34  F   UNL     1       7.032   4.478  11.509  0.00  0.00    +0.000 F 
ATOM     35  F   UNL     1       6.749   2.344  11.853  0.00  0.00    +0.000 F 
ENDBRANCH  31  32
ENDBRANCH  30  31
ENDBRANCH  28  30
ENDBRANCH   6  24
TORSDOF 6
ENDMDL
MODEL 5
REMARK VINA RESULT:      -8.4      1.318      1.773
REMARK  Name = 
REMARK  6 active torsions:
REMARK  status: ('A' for Active; 'I' for Inactive)
REMARK    1  A    between atoms: C_4  and  C_5
REMARK    2  A    between atoms: C_10  and  C_11
REMARK    3  A    between atoms: C_15  and  O_16
REMARK    4  A    between atoms: O_16  and  C_17
REMARK    5  A    between atoms: C_17  and  C_18
REMARK    6  A    between atoms: N_23  and  C_24
REMARK                            x       y       z     vdW  Elec       q    Type
REMARK                         _______ _______ _______ _____ _____    ______ ____
ROOT
ATOM      1  C   UNL     1       1.370  10.077  18.373  0.00  0.00    +0.000 C 
ATOM      2  O   UNL     1       1.724   9.999  17.196  0.00  0.00    +0.000 OA
ATOM      3  N   UNL     1       1.648   9.133  19.341  0.00  0.00    +0.000 N 
ATOM      4  C   UNL     1       2.388   8.007  19.066  0.00  0.00    +0.000 A 
ATOM      5  C   UNL     1       3.489   7.909  18.203  0.00  0.00    +0.000 A 
ATOM      6  C   UNL     1       3.879   6.583  18.221  0.00  0.00    +0.000 A 
ATOM      7  N   UNL     1       2.882   5.943  18.968  0.00  0.00    +0.000 N 
ATOM      8  N   UNL     1       2.146   6.850  19.680  0.00  0.00    +0.000 NA
ATOM      9  H   UNL     1       1.084   9.071  20.179  0.00  0.00    +0.000 HD
ENDROOT
BRANCH   1  13
ATOM     10  O   UNL     1       0.184  11.081  22.367  0.00  0.00    +0.000 OA
ATOM     11  C   UNL     1       0.100  11.143  21.155  0.00  0.00    +0.000 C 
ATOM     12  C   UNL     1       1.111  11.751  20.216  0.00  0.00    +0.000 C 
ATOM     13  C   UNL     1       0.608  11.310  18.842  0.00  0.00    +0.000 C 
ATOM     14  C   UNL     1      -0.880  11.085  19.037  0.00  0.00    +0.000 C 
ATOM     15  N   UNL     1      -0.972  10.690  20.411  0.00  0.00    +0.000 N 
ATOM     16  H   UNL     1      -1.820  10.403  20.891  0.00  0.00    +0.000 HD
ENDBRANCH   1  13
BRANCH   7  17
ATOM     17  C   UNL     1       2.579   4.549  19.060  0.00  0.00    +0.000 A 
ATOM     18  C   UNL     1       2.141   3.858  17.922  0.00  0.00    +0.000 A 
ATOM     19  C   UNL     1       1.676   2.544  18.044  0.00  0.00    +0.000 A 
ATOM     20  C   UNL     1       1.676   1.922  19.289  0.00  0.00    +0.000 A 
ATOM     21  F   UNL     1       1.171   0.688  19.413  0.00  0.00    +0.000 F 
ATOM     22  C   UNL     1       2.192   2.564  20.405  0.00  0.00    +0.000 A 
ATOM     23  C   UNL     1       2.677   3.865  20.284  0.00  0.00    +0.000 A 
ENDBRANCH   7  17
BRANCH   6  24
ATOM     24  C   UNL     1       5.051   5.979  17.569  0.00  0.00    +0.000 A 
ATOM     25  C   UNL     1       6.173   5.540  18.292  0.00  0.00    +0.000 A 
ATOM     26  C   UNL     1       7.213   4.864  17.660  0.00  0.00    +0.000 A 
ATOM     27  C   UNL     1       7.181   4.688  16.276  0.00  0.00    +0.000 A 
ATOM     28  C   UNL     1       6.116   5.179  15.535  0.00  0.00    +0.000 A 
ATOM     29  C   UNL     1       5.061   5.828  16.174  0.00  0.00    +0.000 A 
BRANCH  28  30
ATOM     30  O   UNL     1       6.209   4.971  14.185  0.00  0.00    +0.000 OA
BRANCH  30  31
ATOM     31  C   UNL     1       6.133   3.615  13.734  0.00  0.00    +0.000 C 
BRANCH  31  32
ATOM     32  C   UNL     1       6.348   3.534  12.226  0.00  0.00    +0.000 C 
ATOM     33  F   UNL     1       7.145   4.518  11.754  0.00  0.00    +0.000 F 
ATOM     34  F   UNL     1       6.921   2.354  11.887  0.00  0.00    +0.000 F 
ATOM     35  F   UNL     1       5.170   3.613  11.567  0.00  0.00    +0.000 F 
ENDBRANCH  31  32
ENDBRANCH  30  31
ENDBRANCH  28  30
ENDBRANCH   6  24
TORSDOF 6
ENDMDL
MODEL 6
REMARK VINA RESULT:      -8.4      2.804      5.120
REMARK  Name = 
REMARK  6 active torsions:
REMARK  status: ('A' for Active; 'I' for Inactive)
REMARK    1  A    between atoms: C_4  and  C_5
REMARK    2  A    between atoms: C_10  and  C_11
REMARK    3  A    between atoms: C_15  and  O_16
REMARK    4  A    between atoms: O_16  and  C_17
REMARK    5  A    between atoms: C_17  and  C_18
REMARK    6  A    between atoms: N_23  and  C_24
REMARK                            x       y       z     vdW  Elec       q    Type
REMARK                         _______ _______ _______ _____ _____    ______ ____
ROOT
ATOM      1  C   UNL     1       1.567  11.547  18.776  0.00  0.00    +0.000 C 
ATOM      2  O   UNL     1       1.527  11.164  19.946  0.00  0.00    +0.000 OA
ATOM      3  N   UNL     1       1.910  10.752  17.701  0.00  0.00    +0.000 N 
ATOM      4  C   UNL     1       2.219   9.421  17.851  0.00  0.00    +0.000 A 
ATOM      5  C   UNL     1       1.630   8.512  18.742  0.00  0.00    +0.000 A 
ATOM      6  C   UNL     1       2.286   7.309  18.559  0.00  0.00    +0.000 A 
ATOM      7  N   UNL     1       3.336   7.621  17.686  0.00  0.00    +0.000 N 
ATOM      8  N   UNL     1       3.121   8.825  17.074  0.00  0.00    +0.000 NA
ATOM      9  H   UNL     1       2.239  11.165  16.838  0.00  0.00    +0.000 HD
ENDROOT
BRANCH   1  13
ATOM     10  O   UNL     1       3.578  15.157  19.910  0.00  0.00    +0.000 OA
ATOM     11  C   UNL     1       2.609  14.512  19.556  0.00  0.00    +0.000 C 
ATOM     12  C   UNL     1       2.422  13.833  18.223  0.00  0.00    +0.000 C 
ATOM     13  C   UNL     1       1.173  12.981  18.447  0.00  0.00    +0.000 C 
ATOM     14  C   UNL     1       0.424  13.692  19.558  0.00  0.00    +0.000 C 
ATOM     15  N   UNL     1       1.472  14.311  20.313  0.00  0.00    +0.000 N 
ATOM     16  H   UNL     1       1.353  14.837  21.174  0.00  0.00    +0.000 HD
ENDBRANCH   1  13
BRANCH   7  17
ATOM     17  C   UNL     1       4.515   6.870  17.389  0.00  0.00    +0.000 A 
ATOM     18  C   UNL     1       4.896   6.676  16.054  0.00  0.00    +0.000 A 
ATOM     19  C   UNL     1       5.943   5.799  15.751  0.00  0.00    +0.000 A 
ATOM     20  C   UNL     1       6.616   5.144  16.776  0.00  0.00    +0.000 A 
ATOM     21  F   UNL     1       7.574   4.256  16.479  0.00  0.00    +0.000 F 
ATOM     22  C   UNL     1       6.309   5.396  18.106  0.00  0.00    +0.000 A 
ATOM     23  C   UNL     1       5.281   6.287  18.413  0.00  0.00    +0.000 A 
ENDBRANCH   7  17
BRANCH   6  24
ATOM     24  C   UNL     1       1.974   6.009  19.174  0.00  0.00    +0.000 A 
ATOM     25  C   UNL     1       1.813   5.851  20.560  0.00  0.00    +0.000 A 
ATOM     26  C   UNL     1       1.400   4.635  21.099  0.00  0.00    +0.000 A 
ATOM     27  C   UNL     1       1.220   3.534  20.260  0.00  0.00    +0.000 A 
ATOM     28  C   UNL     1       1.445   3.652  18.896  0.00  0.00    +0.000 A 
ATOM     29  C   UNL     1       1.828   4.878  18.355  0.00  0.00    +0.000 A 
BRANCH  28  30
ATOM     30  O   UNL     1       1.263   2.499  18.181  0.00  0.00    +0.000 OA
BRANCH  30  31
ATOM     31  C   UNL     1       2.050   1.368  18.569  0.00  0.00    +0.000 C 
BRANCH  31  32
ATOM     32  C   UNL     1       3.536   1.654  18.382  0.00  0.00    +0.000 C 
ATOM     33  F   UNL     1       4.083   2.306  19.431  0.00  0.00    +0.000 F 
ATOM     34  F   UNL     1       4.228   0.501  18.220  0.00  0.00    +0.000 F 
ATOM     35  F   UNL     1       3.747   2.407  17.279  0.00  0.00    +0.000 F 
ENDBRANCH  31  32
ENDBRANCH  30  31
ENDBRANCH  28  30
ENDBRANCH   6  24
TORSDOF 6
ENDMDL
MODEL 7
REMARK VINA RESULT:      -8.3      1.390      2.156
REMARK  Name = 
REMARK  6 active torsions:
REMARK  status: ('A' for Active; 'I' for Inactive)
REMARK    1  A    between atoms: C_4  and  C_5
REMARK    2  A    between atoms: C_10  and  C_11
REMARK    3  A    between atoms: C_15  and  O_16
REMARK    4  A    between atoms: O_16  and  C_17
REMARK    5  A    between atoms: C_17  and  C_18
REMARK    6  A    between atoms: N_23  and  C_24
REMARK                            x       y       z     vdW  Elec       q    Type
REMARK                         _______ _______ _______ _____ _____    ______ ____
ROOT
ATOM      1  C   UNL     1       1.152  10.317  18.460  0.00  0.00    +0.000 C 
ATOM      2  O   UNL     1       1.480  10.177  17.281  0.00  0.00    +0.000 OA
ATOM      3  N   UNL     1       1.405   9.400  19.459  0.00  0.00    +0.000 N 
ATOM      4  C   UNL     1       2.088   8.231  19.217  0.00  0.00    +0.000 A 
ATOM      5  C   UNL     1       3.166   8.049  18.340  0.00  0.00    +0.000 A 
ATOM      6  C   UNL     1       3.497   6.708  18.404  0.00  0.00    +0.000 A 
ATOM      7  N   UNL     1       2.486   6.143  19.192  0.00  0.00    +0.000 N 
ATOM      8  N   UNL     1       1.805   7.111  19.880  0.00  0.00    +0.000 NA
ATOM      9  H   UNL     1       0.855   9.396  20.309  0.00  0.00    +0.000 HD
ENDROOT
BRANCH   1  13
ATOM     10  O   UNL     1       2.550  13.268  21.235  0.00  0.00    +0.000 OA
ATOM     11  C   UNL     1       1.689  12.678  20.610  0.00  0.00    +0.000 C 
ATOM     12  C   UNL     1       1.483  12.709  19.117  0.00  0.00    +0.000 C 
ATOM     13  C   UNL     1       0.455  11.601  18.892  0.00  0.00    +0.000 C 
ATOM     14  C   UNL     1      -0.283  11.494  20.213  0.00  0.00    +0.000 C 
ATOM     15  N   UNL     1       0.707  11.885  21.171  0.00  0.00    +0.000 N 
ATOM     16  H   UNL     1       0.590  11.885  22.180  0.00  0.00    +0.000 HD
ENDBRANCH   1  13
BRANCH   7  17
ATOM     17  C   UNL     1       2.122   4.770  19.345  0.00  0.00    +0.000 A 
ATOM     18  C   UNL     1       2.373   4.117  20.560  0.00  0.00    +0.000 A 
ATOM     19  C   UNL     1       2.183   2.734  20.657  0.00  0.00    +0.000 A 
ATOM     20  C   UNL     1       1.722   2.020  19.556  0.00  0.00    +0.000 A 
ATOM     21  F   UNL     1       1.603   0.688  19.632  0.00  0.00    +0.000 F 
ATOM     22  C   UNL     1       1.383   2.668  18.377  0.00  0.00    +0.000 A 
ATOM     23  C   UNL     1       1.550   4.050  18.284  0.00  0.00    +0.000 A 
ENDBRANCH   7  17
BRANCH   6  24
ATOM     24  C   UNL     1       4.628   6.026  17.757  0.00  0.00    +0.000 A 
ATOM     25  C   UNL     1       5.710   5.505  18.485  0.00  0.00    +0.000 A 
ATOM     26  C   UNL     1       6.705   4.760  17.856  0.00  0.00    +0.000 A 
ATOM     27  C   UNL     1       6.670   4.594  16.471  0.00  0.00    +0.000 A 
ATOM     28  C   UNL     1       5.648   5.162  15.725  0.00  0.00    +0.000 A 
ATOM     29  C   UNL     1       4.637   5.881  16.360  0.00  0.00    +0.000 A 
BRANCH  28  30
ATOM     30  O   UNL     1       5.736   4.954  14.375  0.00  0.00    +0.000 OA
BRANCH  30  31
ATOM     31  C   UNL     1       6.349   3.733  13.948  0.00  0.00    +0.000 C 
BRANCH  31  32
ATOM     32  C   UNL     1       6.171   3.536  12.447  0.00  0.00    +0.000 C 
ATOM     33  F   UNL     1       7.029   4.276  11.712  0.00  0.00    +0.000 F 
ATOM     34  F   UNL     1       6.366   2.238  12.109  0.00  0.00    +0.000 F 
ATOM     35  F   UNL     1       4.917   3.866  12.063  0.00  0.00    +0.000 F 
ENDBRANCH  31  32
ENDBRANCH  30  31
ENDBRANCH  28  30
ENDBRANCH   6  24
TORSDOF 6
ENDMDL
MODEL 8
REMARK VINA RESULT:      -8.1      2.716      4.928
REMARK  Name = 
REMARK  6 active torsions:
REMARK  status: ('A' for Active; 'I' for Inactive)
REMARK    1  A    between atoms: C_4  and  C_5
REMARK    2  A    between atoms: C_10  and  C_11
REMARK    3  A    between atoms: C_15  and  O_16
REMARK    4  A    between atoms: O_16  and  C_17
REMARK    5  A    between atoms: C_17  and  C_18
REMARK    6  A    between atoms: N_23  and  C_24
REMARK                            x       y       z     vdW  Elec       q    Type
REMARK                         _______ _______ _______ _____ _____    ______ ____
ROOT
ATOM      1  C   UNL     1       1.519  11.551  18.845  0.00  0.00    +0.000 C 
ATOM      2  O   UNL     1       1.485  11.160  20.013  0.00  0.00    +0.000 OA
ATOM      3  N   UNL     1       1.864  10.765  17.764  0.00  0.00    +0.000 N 
ATOM      4  C   UNL     1       2.183   9.435  17.905  0.00  0.00    +0.000 A 
ATOM      5  C   UNL     1       1.603   8.516  18.791  0.00  0.00    +0.000 A 
ATOM      6  C   UNL     1       2.266   7.319  18.598  0.00  0.00    +0.000 A 
ATOM      7  N   UNL     1       3.312   7.644  17.724  0.00  0.00    +0.000 N 
ATOM      8  N   UNL     1       3.087   8.851  17.121  0.00  0.00    +0.000 NA
ATOM      9  H   UNL     1       2.188  11.186  16.902  0.00  0.00    +0.000 HD
ENDROOT
BRANCH   1  13
ATOM     10  O   UNL     1       0.407  14.647  21.591  0.00  0.00    +0.000 OA
ATOM     11  C   UNL     1       0.427  14.111  20.499  0.00  0.00    +0.000 C 
ATOM     12  C   UNL     1       1.630  13.931  19.610  0.00  0.00    +0.000 C 
ATOM     13  C   UNL     1       1.115  12.984  18.527  0.00  0.00    +0.000 C 
ATOM     14  C   UNL     1      -0.384  13.218  18.501  0.00  0.00    +0.000 C 
ATOM     15  N   UNL     1      -0.678  13.593  19.852  0.00  0.00    +0.000 N 
ATOM     16  H   UNL     1      -1.602  13.778  20.230  0.00  0.00    +0.000 HD
ENDBRANCH   1  13
BRANCH   7  17
ATOM     17  C   UNL     1       4.495   6.903  17.419  0.00  0.00    +0.000 A 
ATOM     18  C   UNL     1       4.854   6.690  16.081  0.00  0.00    +0.000 A 
ATOM     19  C   UNL     1       5.907   5.821  15.774  0.00  0.00    +0.000 A 
ATOM     20  C   UNL     1       6.608   5.194  16.799  0.00  0.00    +0.000 A 
ATOM     21  F   UNL     1       7.572   4.313  16.500  0.00  0.00    +0.000 F 
ATOM     22  C   UNL     1       6.322   5.467  18.129  0.00  0.00    +0.000 A 
ATOM     23  C   UNL     1       5.288   6.350  18.439  0.00  0.00    +0.000 A 
ENDBRANCH   7  17
BRANCH   6  24
ATOM     24  C   UNL     1       1.966   6.013  19.205  0.00  0.00    +0.000 A 
ATOM     25  C   UNL     1       1.817   5.843  20.591  0.00  0.00    +0.000 A 
ATOM     26  C   UNL     1       1.413   4.621  21.124  0.00  0.00    +0.000 A 
ATOM     27  C   UNL     1       1.231   3.526  20.278  0.00  0.00    +0.000 A 
ATOM     28  C   UNL     1       1.444   3.656  18.914  0.00  0.00    +0.000 A 
ATOM     29  C   UNL     1       1.818   4.888  18.379  0.00  0.00    +0.000 A 
BRANCH  28  30
ATOM     30  O   UNL     1       1.262   2.508  18.191  0.00  0.00    +0.000 OA
BRANCH  30  31
ATOM     31  C   UNL     1       2.055   1.376  18.565  0.00  0.00    +0.000 C 
BRANCH  31  32
ATOM     32  C   UNL     1       3.531   1.637  18.288  0.00  0.00    +0.000 C 
ATOM     33  F   UNL     1       4.205   0.523  17.929  0.00  0.00    +0.000 F 
ATOM     34  F   UNL     1       3.678   2.536  17.285  0.00  0.00    +0.000 F 
ATOM     35  F   UNL     1       4.144   2.150  19.379  0.00  0.00    +0.000 F 
ENDBRANCH  31  32
ENDBRANCH  30  31
ENDBRANCH  28  30
ENDBRANCH   6  24
TORSDOF 6
ENDMDL
MODEL 9
REMARK VINA RESULT:      -8.0      1.104      1.314
REMARK  Name = 
REMARK  6 active torsions:
REMARK  status: ('A' for Active; 'I' for Inactive)
REMARK    1  A    between atoms: C_4  and  C_5
REMARK    2  A    between atoms: C_10  and  C_11
REMARK    3  A    between atoms: C_15  and  O_16
REMARK    4  A    between atoms: O_16  and  C_17
REMARK    5  A    between atoms: C_17  and  C_18
REMARK    6  A    between atoms: N_23  and  C_24
REMARK                            x       y       z     vdW  Elec       q    Type
REMARK                         _______ _______ _______ _____ _____    ______ ____
ROOT
ATOM      1  C   UNL     1       0.211   9.832  18.499  0.00  0.00    +0.000 C 
ATOM      2  O   UNL     1       0.326   9.590  17.297  0.00  0.00    +0.000 OA
ATOM      3  N   UNL     1       0.951   9.227  19.495  0.00  0.00    +0.000 N 
ATOM      4  C   UNL     1       1.923   8.296  19.214  0.00  0.00    +0.000 A 
ATOM      5  C   UNL     1       2.803   8.296  18.123  0.00  0.00    +0.000 A 
ATOM      6  C   UNL     1       3.569   7.151  18.242  0.00  0.00    +0.000 A 
ATOM      7  N   UNL     1       2.985   6.457  19.309  0.00  0.00    +0.000 N 
ATOM      8  N   UNL     1       2.171   7.280  20.039  0.00  0.00    +0.000 NA
ATOM      9  H   UNL     1       0.615   9.208  20.450  0.00  0.00    +0.000 HD
ENDROOT
BRANCH   1  13
ATOM     10  O   UNL     1      -3.280  11.242  16.453  0.00  0.00    +0.000 OA
ATOM     11  C   UNL     1      -2.369  11.341  17.253  0.00  0.00    +0.000 C 
ATOM     12  C   UNL     1      -2.191  10.534  18.514  0.00  0.00    +0.000 C 
ATOM     13  C   UNL     1      -0.774  10.900  18.955  0.00  0.00    +0.000 C 
ATOM     14  C   UNL     1      -0.531  12.270  18.352  0.00  0.00    +0.000 C 
ATOM     15  N   UNL     1      -1.333  12.249  17.164  0.00  0.00    +0.000 N 
ATOM     16  H   UNL     1      -1.382  12.987  16.467  0.00  0.00    +0.000 HD
ENDBRANCH   1  13
BRANCH   7  17
ATOM     17  C   UNL     1       3.141   5.089  19.688  0.00  0.00    +0.000 A 
ATOM     18  C   UNL     1       2.334   4.553  20.702  0.00  0.00    +0.000 A 
ATOM     19  C   UNL     1       2.600   3.272  21.197  0.00  0.00    +0.000 A 
ATOM     20  C   UNL     1       3.646   2.527  20.663  0.00  0.00    +0.000 A 
ATOM     21  F   UNL     1       3.939   1.327  21.183  0.00  0.00    +0.000 F 
ATOM     22  C   UNL     1       4.393   3.009  19.598  0.00  0.00    +0.000 A 
ATOM     23  C   UNL     1       4.117   4.277  19.086  0.00  0.00    +0.000 A 
ENDBRANCH   7  17
BRANCH   6  24
ATOM     24  C   UNL     1       4.711   6.740  17.410  0.00  0.00    +0.000 A 
ATOM     25  C   UNL     1       6.040   6.836  17.854  0.00  0.00    +0.000 A 
ATOM     26  C   UNL     1       7.088   6.326  17.092  0.00  0.00    +0.000 A 
ATOM     27  C   UNL     1       6.826   5.783  15.833  0.00  0.00    +0.000 A 
ATOM     28  C   UNL     1       5.528   5.745  15.347  0.00  0.00    +0.000 A 
ATOM     29  C   UNL     1       4.476   6.228  16.124  0.00  0.00    +0.000 A 
BRANCH  28  30
ATOM     30  O   UNL     1       5.398   5.216  14.091  0.00  0.00    +0.000 OA
BRANCH  30  31
ATOM     31  C   UNL     1       5.751   3.838  13.932  0.00  0.00    +0.000 C 
BRANCH  31  32
ATOM     32  C   UNL     1       5.831   3.468  12.455  0.00  0.00    +0.000 C 
ATOM     33  F   UNL     1       6.217   2.190  12.251  0.00  0.00    +0.000 F 
ATOM     34  F   UNL     1       4.625   3.625  11.857  0.00  0.00    +0.000 F 
ATOM     35  F   UNL     1       6.708   4.267  11.805  0.00  0.00    +0.000 F 
ENDBRANCH  31  32
ENDBRANCH  30  31
ENDBRANCH  28  30
ENDBRANCH   6  24
TORSDOF 6
ENDMDL
