MODEL 1
REMARK VINA RESULT:      -6.9      0.000      0.000
REMARK  Name = 
REMARK  8 active torsions:
REMARK  status: ('A' for Active; 'I' for Inactive)
REMARK    1  A    between atoms: C_1  and  C_2
REMARK    2  A    between atoms: C_2  and  N_3
REMARK    3  A    between atoms: N_3  and  C_13
REMARK    4  A    between atoms: C_4  and  C_6
REMARK    5  A    between atoms: C_6  and  C_7
REMARK    6  A    between atoms: C_7  and  C_8
REMARK    7  A    between atoms: C_15  and  C_16
REMARK    8  A    between atoms: C_18  and  C_19
REMARK                            x       y       z     vdW  Elec       q    Type
REMARK                         _______ _______ _______ _____ _____    ______ ____
ROOT
ATOM      1  N   UNL     1       3.507   3.534  18.385  0.00  0.00    +0.000 N 
ATOM      2  C   UNL     1       2.376   4.299  18.700  0.00  0.00    +0.000 C 
ATOM      3  O   UNL     1       1.381   3.813  19.243  0.00  0.00    +0.000 OA
ENDROOT
BRANCH   1   4
ATOM      4  C   UNL     1       4.671   4.081  17.783  0.00  0.00    +0.000 A 
ATOM      5  C   UNL     1       4.906   3.931  16.414  0.00  0.00    +0.000 A 
ATOM      6  C   UNL     1       6.093   4.406  15.842  0.00  0.00    +0.000 A 
ATOM      7  C   UNL     1       6.373   4.216  14.382  0.00  0.00    +0.000 C 
ATOM      8  C   UNL     1       7.030   5.058  16.656  0.00  0.00    +0.000 A 
ATOM      9  C   UNL     1       6.795   5.234  18.022  0.00  0.00    +0.000 A 
ATOM     10  C   UNL     1       7.794   5.913  18.909  0.00  0.00    +0.000 C 
ATOM     11  C   UNL     1       5.611   4.738  18.578  0.00  0.00    +0.000 A 
ENDBRANCH   1   4
BRANCH   1  13
ATOM     12  C   UNL     1       4.377   1.912  20.114  0.00  0.00    +0.000 C 
ATOM     13  C   UNL     1       3.599   2.135  18.826  0.00  0.00    +0.000 C 
ENDBRANCH   1  13
BRANCH   2  14
ATOM     14  C   UNL     1       2.423   5.785  18.357  0.00  0.00    +0.000 C 
BRANCH  14  15
ATOM     15  C   UNL     1       2.679   6.694  19.554  0.00  0.00    +0.000 C 
BRANCH  15  16
ATOM     16  C   UNL     1       1.946   7.993  19.357  0.00  0.00    +0.000 A 
ATOM     17  N   UNL     1       1.284   8.618  20.311  0.00  0.00    +0.000 NA
ATOM     18  C   UNL     1       0.774   9.806  19.828  0.00  0.00    +0.000 A 
ATOM     19  C   UNL     1       1.050  10.078  18.506  0.00  0.00    +0.000 A 
ATOM     20  S   UNL     1       1.983   8.804  17.838  0.00  0.00    +0.000 S 
ENDBRANCH  15  16
ENDBRANCH  14  15
ENDBRANCH   2  14
TORSDOF 5
ENDMDL
MODEL 2
REMARK VINA RESULT:      -6.9      0.129      1.931
REMARK  Name = 
REMARK  8 active torsions:
REMARK  status: ('A' for Active; 'I' for Inactive)
REMARK    1  A    between atoms: C_1  and  C_2
REMARK    2  A    between atoms: C_2  and  N_3
REMARK    3  A    between atoms: N_3  and  C_13
REMARK    4  A    between atoms: C_4  and  C_6
REMARK    5  A    between atoms: C_6  and  C_7
REMARK    6  A    between atoms: C_7  and  C_8
REMARK    7  A    between atoms: C_15  and  C_16
REMARK    8  A    between atoms: C_18  and  C_19
REMARK                            x       y       z     vdW  Elec       q    Type
REMARK                         _______ _______ _______ _____ _____    ______ ____
ROOT
ATOM      1  N   UNL     1       3.584   3.561  18.495  0.00  0.00    +0.000 N 
ATOM      2  C   UNL     1       2.457   4.343  18.779  0.00  0.00    +0.000 C 
ATOM      3  O   UNL     1       1.453   3.880  19.325  0.00  0.00    +0.000 OA
ENDROOT
BRANCH   1   4
ATOM      4  C   UNL     1       4.758   4.082  17.890  0.00  0.00    +0.000 A 
ATOM      5  C   UNL     1       5.704   4.779  18.647  0.00  0.00    +0.000 A 
ATOM      6  C   UNL     1       6.821   5.356  18.028  0.00  0.00    +0.000 A 
ATOM      7  C   UNL     1       7.821   6.137  18.825  0.00  0.00    +0.000 C 
ATOM      8  C   UNL     1       6.992   5.202  16.645  0.00  0.00    +0.000 A 
ATOM      9  C   UNL     1       6.064   4.488  15.883  0.00  0.00    +0.000 A 
ATOM     10  C   UNL     1       6.222   4.330  14.401  0.00  0.00    +0.000 C 
ATOM     11  C   UNL     1       4.946   3.933  16.515  0.00  0.00    +0.000 A 
ENDBRANCH   1   4
BRANCH   1  13
ATOM     12  C   UNL     1       4.388   1.984  20.296  0.00  0.00    +0.000 C 
ATOM     13  C   UNL     1       3.660   2.174  18.973  0.00  0.00    +0.000 C 
ENDBRANCH   1  13
BRANCH   2  14
ATOM     14  C   UNL     1       2.520   5.819  18.397  0.00  0.00    +0.000 C 
BRANCH  14  15
ATOM     15  C   UNL     1       2.745   6.759  19.576  0.00  0.00    +0.000 C 
BRANCH  15  16
ATOM     16  C   UNL     1       1.964   8.027  19.359  0.00  0.00    +0.000 A 
ATOM     17  N   UNL     1       1.265   8.633  20.298  0.00  0.00    +0.000 NA
ATOM     18  C   UNL     1       0.715   9.796  19.797  0.00  0.00    +0.000 A 
ATOM     19  C   UNL     1       0.997  10.067  18.476  0.00  0.00    +0.000 A 
ATOM     20  S   UNL     1       1.988   8.824  17.832  0.00  0.00    +0.000 S 
ENDBRANCH  15  16
ENDBRANCH  14  15
ENDBRANCH   2  14
TORSDOF 5
ENDMDL
MODEL 3
REMARK VINA RESULT:      -6.8      0.942      2.207
REMARK  Name = 
REMARK  8 active torsions:
REMARK  status: ('A' for Active; 'I' for Inactive)
REMARK    1  A    between atoms: C_1  and  C_2
REMARK    2  A    between atoms: C_2  and  N_3
REMARK    3  A    between atoms: N_3  and  C_13
REMARK    4  A    between atoms: C_4  and  C_6
REMARK    5  A    between atoms: C_6  and  C_7
REMARK    6  A    between atoms: C_7  and  C_8
REMARK    7  A    between atoms: C_15  and  C_16
REMARK    8  A    between atoms: C_18  and  C_19
REMARK                            x       y       z     vdW  Elec       q    Type
REMARK                         _______ _______ _______ _____ _____    ______ ____
ROOT
ATOM      1  N   UNL     1       3.422   3.719  18.682  0.00  0.00    +0.000 N 
ATOM      2  C   UNL     1       2.312   4.571  18.759  0.00  0.00    +0.000 C 
ATOM      3  O   UNL     1       1.259   4.234  19.304  0.00  0.00    +0.000 OA
ENDROOT
BRANCH   1   4
ATOM      4  C   UNL     1       4.651   4.098  18.081  0.00  0.00    +0.000 A 
ATOM      5  C   UNL     1       5.667   4.688  18.839  0.00  0.00    +0.000 A 
ATOM      6  C   UNL     1       6.845   5.129  18.224  0.00  0.00    +0.000 A 
ATOM      7  C   UNL     1       7.924   5.797  19.021  0.00  0.00    +0.000 C 
ATOM      8  C   UNL     1       7.005   4.947  16.843  0.00  0.00    +0.000 A 
ATOM      9  C   UNL     1       6.006   4.338  16.080  0.00  0.00    +0.000 A 
ATOM     10  C   UNL     1       6.153   4.153  14.600  0.00  0.00    +0.000 C 
ATOM     11  C   UNL     1       4.829   3.919  16.708  0.00  0.00    +0.000 A 
ENDBRANCH   1   4
BRANCH   1  13
ATOM     12  C   UNL     1       3.646   1.210  18.499  0.00  0.00    +0.000 C 
ATOM     13  C   UNL     1       3.412   2.427  19.382  0.00  0.00    +0.000 C 
ENDBRANCH   1  13
BRANCH   2  14
ATOM     14  C   UNL     1       2.459   5.961  18.149  0.00  0.00    +0.000 C 
BRANCH  14  15
ATOM     15  C   UNL     1       2.885   7.037  19.143  0.00  0.00    +0.000 C 
BRANCH  15  16
ATOM     16  C   UNL     1       1.949   8.210  19.039  0.00  0.00    +0.000 A 
ATOM     17  N   UNL     1       1.639   8.808  17.905  0.00  0.00    +0.000 NA
ATOM     18  C   UNL     1       0.715   9.807  18.139  0.00  0.00    +0.000 A 
ATOM     19  C   UNL     1       0.330   9.967  19.452  0.00  0.00    +0.000 A 
ATOM     20  S   UNL     1       1.149   8.824  20.435  0.00  0.00    +0.000 S 
ENDBRANCH  15  16
ENDBRANCH  14  15
ENDBRANCH   2  14
TORSDOF 5
ENDMDL
MODEL 4
REMARK VINA RESULT:      -6.7      3.332      6.392
REMARK  Name = 
REMARK  8 active torsions:
REMARK  status: ('A' for Active; 'I' for Inactive)
REMARK    1  A    between atoms: C_1  and  C_2
REMARK    2  A    between atoms: C_2  and  N_3
REMARK    3  A    between atoms: N_3  and  C_13
REMARK    4  A    between atoms: C_4  and  C_6
REMARK    5  A    between atoms: C_6  and  C_7
REMARK    6  A    between atoms: C_7  and  C_8
REMARK    7  A    between atoms: C_15  and  C_16
REMARK    8  A    between atoms: C_18  and  C_19
REMARK                            x       y       z     vdW  Elec       q    Type
REMARK                         _______ _______ _______ _____ _____    ______ ____
ROOT
ATOM      1  N   UNL     1       6.465   5.379  18.110  0.00  0.00    +0.000 N 
ATOM      2  C   UNL     1       6.866   4.468  17.124  0.00  0.00    +0.000 C 
ATOM      3  O   UNL     1       8.052   4.231  16.888  0.00  0.00    +0.000 OA
ENDROOT
BRANCH   1   4
ATOM      4  C   UNL     1       5.104   5.645  18.414  0.00  0.00    +0.000 A 
ATOM      5  C   UNL     1       4.451   6.752  17.863  0.00  0.00    +0.000 A 
ATOM      6  C   UNL     1       3.133   7.051  18.228  0.00  0.00    +0.000 A 
ATOM      7  C   UNL     1       2.436   8.256  17.673  0.00  0.00    +0.000 C 
ATOM      8  C   UNL     1       2.466   6.211  19.132  0.00  0.00    +0.000 A 
ATOM      9  C   UNL     1       3.101   5.089  19.670  0.00  0.00    +0.000 A 
ATOM     10  C   UNL     1       2.410   4.192  20.651  0.00  0.00    +0.000 C 
ATOM     11  C   UNL     1       4.425   4.816  19.307  0.00  0.00    +0.000 A 
ENDBRANCH   1   4
BRANCH   1  13
ATOM     12  C   UNL     1       8.073   7.286  18.501  0.00  0.00    +0.000 C 
ATOM     13  C   UNL     1       7.461   5.987  19.003  0.00  0.00    +0.000 C 
ENDBRANCH   1  13
BRANCH   2  14
ATOM     14  C   UNL     1       5.764   3.752  16.348  0.00  0.00    +0.000 C 
BRANCH  14  15
ATOM     15  C   UNL     1       5.160   4.577  15.217  0.00  0.00    +0.000 C 
BRANCH  15  16
ATOM     16  C   UNL     1       6.117   4.608  14.057  0.00  0.00    +0.000 A 
ATOM     17  N   UNL     1       7.142   5.433  13.967  0.00  0.00    +0.000 NA
ATOM     18  C   UNL     1       7.856   5.171  12.815  0.00  0.00    +0.000 A 
ATOM     19  C   UNL     1       7.368   4.148  12.032  0.00  0.00    +0.000 A 
ATOM     20  S   UNL     1       5.964   3.485  12.760  0.00  0.00    +0.000 S 
ENDBRANCH  15  16
ENDBRANCH  14  15
ENDBRANCH   2  14
TORSDOF 5
ENDMDL
MODEL 5
REMARK VINA RESULT:      -6.7      2.967      5.573
REMARK  Name = 
REMARK  8 active torsions:
REMARK  status: ('A' for Active; 'I' for Inactive)
REMARK    1  A    between atoms: C_1  and  C_2
REMARK    2  A    between atoms: C_2  and  N_3
REMARK    3  A    between atoms: N_3  and  C_13
REMARK    4  A    between atoms: C_4  and  C_6
REMARK    5  A    between atoms: C_6  and  C_7
REMARK    6  A    between atoms: C_7  and  C_8
REMARK    7  A    between atoms: C_15  and  C_16
REMARK    8  A    between atoms: C_18  and  C_19
REMARK                            x       y       z     vdW  Elec       q    Type
REMARK                         _______ _______ _______ _____ _____    ______ ____
ROOT
ATOM      1  N   UNL     1       5.948   5.731  17.647  0.00  0.00    +0.000 N 
ATOM      2  C   UNL     1       6.017   4.755  16.645  0.00  0.00    +0.000 C 
ATOM      3  O   UNL     1       7.085   4.405  16.137  0.00  0.00    +0.000 OA
ENDROOT
BRANCH   1   4
ATOM      4  C   UNL     1       4.731   6.128  18.262  0.00  0.00    +0.000 A 
ATOM      5  C   UNL     1       4.238   5.447  19.378  0.00  0.00    +0.000 A 
ATOM      6  C   UNL     1       2.999   5.796  19.931  0.00  0.00    +0.000 A 
ATOM      7  C   UNL     1       2.444   5.048  21.105  0.00  0.00    +0.000 C 
ATOM      8  C   UNL     1       2.272   6.854  19.367  0.00  0.00    +0.000 A 
ATOM      9  C   UNL     1       2.767   7.556  18.265  0.00  0.00    +0.000 A 
ATOM     10  C   UNL     1       1.994   8.677  17.639  0.00  0.00    +0.000 C 
ATOM     11  C   UNL     1       3.998   7.182  17.716  0.00  0.00    +0.000 A 
ENDBRANCH   1   4
BRANCH   1  13
ATOM     12  C   UNL     1       7.655   7.591  17.627  0.00  0.00    +0.000 C 
ATOM     13  C   UNL     1       7.180   6.278  18.232  0.00  0.00    +0.000 C 
ENDBRANCH   1  13
BRANCH   2  14
ATOM     14  C   UNL     1       4.704   4.113  16.206  0.00  0.00    +0.000 C 
BRANCH  14  15
ATOM     15  C   UNL     1       4.416   2.768  16.864  0.00  0.00    +0.000 C 
BRANCH  15  16
ATOM     16  C   UNL     1       3.096   2.838  17.583  0.00  0.00    +0.000 A 
ATOM     17  N   UNL     1       2.093   3.608  17.210  0.00  0.00    +0.000 NA
ATOM     18  C   UNL     1       1.009   3.401  18.040  0.00  0.00    +0.000 A 
ATOM     19  C   UNL     1       1.195   2.474  19.042  0.00  0.00    +0.000 A 
ATOM     20  S   UNL     1       2.783   1.834  18.947  0.00  0.00    +0.000 S 
ENDBRANCH  15  16
ENDBRANCH  14  15
ENDBRANCH   2  14
TORSDOF 5
ENDMDL
MODEL 6
REMARK VINA RESULT:      -6.7      3.275      6.429
REMARK  Name = 
REMARK  8 active torsions:
REMARK  status: ('A' for Active; 'I' for Inactive)
REMARK    1  A    between atoms: C_1  and  C_2
REMARK    2  A    between atoms: C_2  and  N_3
REMARK    3  A    between atoms: N_3  and  C_13
REMARK    4  A    between atoms: C_4  and  C_6
REMARK    5  A    between atoms: C_6  and  C_7
REMARK    6  A    between atoms: C_7  and  C_8
REMARK    7  A    between atoms: C_15  and  C_16
REMARK    8  A    between atoms: C_18  and  C_19
REMARK                            x       y       z     vdW  Elec       q    Type
REMARK                         _______ _______ _______ _____ _____    ______ ____
ROOT
ATOM      1  N   UNL     1       6.436   5.180  18.263  0.00  0.00    +0.000 N 
ATOM      2  C   UNL     1       6.869   4.414  17.174  0.00  0.00    +0.000 C 
ATOM      3  O   UNL     1       8.063   4.260  16.909  0.00  0.00    +0.000 OA
ENDROOT
BRANCH   1   4
ATOM      4  C   UNL     1       5.066   5.348  18.599  0.00  0.00    +0.000 A 
ATOM      5  C   UNL     1       4.376   4.360  19.307  0.00  0.00    +0.000 A 
ATOM      6  C   UNL     1       3.007   4.499  19.566  0.00  0.00    +0.000 A 
ATOM      7  C   UNL     1       2.250   3.427  20.291  0.00  0.00    +0.000 C 
ATOM      8  C   UNL     1       2.343   5.655  19.131  0.00  0.00    +0.000 A 
ATOM      9  C   UNL     1       3.028   6.659  18.443  0.00  0.00    +0.000 A 
ATOM     10  C   UNL     1       2.329   7.891  17.955  0.00  0.00    +0.000 C 
ATOM     11  C   UNL     1       4.392   6.495  18.178  0.00  0.00    +0.000 A 
ENDBRANCH   1   4
BRANCH   1  13
ATOM     12  C   UNL     1       8.149   6.968  18.762  0.00  0.00    +0.000 C 
ATOM     13  C   UNL     1       7.410   5.719  19.222  0.00  0.00    +0.000 C 
ENDBRANCH   1  13
BRANCH   2  14
ATOM     14  C   UNL     1       5.794   3.750  16.319  0.00  0.00    +0.000 C 
BRANCH  14  15
ATOM     15  C   UNL     1       5.222   4.646  15.226  0.00  0.00    +0.000 C 
BRANCH  15  16
ATOM     16  C   UNL     1       6.143   4.630  14.036  0.00  0.00    +0.000 A 
ATOM     17  N   UNL     1       7.208   5.398  13.917  0.00  0.00    +0.000 NA
ATOM     18  C   UNL     1       7.869   5.104  12.742  0.00  0.00    +0.000 A 
ATOM     19  C   UNL     1       7.301   4.113  11.971  0.00  0.00    +0.000 A 
ATOM     20  S   UNL     1       5.888   3.524  12.741  0.00  0.00    +0.000 S 
ENDBRANCH  15  16
ENDBRANCH  14  15
ENDBRANCH   2  14
TORSDOF 5
ENDMDL
MODEL 7
REMARK VINA RESULT:      -6.6      1.144      1.381
REMARK  Name = 
REMARK  8 active torsions:
REMARK  status: ('A' for Active; 'I' for Inactive)
REMARK    1  A    between atoms: C_1  and  C_2
REMARK    2  A    between atoms: C_2  and  N_3
REMARK    3  A    between atoms: N_3  and  C_13
REMARK    4  A    between atoms: C_4  and  C_6
REMARK    5  A    between atoms: C_6  and  C_7
REMARK    6  A    between atoms: C_7  and  C_8
REMARK    7  A    between atoms: C_15  and  C_16
REMARK    8  A    between atoms: C_18  and  C_19
REMARK                            x       y       z     vdW  Elec       q    Type
REMARK                         _______ _______ _______ _____ _____    ______ ____
ROOT
ATOM      1  N   UNL     1       3.368   4.111  18.909  0.00  0.00    +0.000 N 
ATOM      2  C   UNL     1       2.553   5.098  19.478  0.00  0.00    +0.000 C 
ATOM      3  O   UNL     1       1.503   4.828  20.065  0.00  0.00    +0.000 OA
ENDROOT
BRANCH   1   4
ATOM      4  C   UNL     1       4.594   4.400  18.252  0.00  0.00    +0.000 A 
ATOM      5  C   UNL     1       4.754   4.139  16.889  0.00  0.00    +0.000 A 
ATOM      6  C   UNL     1       5.990   4.355  16.266  0.00  0.00    +0.000 A 
ATOM      7  C   UNL     1       6.183   4.043  14.813  0.00  0.00    +0.000 C 
ATOM      8  C   UNL     1       7.056   4.862  17.022  0.00  0.00    +0.000 A 
ATOM      9  C   UNL     1       6.900   5.148  18.380  0.00  0.00    +0.000 A 
ATOM     10  C   UNL     1       8.035   5.673  19.206  0.00  0.00    +0.000 C 
ATOM     11  C   UNL     1       5.663   4.910  18.989  0.00  0.00    +0.000 A 
ENDBRANCH   1   4
BRANCH   1  13
ATOM     12  C   UNL     1       2.140   2.066  18.080  0.00  0.00    +0.000 C 
ATOM     13  C   UNL     1       3.062   2.689  19.118  0.00  0.00    +0.000 C 
ENDBRANCH   1  13
BRANCH   2  14
ATOM     14  C   UNL     1       3.025   6.543  19.361  0.00  0.00    +0.000 C 
BRANCH  14  15
ATOM     15  C   UNL     1       2.415   7.306  18.189  0.00  0.00    +0.000 C 
BRANCH  15  16
ATOM     16  C   UNL     1       1.788   8.577  18.695  0.00  0.00    +0.000 A 
ATOM     17  N   UNL     1       1.536   9.627  17.938  0.00  0.00    +0.000 NA
ATOM     18  C   UNL     1       0.909  10.604  18.685  0.00  0.00    +0.000 A 
ATOM     19  C   UNL     1       0.690  10.293  20.009  0.00  0.00    +0.000 A 
ATOM     20  S   UNL     1       1.288   8.719  20.337  0.00  0.00    +0.000 S 
ENDBRANCH  15  16
ENDBRANCH  14  15
ENDBRANCH   2  14
TORSDOF 5
ENDMDL
MODEL 8
REMARK VINA RESULT:      -6.6      0.945      1.090
REMARK  Name = 
REMARK  8 active torsions:
REMARK  status: ('A' for Active; 'I' for Inactive)
REMARK    1  A    between atoms: C_1  and  C_2
REMARK    2  A    between atoms: C_2  and  N_3
REMARK    3  A    between atoms: N_3  and  C_13
REMARK    4  A    between atoms: C_4  and  C_6
REMARK    5  A    between atoms: C_6  and  C_7
REMARK    6  A    between atoms: C_7  and  C_8
REMARK    7  A    between atoms: C_15  and  C_16
REMARK    8  A    between atoms: C_18  and  C_19
REMARK                            x       y       z     vdW  Elec       q    Type
REMARK                         _______ _______ _______ _____ _____    ______ ____
ROOT
ATOM      1  N   UNL     1       3.286   3.991  17.722  0.00  0.00    +0.000 N 
ATOM      2  C   UNL     1       2.528   4.909  18.461  0.00  0.00    +0.000 C 
ATOM      3  O   UNL     1       1.406   4.640  18.895  0.00  0.00    +0.000 OA
ENDROOT
BRANCH   1   4
ATOM      4  C   UNL     1       4.590   4.274  17.236  0.00  0.00    +0.000 A 
ATOM      5  C   UNL     1       4.883   4.173  15.873  0.00  0.00    +0.000 A 
ATOM      6  C   UNL     1       6.189   4.378  15.412  0.00  0.00    +0.000 A 
ATOM      7  C   UNL     1       6.522   4.236  13.958  0.00  0.00    +0.000 C 
ATOM      8  C   UNL     1       7.194   4.713  16.331  0.00  0.00    +0.000 A 
ATOM      9  C   UNL     1       6.907   4.839  17.692  0.00  0.00    +0.000 A 
ATOM     10  C   UNL     1       7.973   5.177  18.690  0.00  0.00    +0.000 C 
ATOM     11  C   UNL     1       5.600   4.613  18.137  0.00  0.00    +0.000 A 
ENDBRANCH   1   4
BRANCH   1  13
ATOM     12  C   UNL     1       3.511   1.580  18.440  0.00  0.00    +0.000 C 
ATOM     13  C   UNL     1       2.817   2.608  17.558  0.00  0.00    +0.000 C 
ENDBRANCH   1  13
BRANCH   2  14
ATOM     14  C   UNL     1       3.156   6.273  18.729  0.00  0.00    +0.000 C 
BRANCH  14  15
ATOM     15  C   UNL     1       2.427   7.438  18.067  0.00  0.00    +0.000 C 
BRANCH  15  16
ATOM     16  C   UNL     1       1.787   8.292  19.128  0.00  0.00    +0.000 A 
ATOM     17  N   UNL     1       1.670   7.934  20.392  0.00  0.00    +0.000 NA
ATOM     18  C   UNL     1       1.093   8.957  21.117  0.00  0.00    +0.000 A 
ATOM     19  C   UNL     1       0.771  10.088  20.400  0.00  0.00    +0.000 A 
ATOM     20  S   UNL     1       1.206   9.870  18.756  0.00  0.00    +0.000 S 
ENDBRANCH  15  16
ENDBRANCH  14  15
ENDBRANCH   2  14
TORSDOF 5
ENDMDL
MODEL 9
REMARK VINA RESULT:      -6.5      2.389      4.171
REMARK  Name = 
REMARK  8 active torsions:
REMARK  status: ('A' for Active; 'I' for Inactive)
REMARK    1  A    between atoms: C_1  and  C_2
REMARK    2  A    between atoms: C_2  and  N_3
REMARK    3  A    between atoms: N_3  and  C_13
REMARK    4  A    between atoms: C_4  and  C_6
REMARK    5  A    between atoms: C_6  and  C_7
REMARK    6  A    between atoms: C_7  and  C_8
REMARK    7  A    between atoms: C_15  and  C_16
REMARK    8  A    between atoms: C_18  and  C_19
REMARK                            x       y       z     vdW  Elec       q    Type
REMARK                         _______ _______ _______ _____ _____    ______ ____
ROOT
ATOM      1  N   UNL     1       3.158   5.571  17.642  0.00  0.00    +0.000 N 
ATOM      2  C   UNL     1       2.304   4.474  17.472  0.00  0.00    +0.000 C 
ATOM      3  O   UNL     1       1.082   4.560  17.619  0.00  0.00    +0.000 OA
ENDROOT
BRANCH   1   4
ATOM      4  C   UNL     1       4.564   5.496  17.451  0.00  0.00    +0.000 A 
ATOM      5  C   UNL     1       5.103   5.285  16.180  0.00  0.00    +0.000 A 
ATOM      6  C   UNL     1       6.486   5.136  16.013  0.00  0.00    +0.000 A 
ATOM      7  C   UNL     1       7.072   4.870  14.659  0.00  0.00    +0.000 C 
ATOM      8  C   UNL     1       7.324   5.229  17.133  0.00  0.00    +0.000 A 
ATOM      9  C   UNL     1       6.797   5.463  18.405  0.00  0.00    +0.000 A 
ATOM     10  C   UNL     1       7.677   5.546  19.615  0.00  0.00    +0.000 C 
ATOM     11  C   UNL     1       5.412   5.592  18.555  0.00  0.00    +0.000 A 
ENDBRANCH   1   4
BRANCH   1  13
ATOM     12  C   UNL     1       2.352   7.270  19.326  0.00  0.00    +0.000 C 
ATOM     13  C   UNL     1       2.604   6.912  17.869  0.00  0.00    +0.000 C 
ENDBRANCH   1  13
BRANCH   2  14
ATOM     14  C   UNL     1       2.944   3.147  17.074  0.00  0.00    +0.000 C 
BRANCH  14  15
ATOM     15  C   UNL     1       2.419   1.944  17.850  0.00  0.00    +0.000 C 
BRANCH  15  16
ATOM     16  C   UNL     1       2.306   2.301  19.307  0.00  0.00    +0.000 A 
ATOM     17  N   UNL     1       1.163   2.384  19.959  0.00  0.00    +0.000 NA
ATOM     18  C   UNL     1       1.402   2.674  21.288  0.00  0.00    +0.000 A 
ATOM     19  C   UNL     1       2.726   2.812  21.639  0.00  0.00    +0.000 A 
ATOM     20  S   UNL     1       3.716   2.570  20.260  0.00  0.00    +0.000 S 
ENDBRANCH  15  16
ENDBRANCH  14  15
ENDBRANCH   2  14
TORSDOF 5
ENDMDL
