MODEL 1
REMARK VINA RESULT:      -8.9      0.000      0.000
REMARK  Name = 
REMARK  3 active torsions:
REMARK  status: ('A' for Active; 'I' for Inactive)
REMARK    1  A    between atoms: C_2  and  C_10
REMARK    2  A    between atoms: N_3  and  C_4
REMARK    3  A    between atoms: N_12  and  C_13
REMARK                            x       y       z     vdW  Elec       q    Type
REMARK                         _______ _______ _______ _____ _____    ______ ____
ROOT
ATOM      1  C   UNL     1       4.276   4.737  17.441  0.00  0.00    +0.000 A 
ATOM      2  N   UNL     1       3.948   6.009  17.790  0.00  0.00    +0.000 NA
ATOM      3  N   UNL     1       2.827   5.902  18.577  0.00  0.00    +0.000 N 
ATOM      4  C   UNL     1       2.448   4.597  18.667  0.00  0.00    +0.000 A 
ATOM      5  C   UNL     1       3.349   3.830  17.983  0.00  0.00    +0.000 A 
ATOM      6  C   UNL     1       3.176   2.370  18.191  0.00  0.00    +0.000 C 
ATOM      7  C   UNL     1       2.043   2.315  19.240  0.00  0.00    +0.000 C 
ATOM      8  C   UNL     1       0.642   2.698  18.874  0.00  0.00    +0.000 C 
ATOM      9  C   UNL     1       1.526   3.744  19.506  0.00  0.00    +0.000 C 
ENDROOT
BRANCH   3  10
ATOM     10  C   UNL     1       2.188   7.014  19.179  0.00  0.00    +0.000 A 
ATOM     11  C   UNL     1       1.791   6.956  20.529  0.00  0.00    +0.000 A 
ATOM     12  C   UNL     1       1.241   8.076  21.156  0.00  0.00    +0.000 A 
ATOM     13  C   UNL     1       1.076   9.247  20.432  0.00  0.00    +0.000 A 
ATOM     14  F   UNL     1       0.581  10.332  21.043  0.00  0.00    +0.000 F 
ATOM     15  C   UNL     1       1.424   9.314  19.088  0.00  0.00    +0.000 A 
ATOM     16  C   UNL     1       1.967   8.193  18.461  0.00  0.00    +0.000 A 
ATOM     17  F   UNL     1       2.322   8.320  17.176  0.00  0.00    +0.000 F 
ENDBRANCH   3  10
BRANCH   1  19
ATOM     18  O   UNL     1       6.608   4.357  17.175  0.00  0.00    +0.000 OA
ATOM     19  C   UNL     1       5.495   4.423  16.661  0.00  0.00    +0.000 C 
ATOM     20  N   UNL     1       5.263   4.217  15.316  0.00  0.00    +0.000 N 
ATOM     21  H   UNL     1       4.309   4.412  15.013  0.00  0.00    +0.000 HD
BRANCH  20  22
ATOM     22  C   UNL     1       6.326   4.017  14.332  0.00  0.00    +0.000 C 
ATOM     23  C   UNL     1       7.117   5.309  14.105  0.00  0.00    +0.000 C 
ATOM     24  C   UNL     1       8.114   5.147  12.964  0.00  0.00    +0.000 C 
ATOM     25  O   UNL     1       7.454   4.717  11.775  0.00  0.00    +0.000 OA
ATOM     26  C   UNL     1       6.842   3.439  11.937  0.00  0.00    +0.000 C 
ATOM     27  C   UNL     1       5.758   3.497  13.005  0.00  0.00    +0.000 C 
ENDBRANCH  20  22
ENDBRANCH   1  19
TORSDOF 3
ENDMDL
MODEL 2
REMARK VINA RESULT:      -8.8      3.787      7.456
REMARK  Name = 
REMARK  3 active torsions:
REMARK  status: ('A' for Active; 'I' for Inactive)
REMARK    1  A    between atoms: C_2  and  C_10
REMARK    2  A    between atoms: N_3  and  C_4
REMARK    3  A    between atoms: N_12  and  C_13
REMARK                            x       y       z     vdW  Elec       q    Type
REMARK                         _______ _______ _______ _____ _____    ______ ____
ROOT
ATOM      1  C   UNL     1       2.353   6.854  19.727  0.00  0.00    +0.000 A 
ATOM      2  N   UNL     1       3.398   6.931  18.862  0.00  0.00    +0.000 NA
ATOM      3  N   UNL     1       3.758   5.633  18.596  0.00  0.00    +0.000 N 
ATOM      4  C   UNL     1       2.984   4.780  19.322  0.00  0.00    +0.000 A 
ATOM      5  C   UNL     1       2.072   5.511  20.030  0.00  0.00    +0.000 A 
ATOM      6  C   UNL     1       1.024   4.689  20.688  0.00  0.00    +0.000 C 
ATOM      7  C   UNL     1       1.354   3.265  20.187  0.00  0.00    +0.000 C 
ATOM      8  C   UNL     1       2.584   2.554  20.662  0.00  0.00    +0.000 C 
ATOM      9  C   UNL     1       2.653   3.307  19.357  0.00  0.00    +0.000 C 
ENDROOT
BRANCH   3  10
ATOM     10  C   UNL     1       4.796   5.281  17.698  0.00  0.00    +0.000 A 
ATOM     11  C   UNL     1       4.502   5.013  16.347  0.00  0.00    +0.000 A 
ATOM     12  C   UNL     1       5.526   4.751  15.435  0.00  0.00    +0.000 A 
ATOM     13  C   UNL     1       6.841   4.745  15.875  0.00  0.00    +0.000 A 
ATOM     14  F   UNL     1       7.826   4.528  14.993  0.00  0.00    +0.000 F 
ATOM     15  C   UNL     1       7.152   4.967  17.211  0.00  0.00    +0.000 A 
ATOM     16  C   UNL     1       6.127   5.222  18.122  0.00  0.00    +0.000 A 
ATOM     17  F   UNL     1       6.480   5.468  19.390  0.00  0.00    +0.000 F 
ENDBRANCH   3  10
BRANCH   1  19
ATOM     18  O   UNL     1       1.172   8.161  21.325  0.00  0.00    +0.000 OA
ATOM     19  C   UNL     1       1.617   8.054  20.185  0.00  0.00    +0.000 C 
ATOM     20  N   UNL     1       1.475   9.029  19.218  0.00  0.00    +0.000 N 
ATOM     21  H   UNL     1       1.797   8.758  18.289  0.00  0.00    +0.000 HD
BRANCH  20  22
ATOM     22  C   UNL     1       0.681  10.243  19.400  0.00  0.00    +0.000 C 
ATOM     23  C   UNL     1      -0.719  10.081  18.801  0.00  0.00    +0.000 C 
ATOM     24  C   UNL     1      -1.489  11.395  18.843  0.00  0.00    +0.000 C 
ATOM     25  O   UNL     1      -0.754  12.431  18.194  0.00  0.00    +0.000 OA
ATOM     26  C   UNL     1       0.489  12.691  18.844  0.00  0.00    +0.000 C 
ATOM     27  C   UNL     1       1.386  11.461  18.791  0.00  0.00    +0.000 C 
ENDBRANCH  20  22
ENDBRANCH   1  19
TORSDOF 3
ENDMDL
MODEL 3
REMARK VINA RESULT:      -8.7      0.914      1.323
REMARK  Name = 
REMARK  3 active torsions:
REMARK  status: ('A' for Active; 'I' for Inactive)
REMARK    1  A    between atoms: C_2  and  C_10
REMARK    2  A    between atoms: N_3  and  C_4
REMARK    3  A    between atoms: N_12  and  C_13
REMARK                            x       y       z     vdW  Elec       q    Type
REMARK                         _______ _______ _______ _____ _____    ______ ____
ROOT
ATOM      1  C   UNL     1       4.262   4.770  17.357  0.00  0.00    +0.000 A 
ATOM      2  N   UNL     1       3.973   6.056  17.690  0.00  0.00    +0.000 NA
ATOM      3  N   UNL     1       2.845   5.994  18.471  0.00  0.00    +0.000 N 
ATOM      4  C   UNL     1       2.422   4.704  18.571  0.00  0.00    +0.000 A 
ATOM      5  C   UNL     1       3.302   3.900  17.901  0.00  0.00    +0.000 A 
ATOM      6  C   UNL     1       3.079   2.449  18.124  0.00  0.00    +0.000 C 
ATOM      7  C   UNL     1       1.938   2.442  19.166  0.00  0.00    +0.000 C 
ATOM      8  C   UNL     1       0.553   2.868  18.787  0.00  0.00    +0.000 C 
ATOM      9  C   UNL     1       1.467   3.891  19.413  0.00  0.00    +0.000 C 
ENDROOT
BRANCH   3  10
ATOM     10  C   UNL     1       2.239   7.134  19.057  0.00  0.00    +0.000 A 
ATOM     11  C   UNL     1       1.951   8.265  18.268  0.00  0.00    +0.000 A 
ATOM     12  C   UNL     1       1.275   9.357  18.815  0.00  0.00    +0.000 A 
ATOM     13  C   UNL     1       0.899   9.325  20.149  0.00  0.00    +0.000 A 
ATOM     14  F   UNL     1       0.219  10.358  20.664  0.00  0.00    +0.000 F 
ATOM     15  C   UNL     1       1.208   8.236  20.955  0.00  0.00    +0.000 A 
ATOM     16  C   UNL     1       1.890   7.148  20.410  0.00  0.00    +0.000 A 
ATOM     17  F   UNL     1       2.131   6.107  21.217  0.00  0.00    +0.000 F 
ENDBRANCH   3  10
BRANCH   1  19
ATOM     18  O   UNL     1       6.570   4.251  17.119  0.00  0.00    +0.000 OA
ATOM     19  C   UNL     1       5.473   4.407  16.588  0.00  0.00    +0.000 C 
ATOM     20  N   UNL     1       5.258   4.267  15.232  0.00  0.00    +0.000 N 
ATOM     21  H   UNL     1       4.324   4.533  14.919  0.00  0.00    +0.000 HD
BRANCH  20  22
ATOM     22  C   UNL     1       6.326   4.035  14.261  0.00  0.00    +0.000 C 
ATOM     23  C   UNL     1       7.130   5.314  14.011  0.00  0.00    +0.000 C 
ATOM     24  C   UNL     1       8.134   5.119  12.882  0.00  0.00    +0.000 C 
ATOM     25  O   UNL     1       7.479   4.667  11.697  0.00  0.00    +0.000 OA
ATOM     26  C   UNL     1       6.855   3.398  11.883  0.00  0.00    +0.000 C 
ATOM     27  C   UNL     1       5.764   3.490  12.942  0.00  0.00    +0.000 C 
ENDBRANCH  20  22
ENDBRANCH   1  19
TORSDOF 3
ENDMDL
MODEL 4
REMARK VINA RESULT:      -8.5      3.793      7.479
REMARK  Name = 
REMARK  3 active torsions:
REMARK  status: ('A' for Active; 'I' for Inactive)
REMARK    1  A    between atoms: C_2  and  C_10
REMARK    2  A    between atoms: N_3  and  C_4
REMARK    3  A    between atoms: N_12  and  C_13
REMARK                            x       y       z     vdW  Elec       q    Type
REMARK                         _______ _______ _______ _____ _____    ______ ____
ROOT
ATOM      1  C   UNL     1       2.350   6.948  19.649  0.00  0.00    +0.000 A 
ATOM      2  N   UNL     1       3.288   7.071  18.673  0.00  0.00    +0.000 NA
ATOM      3  N   UNL     1       3.756   5.801  18.443  0.00  0.00    +0.000 N 
ATOM      4  C   UNL     1       3.154   4.925  19.295  0.00  0.00    +0.000 A 
ATOM      5  C   UNL     1       2.246   5.607  20.055  0.00  0.00    +0.000 A 
ATOM      6  C   UNL     1       1.363   4.730  20.867  0.00  0.00    +0.000 C 
ATOM      7  C   UNL     1       1.791   3.316  20.415  0.00  0.00    +0.000 C 
ATOM      8  C   UNL     1       3.131   2.765  20.793  0.00  0.00    +0.000 C 
ATOM      9  C   UNL     1       2.987   3.431  19.448  0.00  0.00    +0.000 C 
ENDROOT
BRANCH   3  10
ATOM     10  C   UNL     1       4.729   5.494  17.460  0.00  0.00    +0.000 A 
ATOM     11  C   UNL     1       5.963   6.174  17.451  0.00  0.00    +0.000 A 
ATOM     12  C   UNL     1       6.962   5.818  16.543  0.00  0.00    +0.000 A 
ATOM     13  C   UNL     1       6.725   4.795  15.638  0.00  0.00    +0.000 A 
ATOM     14  F   UNL     1       7.697   4.431  14.790  0.00  0.00    +0.000 F 
ATOM     15  C   UNL     1       5.500   4.139  15.603  0.00  0.00    +0.000 A 
ATOM     16  C   UNL     1       4.501   4.499  16.506  0.00  0.00    +0.000 A 
ATOM     17  F   UNL     1       3.353   3.811  16.458  0.00  0.00    +0.000 F 
ENDBRANCH   3  10
BRANCH   1  19
ATOM     18  O   UNL     1       1.115   8.181  21.264  0.00  0.00    +0.000 OA
ATOM     19  C   UNL     1       1.541   8.096  20.115  0.00  0.00    +0.000 C 
ATOM     20  N   UNL     1       1.308   9.050  19.145  0.00  0.00    +0.000 N 
ATOM     21  H   UNL     1       1.628   8.795  18.211  0.00  0.00    +0.000 HD
BRANCH  20  22
ATOM     22  C   UNL     1       0.433  10.206  19.337  0.00  0.00    +0.000 C 
ATOM     23  C   UNL     1      -0.676  10.239  18.282  0.00  0.00    +0.000 C 
ATOM     24  C   UNL     1      -1.486  11.526  18.379  0.00  0.00    +0.000 C 
ATOM     25  O   UNL     1      -0.634  12.667  18.285  0.00  0.00    +0.000 OA
ATOM     26  C   UNL     1       0.305  12.720  19.357  0.00  0.00    +0.000 C 
ATOM     27  C   UNL     1       1.234  11.514  19.313  0.00  0.00    +0.000 C 
ENDBRANCH  20  22
ENDBRANCH   1  19
TORSDOF 3
ENDMDL
MODEL 5
REMARK VINA RESULT:      -8.4      3.434      7.390
REMARK  Name = 
REMARK  3 active torsions:
REMARK  status: ('A' for Active; 'I' for Inactive)
REMARK    1  A    between atoms: C_2  and  C_10
REMARK    2  A    between atoms: N_3  and  C_4
REMARK    3  A    between atoms: N_12  and  C_13
REMARK                            x       y       z     vdW  Elec       q    Type
REMARK                         _______ _______ _______ _____ _____    ______ ____
ROOT
ATOM      1  C   UNL     1       2.352   6.753  19.470  0.00  0.00    +0.000 A 
ATOM      2  N   UNL     1       3.281   6.817  18.480  0.00  0.00    +0.000 NA
ATOM      3  N   UNL     1       3.539   5.515  18.126  0.00  0.00    +0.000 N 
ATOM      4  C   UNL     1       2.823   4.670  18.919  0.00  0.00    +0.000 A 
ATOM      5  C   UNL     1       2.046   5.413  19.763  0.00  0.00    +0.000 A 
ATOM      6  C   UNL     1       1.051   4.614  20.523  0.00  0.00    +0.000 C 
ATOM      7  C   UNL     1       1.244   3.197  19.938  0.00  0.00    +0.000 C 
ATOM      8  C   UNL     1       2.488   2.414  20.225  0.00  0.00    +0.000 C 
ATOM      9  C   UNL     1       2.427   3.212  18.947  0.00  0.00    +0.000 C 
ENDROOT
BRANCH   3  10
ATOM     10  C   UNL     1       4.435   5.151  17.090  0.00  0.00    +0.000 A 
ATOM     11  C   UNL     1       4.887   3.822  16.981  0.00  0.00    +0.000 A 
ATOM     12  C   UNL     1       5.699   3.434  15.914  0.00  0.00    +0.000 A 
ATOM     13  C   UNL     1       6.068   4.374  14.965  0.00  0.00    +0.000 A 
ATOM     14  F   UNL     1       6.818   3.994  13.921  0.00  0.00    +0.000 F 
ATOM     15  C   UNL     1       5.667   5.700  15.074  0.00  0.00    +0.000 A 
ATOM     16  C   UNL     1       4.861   6.088  16.145  0.00  0.00    +0.000 A 
ATOM     17  F   UNL     1       4.469   7.368  16.186  0.00  0.00    +0.000 F 
ENDBRANCH   3  10
BRANCH   1  19
ATOM     18  O   UNL     1       1.419   8.035  21.242  0.00  0.00    +0.000 OA
ATOM     19  C   UNL     1       1.741   7.966  20.059  0.00  0.00    +0.000 C 
ATOM     20  N   UNL     1       1.565   8.999  19.160  0.00  0.00    +0.000 N 
ATOM     21  H   UNL     1       1.776   8.761  18.191  0.00  0.00    +0.000 HD
BRANCH  20  22
ATOM     22  C   UNL     1       0.870  10.244  19.482  0.00  0.00    +0.000 C 
ATOM     23  C   UNL     1      -0.631  10.126  19.201  0.00  0.00    +0.000 C 
ATOM     24  C   UNL     1      -1.329  11.468  19.378  0.00  0.00    +0.000 C 
ATOM     25  O   UNL     1      -0.717  12.467  18.563  0.00  0.00    +0.000 OA
ATOM     26  C   UNL     1       0.645  12.689  18.925  0.00  0.00    +0.000 C 
ATOM     27  C   UNL     1       1.468  11.425  18.708  0.00  0.00    +0.000 C 
ENDBRANCH  20  22
ENDBRANCH   1  19
TORSDOF 3
ENDMDL
MODEL 6
REMARK VINA RESULT:      -8.4      3.656      8.053
REMARK  Name = 
REMARK  3 active torsions:
REMARK  status: ('A' for Active; 'I' for Inactive)
REMARK    1  A    between atoms: C_2  and  C_10
REMARK    2  A    between atoms: N_3  and  C_4
REMARK    3  A    between atoms: N_12  and  C_13
REMARK                            x       y       z     vdW  Elec       q    Type
REMARK                         _______ _______ _______ _____ _____    ______ ____
ROOT
ATOM      1  C   UNL     1       2.376   6.875  19.687  0.00  0.00    +0.000 A 
ATOM      2  N   UNL     1       3.402   6.935  18.797  0.00  0.00    +0.000 NA
ATOM      3  N   UNL     1       3.806   5.637  18.604  0.00  0.00    +0.000 N 
ATOM      4  C   UNL     1       3.077   4.804  19.398  0.00  0.00    +0.000 A 
ATOM      5  C   UNL     1       2.151   5.544  20.078  0.00  0.00    +0.000 A 
ATOM      6  C   UNL     1       1.147   4.727  20.806  0.00  0.00    +0.000 C 
ATOM      7  C   UNL     1       1.521   3.287  20.388  0.00  0.00    +0.000 C 
ATOM      8  C   UNL     1       2.786   2.653  20.880  0.00  0.00    +0.000 C 
ATOM      9  C   UNL     1       2.803   3.324  19.530  0.00  0.00    +0.000 C 
ENDROOT
BRANCH   3  10
ATOM     10  C   UNL     1       4.840   5.267  17.709  0.00  0.00    +0.000 A 
ATOM     11  C   UNL     1       4.534   4.927  16.377  0.00  0.00    +0.000 A 
ATOM     12  C   UNL     1       5.552   4.647  15.464  0.00  0.00    +0.000 A 
ATOM     13  C   UNL     1       6.872   4.694  15.883  0.00  0.00    +0.000 A 
ATOM     14  F   UNL     1       7.851   4.459  14.998  0.00  0.00    +0.000 F 
ATOM     15  C   UNL     1       7.196   4.987  17.203  0.00  0.00    +0.000 A 
ATOM     16  C   UNL     1       6.177   5.261  18.116  0.00  0.00    +0.000 A 
ATOM     17  F   UNL     1       6.541   5.576  19.366  0.00  0.00    +0.000 F 
ENDBRANCH   3  10
BRANCH   1  19
ATOM     18  O   UNL     1       1.028   8.787  19.268  0.00  0.00    +0.000 OA
ATOM     19  C   UNL     1       1.604   8.073  20.084  0.00  0.00    +0.000 C 
ATOM     20  N   UNL     1       1.599   8.313  21.444  0.00  0.00    +0.000 N 
ATOM     21  H   UNL     1       2.209   7.702  21.987  0.00  0.00    +0.000 HD
BRANCH  20  22
ATOM     22  C   UNL     1       1.009   9.503  22.055  0.00  0.00    +0.000 C 
ATOM     23  C   UNL     1      -0.361   9.187  22.665  0.00  0.00    +0.000 C 
ATOM     24  C   UNL     1      -1.047  10.456  23.154  0.00  0.00    +0.000 C 
ATOM     25  O   UNL     1      -1.146  11.415  22.102  0.00  0.00    +0.000 OA
ATOM     26  C   UNL     1       0.136  11.826  21.633  0.00  0.00    +0.000 C 
ATOM     27  C   UNL     1       0.892  10.645  21.038  0.00  0.00    +0.000 C 
ENDBRANCH  20  22
ENDBRANCH   1  19
TORSDOF 3
ENDMDL
MODEL 7
REMARK VINA RESULT:      -8.2      3.366      7.358
REMARK  Name = 
REMARK  3 active torsions:
REMARK  status: ('A' for Active; 'I' for Inactive)
REMARK    1  A    between atoms: C_2  and  C_10
REMARK    2  A    between atoms: N_3  and  C_4
REMARK    3  A    between atoms: N_12  and  C_13
REMARK                            x       y       z     vdW  Elec       q    Type
REMARK                         _______ _______ _______ _____ _____    ______ ____
ROOT
ATOM      1  C   UNL     1       2.708   6.503  18.711  0.00  0.00    +0.000 A 
ATOM      2  N   UNL     1       3.760   6.674  17.867  0.00  0.00    +0.000 NA
ATOM      3  N   UNL     1       4.037   5.429  17.360  0.00  0.00    +0.000 N 
ATOM      4  C   UNL     1       3.207   4.506  17.919  0.00  0.00    +0.000 A 
ATOM      5  C   UNL     1       2.340   5.147  18.759  0.00  0.00    +0.000 A 
ATOM      6  C   UNL     1       1.239   4.285  19.259  0.00  0.00    +0.000 C 
ATOM      7  C   UNL     1       1.479   2.962  18.498  0.00  0.00    +0.000 C 
ATOM      8  C   UNL     1       2.660   2.098  18.821  0.00  0.00    +0.000 C 
ATOM      9  C   UNL     1       2.782   3.076  17.680  0.00  0.00    +0.000 C 
ENDROOT
BRANCH   3  10
ATOM     10  C   UNL     1       5.055   5.186  16.404  0.00  0.00    +0.000 A 
ATOM     11  C   UNL     1       4.743   4.549  15.186  0.00  0.00    +0.000 A 
ATOM     12  C   UNL     1       5.719   4.384  14.202  0.00  0.00    +0.000 A 
ATOM     13  C   UNL     1       7.005   4.842  14.437  0.00  0.00    +0.000 A 
ATOM     14  F   UNL     1       7.933   4.715  13.478  0.00  0.00    +0.000 F 
ATOM     15  C   UNL     1       7.345   5.437  15.647  0.00  0.00    +0.000 A 
ATOM     16  C   UNL     1       6.371   5.596  16.632  0.00  0.00    +0.000 A 
ATOM     17  F   UNL     1       6.738   6.209  17.765  0.00  0.00    +0.000 F 
ENDBRANCH   3  10
BRANCH   1  19
ATOM     18  O   UNL     1       1.670   7.582  20.558  0.00  0.00    +0.000 OA
ATOM     19  C   UNL     1       2.048   7.640  19.391  0.00  0.00    +0.000 C 
ATOM     20  N   UNL     1       1.896   8.758  18.596  0.00  0.00    +0.000 N 
ATOM     21  H   UNL     1       2.157   8.626  17.619  0.00  0.00    +0.000 HD
BRANCH  20  22
ATOM     22  C   UNL     1       1.164   9.954  19.011  0.00  0.00    +0.000 C 
ATOM     23  C   UNL     1      -0.278   9.925  18.494  0.00  0.00    +0.000 C 
ATOM     24  C   UNL     1      -0.990  11.240  18.783  0.00  0.00    +0.000 C 
ATOM     25  O   UNL     1      -0.258  12.340  18.243  0.00  0.00    +0.000 OA
ATOM     26  C   UNL     1       1.033  12.462  18.835  0.00  0.00    +0.000 C 
ATOM     27  C   UNL     1       1.876  11.228  18.539  0.00  0.00    +0.000 C 
ENDBRANCH  20  22
ENDBRANCH   1  19
TORSDOF 3
ENDMDL
MODEL 8
REMARK VINA RESULT:      -8.2      3.791      7.646
REMARK  Name = 
REMARK  3 active torsions:
REMARK  status: ('A' for Active; 'I' for Inactive)
REMARK    1  A    between atoms: C_2  and  C_10
REMARK    2  A    between atoms: N_3  and  C_4
REMARK    3  A    between atoms: N_12  and  C_13
REMARK                            x       y       z     vdW  Elec       q    Type
REMARK                         _______ _______ _______ _____ _____    ______ ____
ROOT
ATOM      1  C   UNL     1       2.328   6.843  19.715  0.00  0.00    +0.000 A 
ATOM      2  N   UNL     1       3.370   6.922  18.846  0.00  0.00    +0.000 NA
ATOM      3  N   UNL     1       3.760   5.626  18.613  0.00  0.00    +0.000 N 
ATOM      4  C   UNL     1       3.006   4.774  19.362  0.00  0.00    +0.000 A 
ATOM      5  C   UNL     1       2.078   5.502  20.053  0.00  0.00    +0.000 A 
ATOM      6  C   UNL     1       1.050   4.673  20.732  0.00  0.00    +0.000 C 
ATOM      7  C   UNL     1       1.413   3.244  20.268  0.00  0.00    +0.000 C 
ATOM      8  C   UNL     1       2.660   2.575  20.759  0.00  0.00    +0.000 C 
ATOM      9  C   UNL     1       2.710   3.295  19.435  0.00  0.00    +0.000 C 
ENDROOT
BRANCH   3  10
ATOM     10  C   UNL     1       4.805   5.275  17.722  0.00  0.00    +0.000 A 
ATOM     11  C   UNL     1       4.514   4.956  16.381  0.00  0.00    +0.000 A 
ATOM     12  C   UNL     1       5.543   4.695  15.475  0.00  0.00    +0.000 A 
ATOM     13  C   UNL     1       6.858   4.739  15.909  0.00  0.00    +0.000 A 
ATOM     14  F   UNL     1       7.847   4.523  15.031  0.00  0.00    +0.000 F 
ATOM     15  C   UNL     1       7.167   5.012  17.237  0.00  0.00    +0.000 A 
ATOM     16  C   UNL     1       6.138   5.266  18.143  0.00  0.00    +0.000 A 
ATOM     17  F   UNL     1       6.487   5.562  19.402  0.00  0.00    +0.000 F 
ENDBRANCH   3  10
BRANCH   1  19
ATOM     18  O   UNL     1       0.970   8.090  21.216  0.00  0.00    +0.000 OA
ATOM     19  C   UNL     1       1.564   8.037  20.143  0.00  0.00    +0.000 C 
ATOM     20  N   UNL     1       1.580   9.071  19.228  0.00  0.00    +0.000 N 
ATOM     21  H   UNL     1       2.021   8.845  18.337  0.00  0.00    +0.000 HD
BRANCH  20  22
ATOM     22  C   UNL     1       0.798  10.297  19.378  0.00  0.00    +0.000 C 
ATOM     23  C   UNL     1       0.921  10.860  20.797  0.00  0.00    +0.000 C 
ATOM     24  C   UNL     1      -0.020  12.040  21.002  0.00  0.00    +0.000 C 
ATOM     25  O   UNL     1      -1.364  11.673  20.695  0.00  0.00    +0.000 OA
ATOM     26  C   UNL     1      -1.514  11.292  19.329  0.00  0.00    +0.000 C 
ATOM     27  C   UNL     1      -0.675  10.058  19.023  0.00  0.00    +0.000 C 
ENDBRANCH  20  22
ENDBRANCH   1  19
TORSDOF 3
ENDMDL
MODEL 9
REMARK VINA RESULT:      -8.0      3.643      8.049
REMARK  Name = 
REMARK  3 active torsions:
REMARK  status: ('A' for Active; 'I' for Inactive)
REMARK    1  A    between atoms: C_2  and  C_10
REMARK    2  A    between atoms: N_3  and  C_4
REMARK    3  A    between atoms: N_12  and  C_13
REMARK                            x       y       z     vdW  Elec       q    Type
REMARK                         _______ _______ _______ _____ _____    ______ ____
ROOT
ATOM      1  C   UNL     1       2.338   6.995  19.601  0.00  0.00    +0.000 A 
ATOM      2  N   UNL     1       3.290   7.099  18.636  0.00  0.00    +0.000 NA
ATOM      3  N   UNL     1       3.744   5.821  18.422  0.00  0.00    +0.000 N 
ATOM      4  C   UNL     1       3.121   4.960  19.273  0.00  0.00    +0.000 A 
ATOM      5  C   UNL     1       2.212   5.659  20.016  0.00  0.00    +0.000 A 
ATOM      6  C   UNL     1       1.308   4.800  20.823  0.00  0.00    +0.000 C 
ATOM      7  C   UNL     1       1.723   3.376  20.388  0.00  0.00    +0.000 C 
ATOM      8  C   UNL     1       3.052   2.812  20.787  0.00  0.00    +0.000 C 
ATOM      9  C   UNL     1       2.934   3.470  19.435  0.00  0.00    +0.000 C 
ENDROOT
BRANCH   3  10
ATOM     10  C   UNL     1       4.726   5.495  17.454  0.00  0.00    +0.000 A 
ATOM     11  C   UNL     1       5.967   6.161  17.452  0.00  0.00    +0.000 A 
ATOM     12  C   UNL     1       6.973   5.786  16.560  0.00  0.00    +0.000 A 
ATOM     13  C   UNL     1       6.736   4.757  15.663  0.00  0.00    +0.000 A 
ATOM     14  F   UNL     1       7.714   4.374  14.830  0.00  0.00    +0.000 F 
ATOM     15  C   UNL     1       5.505   4.112  15.619  0.00  0.00    +0.000 A 
ATOM     16  C   UNL     1       4.499   4.492  16.507  0.00  0.00    +0.000 A 
ATOM     17  F   UNL     1       3.344   3.815  16.452  0.00  0.00    +0.000 F 
ENDBRANCH   3  10
BRANCH   1  19
ATOM     18  O   UNL     1       0.888   8.850  19.269  0.00  0.00    +0.000 OA
ATOM     19  C   UNL     1       1.537   8.157  20.048  0.00  0.00    +0.000 C 
ATOM     20  N   UNL     1       1.594   8.389  21.408  0.00  0.00    +0.000 N 
ATOM     21  H   UNL     1       2.258   7.803  21.913  0.00  0.00    +0.000 HD
BRANCH  20  22
ATOM     22  C   UNL     1       0.986   9.550  22.058  0.00  0.00    +0.000 C 
ATOM     23  C   UNL     1      -0.387   9.199  22.638  0.00  0.00    +0.000 C 
ATOM     24  C   UNL     1      -1.091  10.442  23.169  0.00  0.00    +0.000 C 
ATOM     25  O   UNL     1      -1.186  11.440  22.154  0.00  0.00    +0.000 OA
ATOM     26  C   UNL     1       0.098  11.880  21.717  0.00  0.00    +0.000 C 
ATOM     27  C   UNL     1       0.871  10.730  21.085  0.00  0.00    +0.000 C 
ENDBRANCH  20  22
ENDBRANCH   1  19
TORSDOF 3
ENDMDL
