MODEL 1
REMARK VINA RESULT:      -8.0      0.000      0.000
REMARK  Name = 
REMARK  3 active torsions:
REMARK  status: ('A' for Active; 'I' for Inactive)
REMARK    1  A    between atoms: C_5  and  C_6
REMARK    2  A    between atoms: C_6  and  C_15
REMARK    3  A    between atoms: C_7  and  C_8
REMARK                            x       y       z     vdW  Elec       q    Type
REMARK                         _______ _______ _______ _____ _____    ______ ____
ROOT
ATOM      1  C   UNL     1       2.390   6.869  19.796  0.00  0.00    +0.000 C 
ATOM      2  C   UNL     1       3.356   7.228  18.911  0.00  0.00    +0.000 C 
ENDROOT
BRANCH   1   3
ATOM      3  C   UNL     1       1.608   7.928  20.352  0.00  0.00    +0.000 A 
ATOM      4  N   UNL     1       1.092   9.000  19.769  0.00  0.00    +0.000 NA
ATOM      5  C   UNL     1       0.400   9.673  20.741  0.00  0.00    +0.000 A 
ATOM      6  C   UNL     1      -0.377  10.837  20.655  0.00  0.00    +0.000 A 
ATOM      7  C   UNL     1      -0.996  11.322  21.815  0.00  0.00    +0.000 A 
ATOM      8  C   UNL     1      -0.846  10.658  23.035  0.00  0.00    +0.000 A 
ATOM      9  C   UNL     1      -0.081   9.490  23.139  0.00  0.00    +0.000 A 
ATOM     10  C   UNL     1       0.523   9.031  21.969  0.00  0.00    +0.000 A 
ATOM     11  N   UNL     1       1.319   7.947  21.699  0.00  0.00    +0.000 N 
ATOM     12  H   UNL     1       1.593   7.247  22.372  0.00  0.00    +0.000 HD
ENDBRANCH   1   3
BRANCH   2  13
ATOM     13  C   UNL     1       4.217   6.326  18.133  0.00  0.00    +0.000 A 
ATOM     14  C   UNL     1       5.107   5.461  18.784  0.00  0.00    +0.000 A 
ATOM     15  C   UNL     1       6.058   4.744  18.049  0.00  0.00    +0.000 A 
ATOM     16  C   UNL     1       6.089   4.856  16.661  0.00  0.00    +0.000 A 
ATOM     17 CL   UNL     1       7.304   4.030  15.763  0.00  0.00    +0.000 Cl
ATOM     18  C   UNL     1       5.155   5.649  15.997  0.00  0.00    +0.000 A 
ATOM     19  C   UNL     1       4.220   6.385  16.733  0.00  0.00    +0.000 A 
ENDBRANCH   2  13
BRANCH   1  24
ATOM     20  O   UNL     1       2.395   2.683  22.016  0.00  0.00    +0.000 OA
ATOM     21  C   UNL     1       2.077   3.454  21.117  0.00  0.00    +0.000 C 
ATOM     22  C   UNL     1       1.490   2.963  19.816  0.00  0.00    +0.000 C 
ATOM     23  S   UNL     1       1.547   4.409  18.734  0.00  0.00    +0.000 S 
ATOM     24  C   UNL     1       2.105   5.415  20.063  0.00  0.00    +0.000 C 
ATOM     25  N   UNL     1       2.233   4.815  21.195  0.00  0.00    +0.000 NA
ENDBRANCH   1  24
TORSDOF 3
ENDMDL
MODEL 2
REMARK VINA RESULT:      -7.8      0.713      1.211
REMARK  Name = 
REMARK  3 active torsions:
REMARK  status: ('A' for Active; 'I' for Inactive)
REMARK    1  A    between atoms: C_5  and  C_6
REMARK    2  A    between atoms: C_6  and  C_15
REMARK    3  A    between atoms: C_7  and  C_8
REMARK                            x       y       z     vdW  Elec       q    Type
REMARK                         _______ _______ _______ _____ _____    ______ ____
ROOT
ATOM      1  C   UNL     1       2.647   6.935  19.254  0.00  0.00    +0.000 C 
ATOM      2  C   UNL     1       3.598   7.386  18.396  0.00  0.00    +0.000 C 
ENDROOT
BRANCH   1   3
ATOM      3  C   UNL     1       1.853   7.928  19.906  0.00  0.00    +0.000 A 
ATOM      4  N   UNL     1       1.278   9.014  19.412  0.00  0.00    +0.000 NA
ATOM      5  C   UNL     1       0.602   9.600  20.451  0.00  0.00    +0.000 A 
ATOM      6  C   UNL     1      -0.217  10.738  20.469  0.00  0.00    +0.000 A 
ATOM      7  C   UNL     1      -0.804  11.127  21.680  0.00  0.00    +0.000 A 
ATOM      8  C   UNL     1      -0.583  10.395  22.849  0.00  0.00    +0.000 A 
ATOM      9  C   UNL     1       0.225   9.252  22.850  0.00  0.00    +0.000 A 
ATOM     10  C   UNL     1       0.797   8.888  21.630  0.00  0.00    +0.000 A 
ATOM     11  N   UNL     1       1.618   7.853  21.262  0.00  0.00    +0.000 N 
ATOM     12  H   UNL     1       1.943   7.123  21.878  0.00  0.00    +0.000 HD
ENDBRANCH   1   3
BRANCH   2  13
ATOM     13  C   UNL     1       4.468   6.569  17.536  0.00  0.00    +0.000 A 
ATOM     14  C   UNL     1       4.566   6.846  16.166  0.00  0.00    +0.000 A 
ATOM     15  C   UNL     1       5.237   5.960  15.315  0.00  0.00    +0.000 A 
ATOM     16  C   UNL     1       5.848   4.824  15.840  0.00  0.00    +0.000 A 
ATOM     17 CL   UNL     1       6.612   3.698  14.785  0.00  0.00    +0.000 Cl
ATOM     18  C   UNL     1       5.827   4.583  17.212  0.00  0.00    +0.000 A 
ATOM     19  C   UNL     1       5.135   5.455  18.060  0.00  0.00    +0.000 A 
ENDBRANCH   2  13
BRANCH   1  24
ATOM     20  O   UNL     1       2.910   2.534  20.993  0.00  0.00    +0.000 OA
ATOM     21  C   UNL     1       2.485   3.395  20.230  0.00  0.00    +0.000 C 
ATOM     22  C   UNL     1       1.734   3.043  18.970  0.00  0.00    +0.000 C 
ATOM     23  S   UNL     1       1.660   4.597  18.050  0.00  0.00    +0.000 S 
ATOM     24  C   UNL     1       2.390   5.459  19.398  0.00  0.00    +0.000 C 
ATOM     25  N   UNL     1       2.658   4.741  20.433  0.00  0.00    +0.000 NA
ENDBRANCH   1  24
TORSDOF 3
ENDMDL
MODEL 3
REMARK VINA RESULT:      -7.8      1.307      1.683
REMARK  Name = 
REMARK  3 active torsions:
REMARK  status: ('A' for Active; 'I' for Inactive)
REMARK    1  A    between atoms: C_5  and  C_6
REMARK    2  A    between atoms: C_6  and  C_15
REMARK    3  A    between atoms: C_7  and  C_8
REMARK                            x       y       z     vdW  Elec       q    Type
REMARK                         _______ _______ _______ _____ _____    ______ ____
ROOT
ATOM      1  C   UNL     1       2.562   6.881  19.266  0.00  0.00    +0.000 C 
ATOM      2  C   UNL     1       3.567   7.316  18.464  0.00  0.00    +0.000 C 
ENDROOT
BRANCH   1   3
ATOM      3  C   UNL     1       1.794   7.888  19.929  0.00  0.00    +0.000 A 
ATOM      4  N   UNL     1       1.227   8.982  19.442  0.00  0.00    +0.000 NA
ATOM      5  C   UNL     1       0.578   9.581  20.491  0.00  0.00    +0.000 A 
ATOM      6  C   UNL     1      -0.223  10.731  20.520  0.00  0.00    +0.000 A 
ATOM      7  C   UNL     1      -0.784  11.132  21.740  0.00  0.00    +0.000 A 
ATOM      8  C   UNL     1      -0.553  10.399  22.907  0.00  0.00    +0.000 A 
ATOM      9  C   UNL     1       0.237   9.244  22.897  0.00  0.00    +0.000 A 
ATOM     10  C   UNL     1       0.783   8.869  21.668  0.00  0.00    +0.000 A 
ATOM     11  N   UNL     1       1.581   7.820  21.289  0.00  0.00    +0.000 N 
ATOM     12  H   UNL     1       1.905   7.087  21.901  0.00  0.00    +0.000 HD
ENDBRANCH   1   3
BRANCH   2  13
ATOM     13  C   UNL     1       4.427   6.490  17.603  0.00  0.00    +0.000 A 
ATOM     14  C   UNL     1       4.600   6.820  16.252  0.00  0.00    +0.000 A 
ATOM     15  C   UNL     1       5.258   5.936  15.390  0.00  0.00    +0.000 A 
ATOM     16  C   UNL     1       5.782   4.745  15.886  0.00  0.00    +0.000 A 
ATOM     17 CL   UNL     1       6.528   3.625  14.812  0.00  0.00    +0.000 Cl
ATOM     18  C   UNL     1       5.688   4.446  17.244  0.00  0.00    +0.000 A 
ATOM     19  C   UNL     1       5.009   5.318  18.102  0.00  0.00    +0.000 A 
ENDBRANCH   2  13
BRANCH   1  24
ATOM     20  O   UNL     1       0.627   2.713  18.113  0.00  0.00    +0.000 OA
ATOM     21  C   UNL     1       1.343   3.448  18.783  0.00  0.00    +0.000 C 
ATOM     22  C   UNL     1       1.879   3.028  20.130  0.00  0.00    +0.000 C 
ATOM     23  S   UNL     1       2.540   4.553  20.837  0.00  0.00    +0.000 S 
ATOM     24  C   UNL     1       2.224   5.416  19.339  0.00  0.00    +0.000 C 
ATOM     25  N   UNL     1       1.712   4.710  18.391  0.00  0.00    +0.000 NA
ENDBRANCH   1  24
TORSDOF 3
ENDMDL
MODEL 4
REMARK VINA RESULT:      -7.7      0.268      1.198
REMARK  Name = 
REMARK  3 active torsions:
REMARK  status: ('A' for Active; 'I' for Inactive)
REMARK    1  A    between atoms: C_5  and  C_6
REMARK    2  A    between atoms: C_6  and  C_15
REMARK    3  A    between atoms: C_7  and  C_8
REMARK                            x       y       z     vdW  Elec       q    Type
REMARK                         _______ _______ _______ _____ _____    ______ ____
ROOT
ATOM      1  C   UNL     1       2.325   6.725  19.973  0.00  0.00    +0.000 C 
ATOM      2  C   UNL     1       3.256   7.134  19.073  0.00  0.00    +0.000 C 
ENDROOT
BRANCH   1   3
ATOM      3  C   UNL     1       1.515   7.744  20.561  0.00  0.00    +0.000 A 
ATOM      4  N   UNL     1       0.923   7.781  21.746  0.00  0.00    +0.000 NA
ATOM      5  C   UNL     1       0.303   9.001  21.831  0.00  0.00    +0.000 A 
ATOM      6  C   UNL     1      -0.418   9.577  22.887  0.00  0.00    +0.000 A 
ATOM      7  C   UNL     1      -0.952  10.861  22.717  0.00  0.00    +0.000 A 
ATOM      8  C   UNL     1      -0.769  11.558  21.521  0.00  0.00    +0.000 A 
ATOM      9  C   UNL     1      -0.046  11.003  20.458  0.00  0.00    +0.000 A 
ATOM     10  C   UNL     1       0.474   9.723  20.654  0.00  0.00    +0.000 A 
ATOM     11  N   UNL     1       1.218   8.892  19.858  0.00  0.00    +0.000 N 
ATOM     12  H   UNL     1       1.545   9.116  18.930  0.00  0.00    +0.000 HD
ENDBRANCH   1   3
BRANCH   2  13
ATOM     13  C   UNL     1       4.135   6.277  18.263  0.00  0.00    +0.000 A 
ATOM     14  C   UNL     1       5.038   5.404  18.883  0.00  0.00    +0.000 A 
ATOM     15  C   UNL     1       6.003   4.733  18.123  0.00  0.00    +0.000 A 
ATOM     16  C   UNL     1       6.034   4.897  16.740  0.00  0.00    +0.000 A 
ATOM     17 CL   UNL     1       7.264   4.127  15.814  0.00  0.00    +0.000 Cl
ATOM     18  C   UNL     1       5.086   5.697  16.105  0.00  0.00    +0.000 A 
ATOM     19  C   UNL     1       4.137   6.389  16.866  0.00  0.00    +0.000 A 
ENDBRANCH   2  13
BRANCH   1  24
ATOM     20  O   UNL     1       2.638   2.485  22.066  0.00  0.00    +0.000 OA
ATOM     21  C   UNL     1       2.220   3.270  21.221  0.00  0.00    +0.000 C 
ATOM     22  C   UNL     1       1.529   2.797  19.967  0.00  0.00    +0.000 C 
ATOM     23  S   UNL     1       1.449   4.271  18.924  0.00  0.00    +0.000 S 
ATOM     24  C   UNL     1       2.102   5.258  20.224  0.00  0.00    +0.000 C 
ATOM     25  N   UNL     1       2.348   4.632  21.323  0.00  0.00    +0.000 NA
ENDBRANCH   1  24
TORSDOF 3
ENDMDL
MODEL 5
REMARK VINA RESULT:      -7.6      1.217      1.289
REMARK  Name = 
REMARK  3 active torsions:
REMARK  status: ('A' for Active; 'I' for Inactive)
REMARK    1  A    between atoms: C_5  and  C_6
REMARK    2  A    between atoms: C_6  and  C_15
REMARK    3  A    between atoms: C_7  and  C_8
REMARK                            x       y       z     vdW  Elec       q    Type
REMARK                         _______ _______ _______ _____ _____    ______ ____
ROOT
ATOM      1  C   UNL     1       2.474   6.900  19.411  0.00  0.00    +0.000 C 
ATOM      2  C   UNL     1       3.480   7.328  18.605  0.00  0.00    +0.000 C 
ENDROOT
BRANCH   1   3
ATOM      3  C   UNL     1       1.706   7.912  20.066  0.00  0.00    +0.000 A 
ATOM      4  N   UNL     1       1.134   8.999  19.569  0.00  0.00    +0.000 NA
ATOM      5  C   UNL     1       0.488   9.608  20.614  0.00  0.00    +0.000 A 
ATOM      6  C   UNL     1      -0.316  10.756  20.633  0.00  0.00    +0.000 A 
ATOM      7  C   UNL     1      -0.873  11.169  21.851  0.00  0.00    +0.000 A 
ATOM      8  C   UNL     1      -0.635  10.451  23.026  0.00  0.00    +0.000 A 
ATOM      9  C   UNL     1       0.160   9.298  23.025  0.00  0.00    +0.000 A 
ATOM     10  C   UNL     1       0.701   8.910  21.799  0.00  0.00    +0.000 A 
ATOM     11  N   UNL     1       1.500   7.860  21.428  0.00  0.00    +0.000 N 
ATOM     12  H   UNL     1       1.830   7.134  22.047  0.00  0.00    +0.000 HD
ENDBRANCH   1   3
BRANCH   2  13
ATOM     13  C   UNL     1       4.339   6.496  17.751  0.00  0.00    +0.000 A 
ATOM     14  C   UNL     1       5.211   5.560  18.324  0.00  0.00    +0.000 A 
ATOM     15  C   UNL     1       6.162   4.906  17.532  0.00  0.00    +0.000 A 
ATOM     16  C   UNL     1       6.211   5.153  16.162  0.00  0.00    +0.000 A 
ATOM     17 CL   UNL     1       7.425   4.403  15.200  0.00  0.00    +0.000 Cl
ATOM     18  C   UNL     1       5.293   6.019  15.569  0.00  0.00    +0.000 A 
ATOM     19  C   UNL     1       4.359   6.691  16.364  0.00  0.00    +0.000 A 
ENDBRANCH   2  13
BRANCH   1  24
ATOM     20  O   UNL     1       0.629   2.698  18.232  0.00  0.00    +0.000 OA
ATOM     21  C   UNL     1       1.299   3.452  18.930  0.00  0.00    +0.000 C 
ATOM     22  C   UNL     1       1.749   3.064  20.317  0.00  0.00    +0.000 C 
ATOM     23  S   UNL     1       2.359   4.608  21.031  0.00  0.00    +0.000 S 
ATOM     24  C   UNL     1       2.137   5.436  19.496  0.00  0.00    +0.000 C 
ATOM     25  N   UNL     1       1.689   4.706  18.534  0.00  0.00    +0.000 NA
ENDBRANCH   1  24
TORSDOF 3
ENDMDL
MODEL 6
REMARK VINA RESULT:      -7.6      1.205      1.724
REMARK  Name = 
REMARK  3 active torsions:
REMARK  status: ('A' for Active; 'I' for Inactive)
REMARK    1  A    between atoms: C_5  and  C_6
REMARK    2  A    between atoms: C_6  and  C_15
REMARK    3  A    between atoms: C_7  and  C_8
REMARK                            x       y       z     vdW  Elec       q    Type
REMARK                         _______ _______ _______ _____ _____    ______ ____
ROOT
ATOM      1  C   UNL     1       2.379   6.712  19.605  0.00  0.00    +0.000 C 
ATOM      2  C   UNL     1       3.369   7.184  18.804  0.00  0.00    +0.000 C 
ENDROOT
BRANCH   1   3
ATOM      3  C   UNL     1       1.604   7.687  20.305  0.00  0.00    +0.000 A 
ATOM      4  N   UNL     1       1.022   7.617  21.493  0.00  0.00    +0.000 NA
ATOM      5  C   UNL     1       0.438   8.838  21.710  0.00  0.00    +0.000 A 
ATOM      6  C   UNL     1      -0.257   9.321  22.828  0.00  0.00    +0.000 A 
ATOM      7  C   UNL     1      -0.754  10.630  22.799  0.00  0.00    +0.000 A 
ATOM      8  C   UNL     1      -0.560  11.443  21.679  0.00  0.00    +0.000 A 
ATOM      9  C   UNL     1       0.138  10.981  20.557  0.00  0.00    +0.000 A 
ATOM     10  C   UNL     1       0.621   9.674  20.614  0.00  0.00    +0.000 A 
ATOM     11  N   UNL     1       1.335   8.909  19.727  0.00  0.00    +0.000 N 
ATOM     12  H   UNL     1       1.661   9.220  18.824  0.00  0.00    +0.000 HD
ENDBRANCH   1   3
BRANCH   2  13
ATOM     13  C   UNL     1       4.231   6.397  17.910  0.00  0.00    +0.000 A 
ATOM     14  C   UNL     1       5.055   5.390  18.430  0.00  0.00    +0.000 A 
ATOM     15  C   UNL     1       6.012   4.772  17.616  0.00  0.00    +0.000 A 
ATOM     16  C   UNL     1       6.112   5.128  16.273  0.00  0.00    +0.000 A 
ATOM     17 CL   UNL     1       7.335   4.420  15.289  0.00  0.00    +0.000 Cl
ATOM     18  C   UNL     1       5.240   6.068  15.726  0.00  0.00    +0.000 A 
ATOM     19  C   UNL     1       4.301   6.704  16.546  0.00  0.00    +0.000 A 
ENDBRANCH   2  13
BRANCH   1  24
ATOM     20  O   UNL     1       0.539   2.540  18.314  0.00  0.00    +0.000 OA
ATOM     21  C   UNL     1       1.228   3.271  19.018  0.00  0.00    +0.000 C 
ATOM     22  C   UNL     1       1.737   2.830  20.368  0.00  0.00    +0.000 C 
ATOM     23  S   UNL     1       2.356   4.349  21.124  0.00  0.00    +0.000 S 
ATOM     24  C   UNL     1       2.063   5.240  19.637  0.00  0.00    +0.000 C 
ATOM     25  N   UNL     1       1.586   4.547  18.662  0.00  0.00    +0.000 NA
ENDBRANCH   1  24
TORSDOF 3
ENDMDL
MODEL 7
REMARK VINA RESULT:      -7.5      1.337      1.550
REMARK  Name = 
REMARK  3 active torsions:
REMARK  status: ('A' for Active; 'I' for Inactive)
REMARK    1  A    between atoms: C_5  and  C_6
REMARK    2  A    between atoms: C_6  and  C_15
REMARK    3  A    between atoms: C_7  and  C_8
REMARK                            x       y       z     vdW  Elec       q    Type
REMARK                         _______ _______ _______ _____ _____    ______ ____
ROOT
ATOM      1  C   UNL     1       2.898   6.550  19.073  0.00  0.00    +0.000 C 
ATOM      2  C   UNL     1       3.554   6.915  17.942  0.00  0.00    +0.000 C 
ENDROOT
BRANCH   1   3
ATOM      3  C   UNL     1       2.106   7.558  19.705  0.00  0.00    +0.000 A 
ATOM      4  N   UNL     1       1.535   8.636  19.190  0.00  0.00    +0.000 NA
ATOM      5  C   UNL     1       0.861   9.245  20.217  0.00  0.00    +0.000 A 
ATOM      6  C   UNL     1       0.045  10.385  20.213  0.00  0.00    +0.000 A 
ATOM      7  C   UNL     1      -0.542  10.799  21.416  0.00  0.00    +0.000 A 
ATOM      8  C   UNL     1      -0.323  10.089  22.599  0.00  0.00    +0.000 A 
ATOM      9  C   UNL     1       0.482   8.943  22.622  0.00  0.00    +0.000 A 
ATOM     10  C   UNL     1       1.053   8.555  21.410  0.00  0.00    +0.000 A 
ATOM     11  N   UNL     1       1.871   7.510  21.062  0.00  0.00    +0.000 N 
ATOM     12  H   UNL     1       2.193   6.791  21.692  0.00  0.00    +0.000 HD
ENDBRANCH   1   3
BRANCH   2  13
ATOM     13  C   UNL     1       4.344   6.042  17.060  0.00  0.00    +0.000 A 
ATOM     14  C   UNL     1       5.462   6.547  16.383  0.00  0.00    +0.000 A 
ATOM     15  C   UNL     1       6.097   5.778  15.402  0.00  0.00    +0.000 A 
ATOM     16  C   UNL     1       5.645   4.488  15.131  0.00  0.00    +0.000 A 
ATOM     17 CL   UNL     1       6.382   3.569  13.876  0.00  0.00    +0.000 Cl
ATOM     18  C   UNL     1       4.586   3.946  15.858  0.00  0.00    +0.000 A 
ATOM     19  C   UNL     1       3.935   4.724  16.821  0.00  0.00    +0.000 A 
ENDBRANCH   2  13
BRANCH   1  24
ATOM     20  O   UNL     1       4.645   2.321  20.305  0.00  0.00    +0.000 OA
ATOM     21  C   UNL     1       3.745   3.141  20.153  0.00  0.00    +0.000 C 
ATOM     22  C   UNL     1       2.291   2.739  20.156  0.00  0.00    +0.000 C 
ATOM     23  S   UNL     1       1.427   4.203  19.543  0.00  0.00    +0.000 S 
ATOM     24  C   UNL     1       2.928   5.120  19.543  0.00  0.00    +0.000 C 
ATOM     25  N   UNL     1       3.967   4.481  19.954  0.00  0.00    +0.000 NA
ENDBRANCH   1  24
TORSDOF 3
ENDMDL
MODEL 8
REMARK VINA RESULT:      -7.5      1.296      2.021
REMARK  Name = 
REMARK  3 active torsions:
REMARK  status: ('A' for Active; 'I' for Inactive)
REMARK    1  A    between atoms: C_5  and  C_6
REMARK    2  A    between atoms: C_6  and  C_15
REMARK    3  A    between atoms: C_7  and  C_8
REMARK                            x       y       z     vdW  Elec       q    Type
REMARK                         _______ _______ _______ _____ _____    ______ ____
ROOT
ATOM      1  C   UNL     1       2.480   6.677  19.488  0.00  0.00    +0.000 C 
ATOM      2  C   UNL     1       3.467   7.150  18.684  0.00  0.00    +0.000 C 
ENDROOT
BRANCH   1   3
ATOM      3  C   UNL     1       1.711   7.651  20.195  0.00  0.00    +0.000 A 
ATOM      4  N   UNL     1       1.119   7.572  21.378  0.00  0.00    +0.000 NA
ATOM      5  C   UNL     1       0.547   8.796  21.608  0.00  0.00    +0.000 A 
ATOM      6  C   UNL     1      -0.151   9.272  22.727  0.00  0.00    +0.000 A 
ATOM      7  C   UNL     1      -0.633  10.587  22.712  0.00  0.00    +0.000 A 
ATOM      8  C   UNL     1      -0.422  11.413  21.604  0.00  0.00    +0.000 A 
ATOM      9  C   UNL     1       0.279  10.958  20.481  0.00  0.00    +0.000 A 
ATOM     10  C   UNL     1       0.748   9.645  20.524  0.00  0.00    +0.000 A 
ATOM     11  N   UNL     1       1.460   8.884  19.632  0.00  0.00    +0.000 N 
ATOM     12  H   UNL     1       1.795   9.203  18.736  0.00  0.00    +0.000 HD
ENDBRANCH   1   3
BRANCH   2  13
ATOM     13  C   UNL     1       4.322   6.364  17.783  0.00  0.00    +0.000 A 
ATOM     14  C   UNL     1       4.563   6.804  16.474  0.00  0.00    +0.000 A 
ATOM     15  C   UNL     1       5.214   5.970  15.559  0.00  0.00    +0.000 A 
ATOM     16  C   UNL     1       5.666   4.716  15.964  0.00  0.00    +0.000 A 
ATOM     17 CL   UNL     1       6.403   3.661  14.820  0.00  0.00    +0.000 Cl
ATOM     18  C   UNL     1       5.505   4.302  17.285  0.00  0.00    +0.000 A 
ATOM     19  C   UNL     1       4.832   5.126  18.194  0.00  0.00    +0.000 A 
ENDBRANCH   2  13
BRANCH   1  24
ATOM     20  O   UNL     1       0.568   2.526  18.237  0.00  0.00    +0.000 OA
ATOM     21  C   UNL     1       1.292   3.247  18.915  0.00  0.00    +0.000 C 
ATOM     22  C   UNL     1       1.865   2.787  20.233  0.00  0.00    +0.000 C 
ATOM     23  S   UNL     1       2.525   4.296  20.977  0.00  0.00    +0.000 S 
ATOM     24  C   UNL     1       2.162   5.206  19.517  0.00  0.00    +0.000 C 
ATOM     25  N   UNL     1       1.636   4.526  18.559  0.00  0.00    +0.000 NA
ENDBRANCH   1  24
TORSDOF 3
ENDMDL
MODEL 9
REMARK VINA RESULT:      -7.5      1.381      1.939
REMARK  Name = 
REMARK  3 active torsions:
REMARK  status: ('A' for Active; 'I' for Inactive)
REMARK    1  A    between atoms: C_5  and  C_6
REMARK    2  A    between atoms: C_6  and  C_15
REMARK    3  A    between atoms: C_7  and  C_8
REMARK                            x       y       z     vdW  Elec       q    Type
REMARK                         _______ _______ _______ _____ _____    ______ ____
ROOT
ATOM      1  C   UNL     1       3.025   6.389  19.107  0.00  0.00    +0.000 C 
ATOM      2  C   UNL     1       3.758   6.865  18.067  0.00  0.00    +0.000 C 
ENDROOT
BRANCH   1   3
ATOM      3  C   UNL     1       2.166   7.324  19.762  0.00  0.00    +0.000 A 
ATOM      4  N   UNL     1       1.582   7.254  20.949  0.00  0.00    +0.000 NA
ATOM      5  C   UNL     1       0.896   8.430  21.113  0.00  0.00    +0.000 A 
ATOM      6  C   UNL     1       0.154   8.898  22.206  0.00  0.00    +0.000 A 
ATOM      7  C   UNL     1      -0.451  10.159  22.120  0.00  0.00    +0.000 A 
ATOM      8  C   UNL     1      -0.316  10.939  20.969  0.00  0.00    +0.000 A 
ATOM      9  C   UNL     1       0.427  10.491  19.870  0.00  0.00    +0.000 A 
ATOM     10  C   UNL     1       1.018   9.233  19.983  0.00  0.00    +0.000 A 
ATOM     11  N   UNL     1       1.801   8.495  19.133  0.00  0.00    +0.000 N 
ATOM     12  H   UNL     1       2.107   8.794  18.219  0.00  0.00    +0.000 HD
ENDBRANCH   1   3
BRANCH   2  13
ATOM     13  C   UNL     1       4.632   6.087  17.176  0.00  0.00    +0.000 A 
ATOM     14  C   UNL     1       5.928   6.534  16.890  0.00  0.00    +0.000 A 
ATOM     15  C   UNL     1       6.689   5.903  15.899  0.00  0.00    +0.000 A 
ATOM     16  C   UNL     1       6.172   4.797  15.228  0.00  0.00    +0.000 A 
ATOM     17 CL   UNL     1       7.078   4.065  13.961  0.00  0.00    +0.000 Cl
ATOM     18  C   UNL     1       4.916   4.294  15.563  0.00  0.00    +0.000 A 
ATOM     19  C   UNL     1       4.146   4.939  16.536  0.00  0.00    +0.000 A 
ENDBRANCH   2  13
BRANCH   1  24
ATOM     20  O   UNL     1       4.761   2.127  20.238  0.00  0.00    +0.000 OA
ATOM     21  C   UNL     1       3.858   2.926  20.011  0.00  0.00    +0.000 C 
ATOM     22  C   UNL     1       2.444   2.475  19.740  0.00  0.00    +0.000 C 
ATOM     23  S   UNL     1       1.618   3.958  19.122  0.00  0.00    +0.000 S 
ATOM     24  C   UNL     1       3.051   4.924  19.449  0.00  0.00    +0.000 C 
ATOM     25  N   UNL     1       4.041   4.285  19.969  0.00  0.00    +0.000 NA
ENDBRANCH   1  24
TORSDOF 3
ENDMDL
