MODEL 1
REMARK VINA RESULT:      -8.2      0.000      0.000
REMARK  Name = 
REMARK  11 active torsions:
REMARK  status: ('A' for Active; 'I' for Inactive)
REMARK    1  A    between atoms: C_1  and  C_2
REMARK    2  A    between atoms: C_2  and  C_3
REMARK    3  A    between atoms: N_5  and  C_6
REMARK    4  A    between atoms: C_6  and  C_7
REMARK    5  A    between atoms: C_7  and  N_8
REMARK    6  A    between atoms: C_9  and  C_11
REMARK    7  A    between atoms: C_15  and  C_16
REMARK    8  A    between atoms: C_16  and  O_18
REMARK    9  A    between atoms: O_18  and  C_19
REMARK   10  A    between atoms: C_24  and  O_25
REMARK   11  A    between atoms: O_25  and  C_26
REMARK                            x       y       z     vdW  Elec       q    Type
REMARK                         _______ _______ _______ _____ _____    ______ ____
ROOT
ATOM      1  C   UNL     1       2.463   7.245  18.924  0.00  0.00    +0.000 C 
ENDROOT
BRANCH   1   4
ATOM      2  C   UNL     1       2.988   4.590  20.324  0.00  0.00    +0.000 C 
ATOM      3  C   UNL     1       1.809   4.894  19.365  0.00  0.00    +0.000 C 
ATOM      4  N   UNL     1       2.045   5.939  18.358  0.00  0.00    +0.000 NA
ATOM      5  C   UNL     1       2.995   5.437  17.346  0.00  0.00    +0.000 C 
ATOM      6  C   UNL     1       4.433   5.504  17.787  0.00  0.00    +0.000 A 
ATOM      7  C   UNL     1       5.314   6.332  17.067  0.00  0.00    +0.000 A 
ATOM      8  C   UNL     1       6.603   6.578  17.529  0.00  0.00    +0.000 A 
ATOM      9  C   UNL     1       7.030   5.955  18.704  0.00  0.00    +0.000 A 
ATOM     10  C   UNL     1       6.182   5.084  19.401  0.00  0.00    +0.000 A 
ATOM     11  C   UNL     1       4.881   4.866  18.950  0.00  0.00    +0.000 A 
ATOM     12  O   UNL     1       4.099   3.977  19.641  0.00  0.00    +0.000 OA
BRANCH   2  14
ATOM     13  C   UNL     1       1.271   2.811  20.975  0.00  0.00    +0.000 C 
ATOM     14  C   UNL     1       2.494   3.609  21.407  0.00  0.00    +0.000 C 
ENDBRANCH   2  14
BRANCH   8  15
ATOM     15  O   UNL     1       7.510   7.413  16.937  0.00  0.00    +0.000 OA
ATOM     16  C   UNL     1       7.899   8.562  17.686  0.00  0.00    +0.000 C 
ENDBRANCH   8  15
ENDBRANCH   1   4
BRANCH   1  17
ATOM     17  C   UNL     1       2.533   8.401  17.907  0.00  0.00    +0.000 C 
BRANCH  17  18
ATOM     18  N   UNL     1       1.285   9.141  17.822  0.00  0.00    +0.000 N 
ATOM     19  C   UNL     1       0.771   9.761  18.935  0.00  0.00    +0.000 C 
ATOM     20  O   UNL     1       1.328   9.749  20.036  0.00  0.00    +0.000 OA
ATOM     21  H   UNL     1       0.897   9.346  16.907  0.00  0.00    +0.000 HD
BRANCH  19  22
ATOM     22  C   UNL     1      -0.504  10.487  18.776  0.00  0.00    +0.000 A 
ATOM     23  C   UNL     1      -0.879  11.395  19.774  0.00  0.00    +0.000 A 
ATOM     24  C   UNL     1      -2.115  12.034  19.708  0.00  0.00    +0.000 A 
ATOM     25  C   UNL     1      -2.981  11.758  18.648  0.00  0.00    +0.000 A 
ATOM     26  C   UNL     1      -2.614  10.848  17.645  0.00  0.00    +0.000 A 
ATOM     27  C   UNL     1      -1.365  10.216  17.707  0.00  0.00    +0.000 A 
BRANCH  26  28
ATOM     28  C   UNL     1      -3.595  10.565  16.562  0.00  0.00    +0.000 C 
ATOM     29  O   UNL     1      -4.723  11.026  16.540  0.00  0.00    +0.000 OA
BRANCH  28  30
ATOM     30  O   UNL     1      -3.057   9.732  15.635  0.00  0.00    +0.000 OA
ATOM     31  C   UNL     1      -3.273  10.158  14.288  0.00  0.00    +0.000 C 
ENDBRANCH  28  30
ENDBRANCH  26  28
ENDBRANCH  19  22
ENDBRANCH  17  18
ENDBRANCH   1  17
TORSDOF 8
ENDMDL
MODEL 2
REMARK VINA RESULT:      -8.2      2.829      5.217
REMARK  Name = 
REMARK  11 active torsions:
REMARK  status: ('A' for Active; 'I' for Inactive)
REMARK    1  A    between atoms: C_1  and  C_2
REMARK    2  A    between atoms: C_2  and  C_3
REMARK    3  A    between atoms: N_5  and  C_6
REMARK    4  A    between atoms: C_6  and  C_7
REMARK    5  A    between atoms: C_7  and  N_8
REMARK    6  A    between atoms: C_9  and  C_11
REMARK    7  A    between atoms: C_15  and  C_16
REMARK    8  A    between atoms: C_16  and  O_18
REMARK    9  A    between atoms: O_18  and  C_19
REMARK   10  A    between atoms: C_24  and  O_25
REMARK   11  A    between atoms: O_25  and  C_26
REMARK                            x       y       z     vdW  Elec       q    Type
REMARK                         _______ _______ _______ _____ _____    ______ ____
ROOT
ATOM      1  C   UNL     1       3.089   6.688  17.920  0.00  0.00    +0.000 C 
ENDROOT
BRANCH   1   4
ATOM      2  C   UNL     1       5.045   5.146  16.164  0.00  0.00    +0.000 C 
ATOM      3  C   UNL     1       5.384   6.386  17.031  0.00  0.00    +0.000 C 
ATOM      4  N   UNL     1       4.540   6.600  18.215  0.00  0.00    +0.000 NA
ATOM      5  C   UNL     1       4.844   5.567  19.226  0.00  0.00    +0.000 C 
ATOM      6  C   UNL     1       4.172   4.247  18.955  0.00  0.00    +0.000 A 
ATOM      7  C   UNL     1       3.235   3.772  19.891  0.00  0.00    +0.000 A 
ATOM      8  C   UNL     1       2.451   2.656  19.614  0.00  0.00    +0.000 A 
ATOM      9  C   UNL     1       2.636   1.984  18.403  0.00  0.00    +0.000 A 
ATOM     10  C   UNL     1       3.605   2.413  17.487  0.00  0.00    +0.000 A 
ATOM     11  C   UNL     1       4.366   3.549  17.757  0.00  0.00    +0.000 A 
ATOM     12  O   UNL     1       5.329   3.912  16.850  0.00  0.00    +0.000 OA
BRANCH   2  14
ATOM     13  C   UNL     1       5.966   3.860  14.155  0.00  0.00    +0.000 C 
ATOM     14  C   UNL     1       5.911   5.193  14.888  0.00  0.00    +0.000 C 
ENDBRANCH   2  14
BRANCH   8  15
ATOM     15  O   UNL     1       1.472   2.155  20.427  0.00  0.00    +0.000 OA
ATOM     16  C   UNL     1       1.456   2.631  21.771  0.00  0.00    +0.000 C 
ENDBRANCH   8  15
ENDBRANCH   1   4
BRANCH   1  17
ATOM     17  C   UNL     1       2.517   8.119  17.892  0.00  0.00    +0.000 C 
BRANCH  17  18
ATOM     18  N   UNL     1       1.887   8.489  19.147  0.00  0.00    +0.000 N 
ATOM     19  C   UNL     1       1.112   9.621  19.225  0.00  0.00    +0.000 C 
ATOM     20  O   UNL     1       0.890  10.359  18.261  0.00  0.00    +0.000 OA
ATOM     21  H   UNL     1       1.874   7.818  19.908  0.00  0.00    +0.000 HD
BRANCH  19  22
ATOM     22  C   UNL     1       0.509   9.940  20.534  0.00  0.00    +0.000 A 
ATOM     23  C   UNL     1       0.836   9.132  21.630  0.00  0.00    +0.000 A 
ATOM     24  C   UNL     1       0.221   9.343  22.862  0.00  0.00    +0.000 A 
ATOM     25  C   UNL     1      -0.729  10.357  22.997  0.00  0.00    +0.000 A 
ATOM     26  C   UNL     1      -1.064  11.170  21.903  0.00  0.00    +0.000 A 
ATOM     27  C   UNL     1      -0.435  10.964  20.668  0.00  0.00    +0.000 A 
BRANCH  26  28
ATOM     28  C   UNL     1      -2.113  12.208  22.096  0.00  0.00    +0.000 C 
ATOM     29  O   UNL     1      -2.652  12.798  21.176  0.00  0.00    +0.000 OA
BRANCH  28  30
ATOM     30  O   UNL     1      -2.363  12.395  23.418  0.00  0.00    +0.000 OA
ATOM     31  C   UNL     1      -2.438  13.770  23.798  0.00  0.00    +0.000 C 
ENDBRANCH  28  30
ENDBRANCH  26  28
ENDBRANCH  19  22
ENDBRANCH  17  18
ENDBRANCH   1  17
TORSDOF 8
ENDMDL
MODEL 3
REMARK VINA RESULT:      -8.2      1.863      4.102
REMARK  Name = 
REMARK  11 active torsions:
REMARK  status: ('A' for Active; 'I' for Inactive)
REMARK    1  A    between atoms: C_1  and  C_2
REMARK    2  A    between atoms: C_2  and  C_3
REMARK    3  A    between atoms: N_5  and  C_6
REMARK    4  A    between atoms: C_6  and  C_7
REMARK    5  A    between atoms: C_7  and  N_8
REMARK    6  A    between atoms: C_9  and  C_11
REMARK    7  A    between atoms: C_15  and  C_16
REMARK    8  A    between atoms: C_16  and  O_18
REMARK    9  A    between atoms: O_18  and  C_19
REMARK   10  A    between atoms: C_24  and  O_25
REMARK   11  A    between atoms: O_25  and  C_26
REMARK                            x       y       z     vdW  Elec       q    Type
REMARK                         _______ _______ _______ _____ _____    ______ ____
ROOT
ATOM      1  C   UNL     1       3.445   6.700  17.917  0.00  0.00    +0.000 C 
ENDROOT
BRANCH   1   4
ATOM      2  C   UNL     1       5.177   5.097  15.991  0.00  0.00    +0.000 C 
ATOM      3  C   UNL     1       5.658   6.268  16.885  0.00  0.00    +0.000 C 
ATOM      4  N   UNL     1       4.898   6.492  18.124  0.00  0.00    +0.000 NA
ATOM      5  C   UNL     1       5.177   5.395  19.073  0.00  0.00    +0.000 C 
ATOM      6  C   UNL     1       4.392   4.142  18.789  0.00  0.00    +0.000 A 
ATOM      7  C   UNL     1       3.473   3.697  19.758  0.00  0.00    +0.000 A 
ATOM      8  C   UNL     1       2.592   2.656  19.482  0.00  0.00    +0.000 A 
ATOM      9  C   UNL     1       2.658   2.026  18.237  0.00  0.00    +0.000 A 
ATOM     10  C   UNL     1       3.606   2.422  17.284  0.00  0.00    +0.000 A 
ATOM     11  C   UNL     1       4.466   3.486  17.555  0.00  0.00    +0.000 A 
ATOM     12  O   UNL     1       5.402   3.815  16.609  0.00  0.00    +0.000 OA
BRANCH   2  14
ATOM     13  C   UNL     1       5.907   3.827  13.895  0.00  0.00    +0.000 C 
ATOM     14  C   UNL     1       5.973   5.136  14.670  0.00  0.00    +0.000 C 
ENDBRANCH   2  14
BRANCH   8  15
ATOM     15  O   UNL     1       1.623   2.194  20.330  0.00  0.00    +0.000 OA
ATOM     16  C   UNL     1       1.489   2.875  21.575  0.00  0.00    +0.000 C 
ENDBRANCH   8  15
ENDBRANCH   1   4
BRANCH   1  17
ATOM     17  C   UNL     1       2.702   7.331  19.112  0.00  0.00    +0.000 C 
BRANCH  17  18
ATOM     18  N   UNL     1       1.876   8.460  18.718  0.00  0.00    +0.000 N 
ATOM     19  C   UNL     1       1.086   9.096  19.645  0.00  0.00    +0.000 C 
ATOM     20  O   UNL     1       1.045   8.775  20.836  0.00  0.00    +0.000 OA
ATOM     21  H   UNL     1       2.023   8.883  17.808  0.00  0.00    +0.000 HD
BRANCH  19  22
ATOM     22  C   UNL     1       0.267  10.229  19.172  0.00  0.00    +0.000 A 
ATOM     23  C   UNL     1       0.462  11.482  19.766  0.00  0.00    +0.000 A 
ATOM     24  C   UNL     1      -0.352  12.556  19.413  0.00  0.00    +0.000 A 
ATOM     25  C   UNL     1      -1.367  12.376  18.472  0.00  0.00    +0.000 A 
ATOM     26  C   UNL     1      -1.570  11.123  17.874  0.00  0.00    +0.000 A 
ATOM     27  C   UNL     1      -0.743  10.046  18.221  0.00  0.00    +0.000 A 
BRANCH  26  28
ATOM     28  C   UNL     1      -2.694  10.981  16.908  0.00  0.00    +0.000 C 
ATOM     29  O   UNL     1      -3.698  11.672  16.939  0.00  0.00    +0.000 OA
BRANCH  28  30
ATOM     30  O   UNL     1      -2.437   9.989  16.017  0.00  0.00    +0.000 OA
ATOM     31  C   UNL     1      -3.115  10.150  14.769  0.00  0.00    +0.000 C 
ENDBRANCH  28  30
ENDBRANCH  26  28
ENDBRANCH  19  22
ENDBRANCH  17  18
ENDBRANCH   1  17
TORSDOF 8
ENDMDL
MODEL 4
REMARK VINA RESULT:      -8.2      2.341      3.359
REMARK  Name = 
REMARK  11 active torsions:
REMARK  status: ('A' for Active; 'I' for Inactive)
REMARK    1  A    between atoms: C_1  and  C_2
REMARK    2  A    between atoms: C_2  and  C_3
REMARK    3  A    between atoms: N_5  and  C_6
REMARK    4  A    between atoms: C_6  and  C_7
REMARK    5  A    between atoms: C_7  and  N_8
REMARK    6  A    between atoms: C_9  and  C_11
REMARK    7  A    between atoms: C_15  and  C_16
REMARK    8  A    between atoms: C_16  and  O_18
REMARK    9  A    between atoms: O_18  and  C_19
REMARK   10  A    between atoms: C_24  and  O_25
REMARK   11  A    between atoms: O_25  and  C_26
REMARK                            x       y       z     vdW  Elec       q    Type
REMARK                         _______ _______ _______ _____ _____    ______ ____
ROOT
ATOM      1  C   UNL     1       3.074   6.525  18.735  0.00  0.00    +0.000 C 
ENDROOT
BRANCH   1   4
ATOM      2  C   UNL     1       4.219   3.858  19.664  0.00  0.00    +0.000 C 
ATOM      3  C   UNL     1       3.029   4.045  18.688  0.00  0.00    +0.000 C 
ATOM      4  N   UNL     1       3.019   5.293  17.910  0.00  0.00    +0.000 NA
ATOM      5  C   UNL     1       4.094   5.248  16.899  0.00  0.00    +0.000 C 
ATOM      6  C   UNL     1       5.454   5.577  17.456  0.00  0.00    +0.000 A 
ATOM      7  C   UNL     1       6.115   6.720  16.969  0.00  0.00    +0.000 A 
ATOM      8  C   UNL     1       7.285   7.178  17.566  0.00  0.00    +0.000 A 
ATOM      9  C   UNL     1       7.823   6.461  18.637  0.00  0.00    +0.000 A 
ATOM     10  C   UNL     1       7.206   5.290  19.096  0.00  0.00    +0.000 A 
ATOM     11  C   UNL     1       6.017   4.853  18.513  0.00  0.00    +0.000 A 
ATOM     12  O   UNL     1       5.468   3.681  18.968  0.00  0.00    +0.000 OA
BRANCH   2  14
ATOM     13  C   UNL     1       2.711   2.697  21.371  0.00  0.00    +0.000 C 
ATOM     14  C   UNL     1       3.960   2.593  20.508  0.00  0.00    +0.000 C 
ENDBRANCH   2  14
BRANCH   8  15
ATOM     15  O   UNL     1       7.965   8.310  17.209  0.00  0.00    +0.000 OA
ATOM     16  C   UNL     1       8.407   9.150  18.273  0.00  0.00    +0.000 C 
ENDBRANCH   8  15
ENDBRANCH   1   4
BRANCH   1  17
ATOM     17  C   UNL     1       2.712   7.824  17.989  0.00  0.00    +0.000 C 
BRANCH  17  18
ATOM     18  N   UNL     1       1.666   8.576  18.660  0.00  0.00    +0.000 N 
ATOM     19  C   UNL     1       1.476   9.906  18.371  0.00  0.00    +0.000 C 
ATOM     20  O   UNL     1       2.144  10.521  17.535  0.00  0.00    +0.000 OA
ATOM     21  H   UNL     1       0.970   8.075  19.201  0.00  0.00    +0.000 HD
BRANCH  19  22
ATOM     22  C   UNL     1       0.401  10.609  19.097  0.00  0.00    +0.000 A 
ATOM     23  C   UNL     1      -0.470  11.426  18.365  0.00  0.00    +0.000 A 
ATOM     24  C   UNL     1      -1.441  12.177  19.024  0.00  0.00    +0.000 A 
ATOM     25  C   UNL     1      -1.537  12.119  20.415  0.00  0.00    +0.000 A 
ATOM     26  C   UNL     1      -0.666  11.305  21.156  0.00  0.00    +0.000 A 
ATOM     27  C   UNL     1       0.302  10.540  20.491  0.00  0.00    +0.000 A 
BRANCH  26  28
ATOM     28  C   UNL     1      -0.790  11.315  22.639  0.00  0.00    +0.000 C 
ATOM     29  O   UNL     1      -0.277  10.477  23.362  0.00  0.00    +0.000 OA
BRANCH  28  30
ATOM     30  O   UNL     1      -1.543  12.367  23.049  0.00  0.00    +0.000 OA
ATOM     31  C   UNL     1      -2.814  11.989  23.582  0.00  0.00    +0.000 C 
ENDBRANCH  28  30
ENDBRANCH  26  28
ENDBRANCH  19  22
ENDBRANCH  17  18
ENDBRANCH   1  17
TORSDOF 8
ENDMDL
MODEL 5
REMARK VINA RESULT:      -8.2      1.866      4.184
REMARK  Name = 
REMARK  11 active torsions:
REMARK  status: ('A' for Active; 'I' for Inactive)
REMARK    1  A    between atoms: C_1  and  C_2
REMARK    2  A    between atoms: C_2  and  C_3
REMARK    3  A    between atoms: N_5  and  C_6
REMARK    4  A    between atoms: C_6  and  C_7
REMARK    5  A    between atoms: C_7  and  N_8
REMARK    6  A    between atoms: C_9  and  C_11
REMARK    7  A    between atoms: C_15  and  C_16
REMARK    8  A    between atoms: C_16  and  O_18
REMARK    9  A    between atoms: O_18  and  C_19
REMARK   10  A    between atoms: C_24  and  O_25
REMARK   11  A    between atoms: O_25  and  C_26
REMARK                            x       y       z     vdW  Elec       q    Type
REMARK                         _______ _______ _______ _____ _____    ______ ____
ROOT
ATOM      1  C   UNL     1       3.501   6.556  18.298  0.00  0.00    +0.000 C 
ENDROOT
BRANCH   1   4
ATOM      2  C   UNL     1       4.874   4.921  16.124  0.00  0.00    +0.000 C 
ATOM      3  C   UNL     1       5.555   5.972  17.037  0.00  0.00    +0.000 C 
ATOM      4  N   UNL     1       4.936   6.186  18.354  0.00  0.00    +0.000 NA
ATOM      5  C   UNL     1       5.177   5.005  19.205  0.00  0.00    +0.000 C 
ATOM      6  C   UNL     1       4.239   3.861  18.923  0.00  0.00    +0.000 A 
ATOM      7  C   UNL     1       3.366   3.447  19.946  0.00  0.00    +0.000 A 
ATOM      8  C   UNL     1       2.356   2.523  19.694  0.00  0.00    +0.000 A 
ATOM      9  C   UNL     1       2.244   1.977  18.413  0.00  0.00    +0.000 A 
ATOM     10  C   UNL     1       3.142   2.338  17.400  0.00  0.00    +0.000 A 
ATOM     11  C   UNL     1       4.132   3.287  17.650  0.00  0.00    +0.000 A 
ATOM     12  O   UNL     1       5.012   3.583  16.642  0.00  0.00    +0.000 OA
BRANCH   2  14
ATOM     13  C   UNL     1       7.040   4.657  14.791  0.00  0.00    +0.000 C 
ATOM     14  C   UNL     1       5.550   4.969  14.739  0.00  0.00    +0.000 C 
ENDBRANCH   2  14
BRANCH   8  15
ATOM     15  O   UNL     1       1.422   2.105  20.601  0.00  0.00    +0.000 OA
ATOM     16  C   UNL     1       1.359   2.827  21.829  0.00  0.00    +0.000 C 
ENDBRANCH   8  15
ENDBRANCH   1   4
BRANCH   1  17
ATOM     17  C   UNL     1       3.196   7.864  17.540  0.00  0.00    +0.000 C 
BRANCH  17  18
ATOM     18  N   UNL     1       1.915   8.438  17.916  0.00  0.00    +0.000 N 
ATOM     19  C   UNL     1       1.745   9.801  17.930  0.00  0.00    +0.000 C 
ATOM     20  O   UNL     1       2.632  10.599  17.613  0.00  0.00    +0.000 OA
ATOM     21  H   UNL     1       1.107   7.829  17.990  0.00  0.00    +0.000 HD
BRANCH  19  22
ATOM     22  C   UNL     1       0.420  10.313  18.330  0.00  0.00    +0.000 A 
ATOM     23  C   UNL     1       0.328  11.070  19.505  0.00  0.00    +0.000 A 
ATOM     24  C   UNL     1      -0.916  11.496  19.965  0.00  0.00    +0.000 A 
ATOM     25  C   UNL     1      -2.070  11.158  19.256  0.00  0.00    +0.000 A 
ATOM     26  C   UNL     1      -1.986  10.398  18.079  0.00  0.00    +0.000 A 
ATOM     27  C   UNL     1      -0.733   9.981  17.611  0.00  0.00    +0.000 A 
BRANCH  26  28
ATOM     28  C   UNL     1      -3.254  10.035  17.388  0.00  0.00    +0.000 C 
ATOM     29  O   UNL     1      -4.349  10.096  17.919  0.00  0.00    +0.000 OA
BRANCH  28  30
ATOM     30  O   UNL     1      -3.006   9.630  16.116  0.00  0.00    +0.000 OA
ATOM     31  C   UNL     1      -3.315  10.618  15.131  0.00  0.00    +0.000 C 
ENDBRANCH  28  30
ENDBRANCH  26  28
ENDBRANCH  19  22
ENDBRANCH  17  18
ENDBRANCH   1  17
TORSDOF 8
ENDMDL
MODEL 6
REMARK VINA RESULT:      -8.1      2.795      3.540
REMARK  Name = 
REMARK  11 active torsions:
REMARK  status: ('A' for Active; 'I' for Inactive)
REMARK    1  A    between atoms: C_1  and  C_2
REMARK    2  A    between atoms: C_2  and  C_3
REMARK    3  A    between atoms: N_5  and  C_6
REMARK    4  A    between atoms: C_6  and  C_7
REMARK    5  A    between atoms: C_7  and  N_8
REMARK    6  A    between atoms: C_9  and  C_11
REMARK    7  A    between atoms: C_15  and  C_16
REMARK    8  A    between atoms: C_16  and  O_18
REMARK    9  A    between atoms: O_18  and  C_19
REMARK   10  A    between atoms: C_24  and  O_25
REMARK   11  A    between atoms: O_25  and  C_26
REMARK                            x       y       z     vdW  Elec       q    Type
REMARK                         _______ _______ _______ _____ _____    ______ ____
ROOT
ATOM      1  C   UNL     1       3.366   6.629  18.718  0.00  0.00    +0.000 C 
ENDROOT
BRANCH   1   4
ATOM      2  C   UNL     1       4.626   3.903  19.233  0.00  0.00    +0.000 C 
ATOM      3  C   UNL     1       3.445   4.191  18.272  0.00  0.00    +0.000 C 
ATOM      4  N   UNL     1       3.386   5.546  17.704  0.00  0.00    +0.000 NA
ATOM      5  C   UNL     1       4.478   5.715  16.726  0.00  0.00    +0.000 C 
ATOM      6  C   UNL     1       5.811   6.013  17.361  0.00  0.00    +0.000 A 
ATOM      7  C   UNL     1       6.422   7.249  17.080  0.00  0.00    +0.000 A 
ATOM      8  C   UNL     1       7.558   7.658  17.772  0.00  0.00    +0.000 A 
ATOM      9  C   UNL     1       8.113   6.803  18.726  0.00  0.00    +0.000 A 
ATOM     10  C   UNL     1       7.548   5.545  18.975  0.00  0.00    +0.000 A 
ATOM     11  C   UNL     1       6.392   5.154  18.302  0.00  0.00    +0.000 A 
ATOM     12  O   UNL     1       5.894   3.900  18.548  0.00  0.00    +0.000 OA
BRANCH   2  14
ATOM     13  C   UNL     1       3.656   1.556  18.944  0.00  0.00    +0.000 C 
ATOM     14  C   UNL     1       4.417   2.507  19.856  0.00  0.00    +0.000 C 
ENDBRANCH   2  14
BRANCH   8  15
ATOM     15  O   UNL     1       8.187   8.863  17.618  0.00  0.00    +0.000 OA
ATOM     16  C   UNL     1       8.774   9.428  18.788  0.00  0.00    +0.000 C 
ENDBRANCH   8  15
ENDBRANCH   1   4
BRANCH   1  17
ATOM     17  C   UNL     1       2.399   7.789  18.410  0.00  0.00    +0.000 C 
BRANCH  17  18
ATOM     18  N   UNL     1       1.733   8.287  19.601  0.00  0.00    +0.000 N 
ATOM     19  C   UNL     1       1.013   9.457  19.554  0.00  0.00    +0.000 C 
ATOM     20  O   UNL     1       0.871  10.126  18.526  0.00  0.00    +0.000 OA
ATOM     21  H   UNL     1       1.653   7.680  20.410  0.00  0.00    +0.000 HD
BRANCH  19  22
ATOM     22  C   UNL     1       0.370   9.907  20.803  0.00  0.00    +0.000 A 
ATOM     23  C   UNL     1       0.589   9.162  21.969  0.00  0.00    +0.000 A 
ATOM     24  C   UNL     1      -0.070   9.500  23.148  0.00  0.00    +0.000 A 
ATOM     25  C   UNL     1      -0.957  10.578  23.161  0.00  0.00    +0.000 A 
ATOM     26  C   UNL     1      -1.185  11.328  21.997  0.00  0.00    +0.000 A 
ATOM     27  C   UNL     1      -0.511  10.994  20.815  0.00  0.00    +0.000 A 
BRANCH  26  28
ATOM     28  C   UNL     1      -2.172  12.440  22.062  0.00  0.00    +0.000 C 
ATOM     29  O   UNL     1      -3.239  12.358  22.646  0.00  0.00    +0.000 OA
BRANCH  28  30
ATOM     30  O   UNL     1      -1.715  13.525  21.386  0.00  0.00    +0.000 OA
ATOM     31  C   UNL     1      -1.196  14.552  22.234  0.00  0.00    +0.000 C 
ENDBRANCH  28  30
ENDBRANCH  26  28
ENDBRANCH  19  22
ENDBRANCH  17  18
ENDBRANCH   1  17
TORSDOF 8
ENDMDL
MODEL 7
REMARK VINA RESULT:      -8.1      2.420      3.110
REMARK  Name = 
REMARK  11 active torsions:
REMARK  status: ('A' for Active; 'I' for Inactive)
REMARK    1  A    between atoms: C_1  and  C_2
REMARK    2  A    between atoms: C_2  and  C_3
REMARK    3  A    between atoms: N_5  and  C_6
REMARK    4  A    between atoms: C_6  and  C_7
REMARK    5  A    between atoms: C_7  and  N_8
REMARK    6  A    between atoms: C_9  and  C_11
REMARK    7  A    between atoms: C_15  and  C_16
REMARK    8  A    between atoms: C_16  and  O_18
REMARK    9  A    between atoms: O_18  and  C_19
REMARK   10  A    between atoms: C_24  and  O_25
REMARK   11  A    between atoms: O_25  and  C_26
REMARK                            x       y       z     vdW  Elec       q    Type
REMARK                         _______ _______ _______ _____ _____    ______ ____
ROOT
ATOM      1  C   UNL     1       3.095   6.704  18.997  0.00  0.00    +0.000 C 
ENDROOT
BRANCH   1   4
ATOM      2  C   UNL     1       4.104   3.932  19.761  0.00  0.00    +0.000 C 
ATOM      3  C   UNL     1       2.866   4.237  18.880  0.00  0.00    +0.000 C 
ATOM      4  N   UNL     1       2.892   5.509  18.142  0.00  0.00    +0.000 NA
ATOM      5  C   UNL     1       3.888   5.422  17.055  0.00  0.00    +0.000 C 
ATOM      6  C   UNL     1       5.304   5.635  17.521  0.00  0.00    +0.000 A 
ATOM      7  C   UNL     1       6.011   6.743  17.021  0.00  0.00    +0.000 A 
ATOM      8  C   UNL     1       7.251   7.097  17.545  0.00  0.00    +0.000 A 
ATOM      9  C   UNL     1       7.808   6.306  18.553  0.00  0.00    +0.000 A 
ATOM     10  C   UNL     1       7.141   5.166  19.020  0.00  0.00    +0.000 A 
ATOM     11  C   UNL     1       5.885   4.835  18.513  0.00  0.00    +0.000 A 
ATOM     12  O   UNL     1       5.285   3.691  18.972  0.00  0.00    +0.000 OA
BRANCH   2  14
ATOM     13  C   UNL     1       2.548   2.770  21.424  0.00  0.00    +0.000 C 
ATOM     14  C   UNL     1       3.813   2.660  20.584  0.00  0.00    +0.000 C 
ENDBRANCH   2  14
BRANCH   8  15
ATOM     15  O   UNL     1       7.986   8.188  17.173  0.00  0.00    +0.000 OA
ATOM     16  C   UNL     1       8.290   9.130  18.199  0.00  0.00    +0.000 C 
ENDBRANCH   8  15
ENDBRANCH   1   4
BRANCH   1  17
ATOM     17  C   UNL     1       2.240   7.928  18.616  0.00  0.00    +0.000 C 
BRANCH  17  18
ATOM     18  N   UNL     1       1.565   8.512  19.762  0.00  0.00    +0.000 N 
ATOM     19  C   UNL     1       0.720   9.583  19.596  0.00  0.00    +0.000 C 
ATOM     20  O   UNL     1       0.471  10.087  18.497  0.00  0.00    +0.000 OA
ATOM     21  H   UNL     1       1.580   8.016  20.646  0.00  0.00    +0.000 HD
BRANCH  19  22
ATOM     22  C   UNL     1       0.076  10.130  20.806  0.00  0.00    +0.000 A 
ATOM     23  C   UNL     1       0.219   9.429  22.010  0.00  0.00    +0.000 A 
ATOM     24  C   UNL     1      -0.447   9.862  23.153  0.00  0.00    +0.000 A 
ATOM     25  C   UNL     1      -1.265  10.992  23.093  0.00  0.00    +0.000 A 
ATOM     26  C   UNL     1      -1.416  11.699  21.890  0.00  0.00    +0.000 A 
ATOM     27  C   UNL     1      -0.735  11.269  20.743  0.00  0.00    +0.000 A 
BRANCH  26  28
ATOM     28  C   UNL     1      -2.333  12.872  21.877  0.00  0.00    +0.000 C 
ATOM     29  O   UNL     1      -2.478  13.621  22.827  0.00  0.00    +0.000 OA
BRANCH  28  30
ATOM     30  O   UNL     1      -2.966  12.970  20.680  0.00  0.00    +0.000 OA
ATOM     31  C   UNL     1      -4.388  12.860  20.774  0.00  0.00    +0.000 C 
ENDBRANCH  28  30
ENDBRANCH  26  28
ENDBRANCH  19  22
ENDBRANCH  17  18
ENDBRANCH   1  17
TORSDOF 8
ENDMDL
MODEL 8
REMARK VINA RESULT:      -8.1      1.272      1.598
REMARK  Name = 
REMARK  11 active torsions:
REMARK  status: ('A' for Active; 'I' for Inactive)
REMARK    1  A    between atoms: C_1  and  C_2
REMARK    2  A    between atoms: C_2  and  C_3
REMARK    3  A    between atoms: N_5  and  C_6
REMARK    4  A    between atoms: C_6  and  C_7
REMARK    5  A    between atoms: C_7  and  N_8
REMARK    6  A    between atoms: C_9  and  C_11
REMARK    7  A    between atoms: C_15  and  C_16
REMARK    8  A    between atoms: C_16  and  O_18
REMARK    9  A    between atoms: O_18  and  C_19
REMARK   10  A    between atoms: C_24  and  O_25
REMARK   11  A    between atoms: O_25  and  C_26
REMARK                            x       y       z     vdW  Elec       q    Type
REMARK                         _______ _______ _______ _____ _____    ______ ____
ROOT
ATOM      1  C   UNL     1       2.982   6.554  18.756  0.00  0.00    +0.000 C 
ENDROOT
BRANCH   1   4
ATOM      2  C   UNL     1       4.062   3.917  19.837  0.00  0.00    +0.000 C 
ATOM      3  C   UNL     1       2.875   4.078  18.853  0.00  0.00    +0.000 C 
ATOM      4  N   UNL     1       2.894   5.278  18.004  0.00  0.00    +0.000 NA
ATOM      5  C   UNL     1       3.966   5.147  16.996  0.00  0.00    +0.000 C 
ATOM      6  C   UNL     1       5.335   5.474  17.531  0.00  0.00    +0.000 A 
ATOM      7  C   UNL     1       6.023   6.569  16.978  0.00  0.00    +0.000 A 
ATOM      8  C   UNL     1       7.206   7.031  17.546  0.00  0.00    +0.000 A 
ATOM      9  C   UNL     1       7.728   6.364  18.657  0.00  0.00    +0.000 A 
ATOM     10  C   UNL     1       7.083   5.237  19.183  0.00  0.00    +0.000 A 
ATOM     11  C   UNL     1       5.882   4.798  18.629  0.00  0.00    +0.000 A 
ATOM     12  O   UNL     1       5.304   3.669  19.151  0.00  0.00    +0.000 OA
BRANCH   2  14
ATOM     13  C   UNL     1       2.365   2.724  21.331  0.00  0.00    +0.000 C 
ATOM     14  C   UNL     1       3.773   2.710  20.753  0.00  0.00    +0.000 C 
ENDBRANCH   2  14
BRANCH   8  15
ATOM     15  O   UNL     1       7.914   8.123  17.123  0.00  0.00    +0.000 OA
ATOM     16  C   UNL     1       8.258   9.083  18.119  0.00  0.00    +0.000 C 
ENDBRANCH   8  15
ENDBRANCH   1   4
BRANCH   1  17
ATOM     17  C   UNL     1       2.747   7.823  17.913  0.00  0.00    +0.000 C 
BRANCH  17  18
ATOM     18  N   UNL     1       1.568   8.559  18.335  0.00  0.00    +0.000 N 
ATOM     19  C   UNL     1       1.509   9.922  18.174  0.00  0.00    +0.000 C 
ATOM     20  O   UNL     1       2.413  10.585  17.657  0.00  0.00    +0.000 OA
ATOM     21  H   UNL     1       0.729   8.044  18.578  0.00  0.00    +0.000 HD
BRANCH  19  22
ATOM     22  C   UNL     1       0.284  10.605  18.633  0.00  0.00    +0.000 A 
ATOM     23  C   UNL     1       0.335  11.323  19.835  0.00  0.00    +0.000 A 
ATOM     24  C   UNL     1      -0.821  11.907  20.349  0.00  0.00    +0.000 A 
ATOM     25  C   UNL     1      -2.031  11.765  19.667  0.00  0.00    +0.000 A 
ATOM     26  C   UNL     1      -2.090  11.046  18.463  0.00  0.00    +0.000 A 
ATOM     27  C   UNL     1      -0.925  10.470  17.941  0.00  0.00    +0.000 A 
BRANCH  26  28
ATOM     28  C   UNL     1      -3.416  10.895  17.802  0.00  0.00    +0.000 C 
ATOM     29  O   UNL     1      -3.587  10.252  16.781  0.00  0.00    +0.000 OA
BRANCH  28  30
ATOM     30  O   UNL     1      -4.372  11.570  18.489  0.00  0.00    +0.000 OA
ATOM     31  C   UNL     1      -5.665  10.965  18.416  0.00  0.00    +0.000 C 
ENDBRANCH  28  30
ENDBRANCH  26  28
ENDBRANCH  19  22
ENDBRANCH  17  18
ENDBRANCH   1  17
TORSDOF 8
ENDMDL
MODEL 9
REMARK VINA RESULT:      -8.0      2.600      5.132
REMARK  Name = 
REMARK  11 active torsions:
REMARK  status: ('A' for Active; 'I' for Inactive)
REMARK    1  A    between atoms: C_1  and  C_2
REMARK    2  A    between atoms: C_2  and  C_3
REMARK    3  A    between atoms: N_5  and  C_6
REMARK    4  A    between atoms: C_6  and  C_7
REMARK    5  A    between atoms: C_7  and  N_8
REMARK    6  A    between atoms: C_9  and  C_11
REMARK    7  A    between atoms: C_15  and  C_16
REMARK    8  A    between atoms: C_16  and  O_18
REMARK    9  A    between atoms: O_18  and  C_19
REMARK   10  A    between atoms: C_24  and  O_25
REMARK   11  A    between atoms: O_25  and  C_26
REMARK                            x       y       z     vdW  Elec       q    Type
REMARK                         _______ _______ _______ _____ _____    ______ ____
ROOT
ATOM      1  C   UNL     1       3.229   6.731  18.153  0.00  0.00    +0.000 C 
ENDROOT
BRANCH   1   4
ATOM      2  C   UNL     1       5.034   5.215  16.221  0.00  0.00    +0.000 C 
ATOM      3  C   UNL     1       5.470   6.376  17.150  0.00  0.00    +0.000 C 
ATOM      4  N   UNL     1       4.684   6.553  18.381  0.00  0.00    +0.000 NA
ATOM      5  C   UNL     1       4.974   5.442  19.309  0.00  0.00    +0.000 C 
ATOM      6  C   UNL     1       4.224   4.177  18.983  0.00  0.00    +0.000 A 
ATOM      7  C   UNL     1       3.301   3.687  19.924  0.00  0.00    +0.000 A 
ATOM      8  C   UNL     1       2.450   2.632  19.610  0.00  0.00    +0.000 A 
ATOM      9  C   UNL     1       2.553   2.033  18.352  0.00  0.00    +0.000 A 
ATOM     10  C   UNL     1       3.507   2.474  17.425  0.00  0.00    +0.000 A 
ATOM     11  C   UNL     1       4.335   3.552  17.735  0.00  0.00    +0.000 A 
ATOM     12  O   UNL     1       5.280   3.925  16.814  0.00  0.00    +0.000 OA
BRANCH   2  14
ATOM     13  C   UNL     1       6.145   3.942  14.302  0.00  0.00    +0.000 C 
ATOM     14  C   UNL     1       5.851   5.304  14.916  0.00  0.00    +0.000 C 
ENDBRANCH   2  14
BRANCH   8  15
ATOM     15  O   UNL     1       1.479   2.127  20.430  0.00  0.00    +0.000 OA
ATOM     16  C   UNL     1       1.469   2.603  21.774  0.00  0.00    +0.000 C 
ENDBRANCH   8  15
ENDBRANCH   1   4
BRANCH   1  17
ATOM     17  C   UNL     1       2.826   8.099  17.568  0.00  0.00    +0.000 C 
BRANCH  17  18
ATOM     18  N   UNL     1       1.666   8.667  18.234  0.00  0.00    +0.000 N 
ATOM     19  C   UNL     1       1.545  10.028  18.372  0.00  0.00    +0.000 C 
ATOM     20  O   UNL     1       2.374  10.831  17.934  0.00  0.00    +0.000 OA
ATOM     21  H   UNL     1       0.871   8.069  18.431  0.00  0.00    +0.000 HD
BRANCH  19  22
ATOM     22  C   UNL     1       0.345  10.534  19.066  0.00  0.00    +0.000 A 
ATOM     23  C   UNL     1      -0.710  11.032  18.291  0.00  0.00    +0.000 A 
ATOM     24  C   UNL     1      -1.822  11.600  18.909  0.00  0.00    +0.000 A 
ATOM     25  C   UNL     1      -1.876  11.681  20.301  0.00  0.00    +0.000 A 
ATOM     26  C   UNL     1      -0.822  11.186  21.085  0.00  0.00    +0.000 A 
ATOM     27  C   UNL     1       0.290  10.603  20.463  0.00  0.00    +0.000 A 
BRANCH  26  28
ATOM     28  C   UNL     1      -0.918  11.336  22.563  0.00  0.00    +0.000 C 
ATOM     29  O   UNL     1      -0.229  10.706  23.347  0.00  0.00    +0.000 OA
BRANCH  28  30
ATOM     30  O   UNL     1      -1.866  12.250  22.890  0.00  0.00    +0.000 OA
ATOM     31  C   UNL     1      -1.330  13.494  23.345  0.00  0.00    +0.000 C 
ENDBRANCH  28  30
ENDBRANCH  26  28
ENDBRANCH  19  22
ENDBRANCH  17  18
ENDBRANCH   1  17
TORSDOF 8
ENDMDL
