MODEL 1
REMARK VINA RESULT:      -8.3      0.000      0.000
REMARK  Name = 
REMARK  12 active torsions:
REMARK  status: ('A' for Active; 'I' for Inactive)
REMARK    1  A    between atoms: C_1  and  C_2
REMARK    2  A    between atoms: C_5  and  C_6
REMARK    3  A    between atoms: C_7  and  S_8
REMARK    4  A    between atoms: S_8  and  N_11
REMARK    5  A    between atoms: N_11  and  C_12
REMARK    6  A    between atoms: N_11  and  C_23
REMARK    7  A    between atoms: C_12  and  C_13
REMARK    8  A    between atoms: N_15  and  C_16
REMARK    9  A    between atoms: C_16  and  C_17
REMARK   10  A    between atoms: C_26  and  C_27
REMARK   11  A    between atoms: C_27  and  C_28
REMARK   12  A    between atoms: C_27  and  C_29
REMARK                            x       y       z     vdW  Elec       q    Type
REMARK                         _______ _______ _______ _____ _____    ______ ____
ROOT
ATOM      1  N   UNL     1       3.907   5.395  18.463  0.00  0.00    +0.000 N 
ENDROOT
BRANCH   1   2
ATOM      2  C   UNL     1       3.079   6.531  18.760  0.00  0.00    +0.000 A 
ATOM      3  C   UNL     1       2.449   6.680  19.999  0.00  0.00    +0.000 A 
ATOM      4  C   UNL     1       1.652   7.807  20.259  0.00  0.00    +0.000 A 
ATOM      5  C   UNL     1       1.468   8.806  19.288  0.00  0.00    +0.000 A 
ATOM      6  C   UNL     1       2.123   8.647  18.058  0.00  0.00    +0.000 A 
ATOM      7  C   UNL     1       2.917   7.520  17.797  0.00  0.00    +0.000 A 
BRANCH   5   8
ATOM      8  C   UNL     1       0.618  10.031  19.611  0.00  0.00    +0.000 C 
ATOM      9  C   UNL     1      -0.377  10.314  18.483  0.00  0.00    +0.000 C 
ATOM     10  C   UNL     1      -0.128   9.956  20.950  0.00  0.00    +0.000 C 
ENDBRANCH   5   8
ENDBRANCH   1   2
BRANCH   1  11
ATOM     11  S   UNL     1       3.156   3.896  18.226  0.00  0.00    +0.000 S 
ATOM     12  O   UNL     1       4.099   2.959  17.662  0.00  0.00    +0.000 OA
ATOM     13  O   UNL     1       1.879   4.133  17.590  0.00  0.00    +0.000 OA
BRANCH  11  20
ATOM     14  C   UNL     1       4.924   2.071  20.549  0.00  0.00    +0.000 C 
ATOM     15  C   UNL     1       3.531   2.545  20.666  0.00  0.00    +0.000 A 
ATOM     16  N   UNL     1       2.866   2.292  21.801  0.00  0.00    +0.000 NA
ATOM     17  O   UNL     1       1.566   2.682  21.569  0.00  0.00    +0.000 OA
ATOM     18  C   UNL     1       1.450   3.160  20.300  0.00  0.00    +0.000 A 
ATOM     19  C   UNL     1       0.080   3.501  19.886  0.00  0.00    +0.000 C 
ATOM     20  C   UNL     1       2.697   3.187  19.720  0.00  0.00    +0.000 A 
ENDBRANCH  11  20
ENDBRANCH   1  11
BRANCH   1  21
ATOM     21  C   UNL     1       5.330   5.419  18.896  0.00  0.00    +0.000 C 
BRANCH  21  22
ATOM     22  C   UNL     1       6.236   5.852  17.744  0.00  0.00    +0.000 C 
ATOM     23  O   UNL     1       6.580   7.031  17.603  0.00  0.00    +0.000 OA
ATOM     24  N   UNL     1       6.651   4.863  16.867  0.00  0.00    +0.000 N 
ATOM     25  H   UNL     1       6.157   3.978  16.845  0.00  0.00    +0.000 HD
BRANCH  24  26
ATOM     26  C   UNL     1       7.434   5.232  15.695  0.00  0.00    +0.000 C 
BRANCH  26  27
ATOM     27  C   UNL     1       6.881   4.721  14.388  0.00  0.00    +0.000 A 
ATOM     28  C   UNL     1       7.616   4.810  13.195  0.00  0.00    +0.000 A 
ATOM     29  C   UNL     1       7.124   4.245  12.015  0.00  0.00    +0.000 A 
ATOM     30  C   UNL     1       5.897   3.582  12.009  0.00  0.00    +0.000 A 
ATOM     31  C   UNL     1       5.158   3.486  13.184  0.00  0.00    +0.000 A 
ATOM     32  C   UNL     1       5.646   4.053  14.364  0.00  0.00    +0.000 A 
ENDBRANCH  26  27
ENDBRANCH  24  26
ENDBRANCH  21  22
ENDBRANCH   1  21
TORSDOF 8
ENDMDL
MODEL 2
REMARK VINA RESULT:      -8.2      0.503      1.132
REMARK  Name = 
REMARK  12 active torsions:
REMARK  status: ('A' for Active; 'I' for Inactive)
REMARK    1  A    between atoms: C_1  and  C_2
REMARK    2  A    between atoms: C_5  and  C_6
REMARK    3  A    between atoms: C_7  and  S_8
REMARK    4  A    between atoms: S_8  and  N_11
REMARK    5  A    between atoms: N_11  and  C_12
REMARK    6  A    between atoms: N_11  and  C_23
REMARK    7  A    between atoms: C_12  and  C_13
REMARK    8  A    between atoms: N_15  and  C_16
REMARK    9  A    between atoms: C_16  and  C_17
REMARK   10  A    between atoms: C_26  and  C_27
REMARK   11  A    between atoms: C_27  and  C_28
REMARK   12  A    between atoms: C_27  and  C_29
REMARK                            x       y       z     vdW  Elec       q    Type
REMARK                         _______ _______ _______ _____ _____    ______ ____
ROOT
ATOM      1  N   UNL     1       3.986   5.401  18.552  0.00  0.00    +0.000 N 
ENDROOT
BRANCH   1   2
ATOM      2  C   UNL     1       3.164   6.573  18.666  0.00  0.00    +0.000 A 
ATOM      3  C   UNL     1       2.457   6.866  19.836  0.00  0.00    +0.000 A 
ATOM      4  C   UNL     1       1.668   8.025  19.917  0.00  0.00    +0.000 A 
ATOM      5  C   UNL     1       1.569   8.914  18.833  0.00  0.00    +0.000 A 
ATOM      6  C   UNL     1       2.301   8.612  17.675  0.00  0.00    +0.000 A 
ATOM      7  C   UNL     1       3.087   7.452  17.592  0.00  0.00    +0.000 A 
BRANCH   5   8
ATOM      8  C   UNL     1       0.725  10.178  18.962  0.00  0.00    +0.000 C 
ATOM      9  C   UNL     1      -0.047  10.182  20.284  0.00  0.00    +0.000 C 
ATOM     10  C   UNL     1       1.511  11.488  18.821  0.00  0.00    +0.000 C 
ENDBRANCH   5   8
ENDBRANCH   1   2
BRANCH   1  11
ATOM     11  S   UNL     1       3.223   3.902  18.355  0.00  0.00    +0.000 S 
ATOM     12  O   UNL     1       4.144   2.955  17.773  0.00  0.00    +0.000 OA
ATOM     13  O   UNL     1       1.927   4.138  17.755  0.00  0.00    +0.000 OA
BRANCH  11  20
ATOM     14  C   UNL     1       4.901   1.735  20.437  0.00  0.00    +0.000 C 
ATOM     15  C   UNL     1       3.618   2.412  20.709  0.00  0.00    +0.000 A 
ATOM     16  N   UNL     1       3.036   2.219  21.900  0.00  0.00    +0.000 NA
ATOM     17  O   UNL     1       1.797   2.812  21.813  0.00  0.00    +0.000 OA
ATOM     18  C   UNL     1       1.633   3.354  20.575  0.00  0.00    +0.000 A 
ATOM     19  C   UNL     1       0.300   3.918  20.313  0.00  0.00    +0.000 C 
ATOM     20  C   UNL     1       2.806   3.213  19.871  0.00  0.00    +0.000 A 
ENDBRANCH  11  20
ENDBRANCH   1  11
BRANCH   1  21
ATOM     21  C   UNL     1       5.355   5.432  19.132  0.00  0.00    +0.000 C 
BRANCH  21  22
ATOM     22  C   UNL     1       6.387   5.781  18.060  0.00  0.00    +0.000 C 
ATOM     23  O   UNL     1       7.191   6.706  18.217  0.00  0.00    +0.000 OA
ATOM     24  N   UNL     1       6.377   5.014  16.906  0.00  0.00    +0.000 N 
ATOM     25  H   UNL     1       5.561   4.452  16.690  0.00  0.00    +0.000 HD
BRANCH  24  26
ATOM     26  C   UNL     1       7.270   5.362  15.809  0.00  0.00    +0.000 C 
BRANCH  26  27
ATOM     27  C   UNL     1       6.920   4.721  14.490  0.00  0.00    +0.000 A 
ATOM     28  C   UNL     1       5.786   3.907  14.347  0.00  0.00    +0.000 A 
ATOM     29  C   UNL     1       5.430   3.400  13.094  0.00  0.00    +0.000 A 
ATOM     30  C   UNL     1       6.197   3.700  11.969  0.00  0.00    +0.000 A 
ATOM     31  C   UNL     1       7.325   4.506  12.096  0.00  0.00    +0.000 A 
ATOM     32  C   UNL     1       7.684   5.011  13.348  0.00  0.00    +0.000 A 
ENDBRANCH  26  27
ENDBRANCH  24  26
ENDBRANCH  21  22
ENDBRANCH   1  21
TORSDOF 8
ENDMDL
MODEL 3
REMARK VINA RESULT:      -8.2      0.600      1.941
REMARK  Name = 
REMARK  12 active torsions:
REMARK  status: ('A' for Active; 'I' for Inactive)
REMARK    1  A    between atoms: C_1  and  C_2
REMARK    2  A    between atoms: C_5  and  C_6
REMARK    3  A    between atoms: C_7  and  S_8
REMARK    4  A    between atoms: S_8  and  N_11
REMARK    5  A    between atoms: N_11  and  C_12
REMARK    6  A    between atoms: N_11  and  C_23
REMARK    7  A    between atoms: C_12  and  C_13
REMARK    8  A    between atoms: N_15  and  C_16
REMARK    9  A    between atoms: C_16  and  C_17
REMARK   10  A    between atoms: C_26  and  C_27
REMARK   11  A    between atoms: C_27  and  C_28
REMARK   12  A    between atoms: C_27  and  C_29
REMARK                            x       y       z     vdW  Elec       q    Type
REMARK                         _______ _______ _______ _____ _____    ______ ____
ROOT
ATOM      1  N   UNL     1       4.081   5.293  18.576  0.00  0.00    +0.000 N 
ENDROOT
BRANCH   1   2
ATOM      2  C   UNL     1       3.279   6.481  18.666  0.00  0.00    +0.000 A 
ATOM      3  C   UNL     1       3.110   7.341  17.577  0.00  0.00    +0.000 A 
ATOM      4  C   UNL     1       2.312   8.490  17.698  0.00  0.00    +0.000 A 
ATOM      5  C   UNL     1       1.669   8.805  18.907  0.00  0.00    +0.000 A 
ATOM      6  C   UNL     1       1.837   7.920  19.982  0.00  0.00    +0.000 A 
ATOM      7  C   UNL     1       2.636   6.773  19.864  0.00  0.00    +0.000 A 
BRANCH   5   8
ATOM      8  C   UNL     1       0.788  10.047  18.998  0.00  0.00    +0.000 C 
ATOM      9  C   UNL     1      -0.307  10.014  17.928  0.00  0.00    +0.000 C 
ATOM     10  C   UNL     1       0.155  10.283  20.375  0.00  0.00    +0.000 C 
ENDBRANCH   5   8
ENDBRANCH   1   2
BRANCH   1  11
ATOM     11  S   UNL     1       3.291   3.798  18.475  0.00  0.00    +0.000 S 
ATOM     12  O   UNL     1       4.175   2.814  17.894  0.00  0.00    +0.000 OA
ATOM     13  O   UNL     1       1.974   4.026  17.921  0.00  0.00    +0.000 OA
BRANCH  11  20
ATOM     14  C   UNL     1       0.647   4.332  20.612  0.00  0.00    +0.000 C 
ATOM     15  C   UNL     1       1.754   3.374  20.793  0.00  0.00    +0.000 A 
ATOM     16  N   UNL     1       1.739   2.580  21.872  0.00  0.00    +0.000 NA
ATOM     17  O   UNL     1       2.953   1.929  21.876  0.00  0.00    +0.000 OA
ATOM     18  C   UNL     1       3.694   2.334  20.809  0.00  0.00    +0.000 A 
ATOM     19  C   UNL     1       5.064   1.800  20.764  0.00  0.00    +0.000 C 
ATOM     20  C   UNL     1       2.933   3.178  20.034  0.00  0.00    +0.000 A 
ENDBRANCH  11  20
ENDBRANCH   1  11
BRANCH   1  21
ATOM     21  C   UNL     1       5.471   5.330  19.105  0.00  0.00    +0.000 C 
BRANCH  21  22
ATOM     22  C   UNL     1       6.460   5.683  17.995  0.00  0.00    +0.000 C 
ATOM     23  O   UNL     1       7.429   6.421  18.206  0.00  0.00    +0.000 OA
ATOM     24  N   UNL     1       6.220   5.139  16.743  0.00  0.00    +0.000 N 
ATOM     25  H   UNL     1       5.301   4.766  16.532  0.00  0.00    +0.000 HD
BRANCH  24  26
ATOM     26  C   UNL     1       7.071   5.519  15.625  0.00  0.00    +0.000 C 
BRANCH  26  27
ATOM     27  C   UNL     1       6.787   4.778  14.342  0.00  0.00    +0.000 A 
ATOM     28  C   UNL     1       5.618   4.019  14.176  0.00  0.00    +0.000 A 
ATOM     29  C   UNL     1       5.330   3.419  12.947  0.00  0.00    +0.000 A 
ATOM     30  C   UNL     1       6.201   3.569  11.868  0.00  0.00    +0.000 A 
ATOM     31  C   UNL     1       7.364   4.319  12.019  0.00  0.00    +0.000 A 
ATOM     32  C   UNL     1       7.655   4.917  13.247  0.00  0.00    +0.000 A 
ENDBRANCH  26  27
ENDBRANCH  24  26
ENDBRANCH  21  22
ENDBRANCH   1  21
TORSDOF 8
ENDMDL
MODEL 4
REMARK VINA RESULT:      -8.1      0.482      1.106
REMARK  Name = 
REMARK  12 active torsions:
REMARK  status: ('A' for Active; 'I' for Inactive)
REMARK    1  A    between atoms: C_1  and  C_2
REMARK    2  A    between atoms: C_5  and  C_6
REMARK    3  A    between atoms: C_7  and  S_8
REMARK    4  A    between atoms: S_8  and  N_11
REMARK    5  A    between atoms: N_11  and  C_12
REMARK    6  A    between atoms: N_11  and  C_23
REMARK    7  A    between atoms: C_12  and  C_13
REMARK    8  A    between atoms: N_15  and  C_16
REMARK    9  A    between atoms: C_16  and  C_17
REMARK   10  A    between atoms: C_26  and  C_27
REMARK   11  A    between atoms: C_27  and  C_28
REMARK   12  A    between atoms: C_27  and  C_29
REMARK                            x       y       z     vdW  Elec       q    Type
REMARK                         _______ _______ _______ _____ _____    ______ ____
ROOT
ATOM      1  N   UNL     1       3.908   5.627  18.398  0.00  0.00    +0.000 N 
ENDROOT
BRANCH   1   2
ATOM      2  C   UNL     1       3.099   6.800  18.582  0.00  0.00    +0.000 A 
ATOM      3  C   UNL     1       2.901   7.726  17.554  0.00  0.00    +0.000 A 
ATOM      4  C   UNL     1       2.098   8.859  17.765  0.00  0.00    +0.000 A 
ATOM      5  C   UNL     1       1.479   9.090  19.005  0.00  0.00    +0.000 A 
ATOM      6  C   UNL     1       1.675   8.140  20.017  0.00  0.00    +0.000 A 
ATOM      7  C   UNL     1       2.480   7.009  19.809  0.00  0.00    +0.000 A 
BRANCH   5   8
ATOM      8  C   UNL     1       0.591  10.316  19.193  0.00  0.00    +0.000 C 
ATOM      9  C   UNL     1       1.345  11.595  18.819  0.00  0.00    +0.000 C 
ATOM     10  C   UNL     1      -0.742  10.263  18.434  0.00  0.00    +0.000 C 
ENDBRANCH   5   8
ENDBRANCH   1   2
BRANCH   1  11
ATOM     11  S   UNL     1       3.127   4.134  18.226  0.00  0.00    +0.000 S 
ATOM     12  O   UNL     1       4.006   3.194  17.569  0.00  0.00    +0.000 OA
ATOM     13  O   UNL     1       1.797   4.384  17.714  0.00  0.00    +0.000 OA
BRANCH  11  20
ATOM     14  C   UNL     1       4.885   1.858  20.118  0.00  0.00    +0.000 C 
ATOM     15  C   UNL     1       3.652   2.570  20.505  0.00  0.00    +0.000 A 
ATOM     16  N   UNL     1       3.158   2.366  21.734  0.00  0.00    +0.000 NA
ATOM     17  O   UNL     1       1.938   3.003  21.759  0.00  0.00    +0.000 OA
ATOM     18  C   UNL     1       1.698   3.582  20.551  0.00  0.00    +0.000 A 
ATOM     19  C   UNL     1       0.369   4.198  20.408  0.00  0.00    +0.000 C 
ATOM     20  C   UNL     1       2.806   3.420  19.753  0.00  0.00    +0.000 A 
ENDBRANCH  11  20
ENDBRANCH   1  11
BRANCH   1  21
ATOM     21  C   UNL     1       5.310   5.645  18.894  0.00  0.00    +0.000 C 
BRANCH  21  22
ATOM     22  C   UNL     1       6.279   5.971  17.758  0.00  0.00    +0.000 C 
ATOM     23  O   UNL     1       6.735   7.110  17.608  0.00  0.00    +0.000 OA
ATOM     24  N   UNL     1       6.620   4.932  16.907  0.00  0.00    +0.000 N 
ATOM     25  H   UNL     1       6.046   4.098  16.887  0.00  0.00    +0.000 HD
BRANCH  24  26
ATOM     26  C   UNL     1       7.460   5.206  15.749  0.00  0.00    +0.000 C 
BRANCH  26  27
ATOM     27  C   UNL     1       6.898   4.716  14.438  0.00  0.00    +0.000 A 
ATOM     28  C   UNL     1       7.627   4.816  13.243  0.00  0.00    +0.000 A 
ATOM     29  C   UNL     1       7.125   4.270  12.058  0.00  0.00    +0.000 A 
ATOM     30  C   UNL     1       5.894   3.616  12.050  0.00  0.00    +0.000 A 
ATOM     31  C   UNL     1       5.160   3.509  13.227  0.00  0.00    +0.000 A 
ATOM     32  C   UNL     1       5.658   4.057  14.412  0.00  0.00    +0.000 A 
ENDBRANCH  26  27
ENDBRANCH  24  26
ENDBRANCH  21  22
ENDBRANCH   1  21
TORSDOF 8
ENDMDL
MODEL 5
REMARK VINA RESULT:      -8.1      0.746      1.679
REMARK  Name = 
REMARK  12 active torsions:
REMARK  status: ('A' for Active; 'I' for Inactive)
REMARK    1  A    between atoms: C_1  and  C_2
REMARK    2  A    between atoms: C_5  and  C_6
REMARK    3  A    between atoms: C_7  and  S_8
REMARK    4  A    between atoms: S_8  and  N_11
REMARK    5  A    between atoms: N_11  and  C_12
REMARK    6  A    between atoms: N_11  and  C_23
REMARK    7  A    between atoms: C_12  and  C_13
REMARK    8  A    between atoms: N_15  and  C_16
REMARK    9  A    between atoms: C_16  and  C_17
REMARK   10  A    between atoms: C_26  and  C_27
REMARK   11  A    between atoms: C_27  and  C_28
REMARK   12  A    between atoms: C_27  and  C_29
REMARK                            x       y       z     vdW  Elec       q    Type
REMARK                         _______ _______ _______ _____ _____    ______ ____
ROOT
ATOM      1  N   UNL     1       4.122   5.240  18.650  0.00  0.00    +0.000 N 
ENDROOT
BRANCH   1   2
ATOM      2  C   UNL     1       3.329   6.437  18.719  0.00  0.00    +0.000 A 
ATOM      3  C   UNL     1       2.584   6.762  19.856  0.00  0.00    +0.000 A 
ATOM      4  C   UNL     1       1.827   7.944  19.893  0.00  0.00    +0.000 A 
ATOM      5  C   UNL     1       1.796   8.823  18.797  0.00  0.00    +0.000 A 
ATOM      6  C   UNL     1       2.565   8.487  17.673  0.00  0.00    +0.000 A 
ATOM      7  C   UNL     1       3.321   7.305  17.634  0.00  0.00    +0.000 A 
BRANCH   5   8
ATOM      8  C   UNL     1       0.985  10.112  18.879  0.00  0.00    +0.000 C 
ATOM      9  C   UNL     1       0.403  10.298  20.283  0.00  0.00    +0.000 C 
ATOM     10  C   UNL     1       1.750  11.376  18.466  0.00  0.00    +0.000 C 
ENDBRANCH   5   8
ENDBRANCH   1   2
BRANCH   1  11
ATOM     11  S   UNL     1       3.320   3.753  18.535  0.00  0.00    +0.000 S 
ATOM     12  O   UNL     1       4.198   2.766  17.951  0.00  0.00    +0.000 OA
ATOM     13  O   UNL     1       2.007   3.997  17.978  0.00  0.00    +0.000 OA
BRANCH  11  20
ATOM     14  C   UNL     1       0.668   4.290  20.663  0.00  0.00    +0.000 C 
ATOM     15  C   UNL     1       1.768   3.323  20.843  0.00  0.00    +0.000 A 
ATOM     16  N   UNL     1       1.743   2.522  21.916  0.00  0.00    +0.000 NA
ATOM     17  O   UNL     1       2.952   1.863  21.922  0.00  0.00    +0.000 OA
ATOM     18  C   UNL     1       3.701   2.271  20.862  0.00  0.00    +0.000 A 
ATOM     19  C   UNL     1       5.068   1.728  20.819  0.00  0.00    +0.000 C 
ATOM     20  C   UNL     1       2.949   3.124  20.089  0.00  0.00    +0.000 A 
ENDBRANCH  11  20
ENDBRANCH   1  11
BRANCH   1  21
ATOM     21  C   UNL     1       5.499   5.265  19.211  0.00  0.00    +0.000 C 
BRANCH  21  22
ATOM     22  C   UNL     1       6.523   5.552  18.112  0.00  0.00    +0.000 C 
ATOM     23  O   UNL     1       7.565   6.173  18.349  0.00  0.00    +0.000 OA
ATOM     24  N   UNL     1       6.227   5.083  16.842  0.00  0.00    +0.000 N 
ATOM     25  H   UNL     1       5.274   4.819  16.620  0.00  0.00    +0.000 HD
BRANCH  24  26
ATOM     26  C   UNL     1       7.116   5.411  15.736  0.00  0.00    +0.000 C 
BRANCH  26  27
ATOM     27  C   UNL     1       6.716   4.810  14.413  0.00  0.00    +0.000 A 
ATOM     28  C   UNL     1       7.566   4.861  13.297  0.00  0.00    +0.000 A 
ATOM     29  C   UNL     1       7.215   4.214  12.107  0.00  0.00    +0.000 A 
ATOM     30  C   UNL     1       6.016   3.508  12.017  0.00  0.00    +0.000 A 
ATOM     31  C   UNL     1       5.164   3.449  13.116  0.00  0.00    +0.000 A 
ATOM     32  C   UNL     1       5.511   4.097  14.304  0.00  0.00    +0.000 A 
ENDBRANCH  26  27
ENDBRANCH  24  26
ENDBRANCH  21  22
ENDBRANCH   1  21
TORSDOF 8
ENDMDL
MODEL 6
REMARK VINA RESULT:      -7.9      1.167      6.939
REMARK  Name = 
REMARK  12 active torsions:
REMARK  status: ('A' for Active; 'I' for Inactive)
REMARK    1  A    between atoms: C_1  and  C_2
REMARK    2  A    between atoms: C_5  and  C_6
REMARK    3  A    between atoms: C_7  and  S_8
REMARK    4  A    between atoms: S_8  and  N_11
REMARK    5  A    between atoms: N_11  and  C_12
REMARK    6  A    between atoms: N_11  and  C_23
REMARK    7  A    between atoms: C_12  and  C_13
REMARK    8  A    between atoms: N_15  and  C_16
REMARK    9  A    between atoms: C_16  and  C_17
REMARK   10  A    between atoms: C_26  and  C_27
REMARK   11  A    between atoms: C_27  and  C_28
REMARK   12  A    between atoms: C_27  and  C_29
REMARK                            x       y       z     vdW  Elec       q    Type
REMARK                         _______ _______ _______ _____ _____    ______ ____
ROOT
ATOM      1  N   UNL     1       4.624   4.452  18.091  0.00  0.00    +0.000 N 
ENDROOT
BRANCH   1   2
ATOM      2  C   UNL     1       5.327   4.423  16.838  0.00  0.00    +0.000 A 
ATOM      3  C   UNL     1       6.715   4.574  16.768  0.00  0.00    +0.000 A 
ATOM      4  C   UNL     1       7.371   4.533  15.527  0.00  0.00    +0.000 A 
ATOM      5  C   UNL     1       6.655   4.342  14.333  0.00  0.00    +0.000 A 
ATOM      6  C   UNL     1       5.266   4.175  14.426  0.00  0.00    +0.000 A 
ATOM      7  C   UNL     1       4.609   4.218  15.666  0.00  0.00    +0.000 A 
BRANCH   5   8
ATOM      8  C   UNL     1       7.401   4.275  13.003  0.00  0.00    +0.000 C 
ATOM      9  C   UNL     1       6.549   3.581  11.937  0.00  0.00    +0.000 C 
ATOM     10  C   UNL     1       7.886   5.631  12.474  0.00  0.00    +0.000 C 
ENDBRANCH   5   8
ENDBRANCH   1   2
BRANCH   1  11
ATOM     11  S   UNL     1       3.329   3.383  18.309  0.00  0.00    +0.000 S 
ATOM     12  O   UNL     1       3.677   2.079  17.795  0.00  0.00    +0.000 OA
ATOM     13  O   UNL     1       2.122   4.051  17.872  0.00  0.00    +0.000 OA
BRANCH  11  20
ATOM     14  C   UNL     1       1.010   4.732  20.466  0.00  0.00    +0.000 C 
ATOM     15  C   UNL     1       1.960   3.641  20.754  0.00  0.00    +0.000 A 
ATOM     16  N   UNL     1       1.916   3.060  21.960  0.00  0.00    +0.000 NA
ATOM     17  O   UNL     1       3.004   2.217  22.012  0.00  0.00    +0.000 OA
ATOM     18  C   UNL     1       3.701   2.296  20.846  0.00  0.00    +0.000 A 
ATOM     19  C   UNL     1       4.957   1.531  20.817  0.00  0.00    +0.000 C 
ATOM     20  C   UNL     1       3.018   3.113  19.975  0.00  0.00    +0.000 A 
ENDBRANCH  11  20
ENDBRANCH   1  11
BRANCH   1  21
ATOM     21  C   UNL     1       4.661   5.700  18.899  0.00  0.00    +0.000 C 
BRANCH  21  22
ATOM     22  C   UNL     1       4.009   6.854  18.138  0.00  0.00    +0.000 C 
ATOM     23  O   UNL     1       4.631   7.494  17.283  0.00  0.00    +0.000 OA
ATOM     24  N   UNL     1       2.692   7.148  18.453  0.00  0.00    +0.000 N 
ATOM     25  H   UNL     1       2.298   6.798  19.318  0.00  0.00    +0.000 HD
BRANCH  24  26
ATOM     26  C   UNL     1       2.051   8.299  17.832  0.00  0.00    +0.000 C 
BRANCH  26  27
ATOM     27  C   UNL     1       1.193   9.116  18.765  0.00  0.00    +0.000 A 
ATOM     28  C   UNL     1       0.266  10.052  18.280  0.00  0.00    +0.000 A 
ATOM     29  C   UNL     1      -0.585  10.729  19.160  0.00  0.00    +0.000 A 
ATOM     30  C   UNL     1      -0.524  10.479  20.530  0.00  0.00    +0.000 A 
ATOM     31  C   UNL     1       0.390   9.554  21.025  0.00  0.00    +0.000 A 
ATOM     32  C   UNL     1       1.243   8.879  20.149  0.00  0.00    +0.000 A 
ENDBRANCH  26  27
ENDBRANCH  24  26
ENDBRANCH  21  22
ENDBRANCH   1  21
TORSDOF 8
ENDMDL
MODEL 7
REMARK VINA RESULT:      -7.8      1.223      1.528
REMARK  Name = 
REMARK  12 active torsions:
REMARK  status: ('A' for Active; 'I' for Inactive)
REMARK    1  A    between atoms: C_1  and  C_2
REMARK    2  A    between atoms: C_5  and  C_6
REMARK    3  A    between atoms: C_7  and  S_8
REMARK    4  A    between atoms: S_8  and  N_11
REMARK    5  A    between atoms: N_11  and  C_12
REMARK    6  A    between atoms: N_11  and  C_23
REMARK    7  A    between atoms: C_12  and  C_13
REMARK    8  A    between atoms: N_15  and  C_16
REMARK    9  A    between atoms: C_16  and  C_17
REMARK   10  A    between atoms: C_26  and  C_27
REMARK   11  A    between atoms: C_27  and  C_28
REMARK   12  A    between atoms: C_27  and  C_29
REMARK                            x       y       z     vdW  Elec       q    Type
REMARK                         _______ _______ _______ _____ _____    ______ ____
ROOT
ATOM      1  N   UNL     1       4.801   4.981  18.789  0.00  0.00    +0.000 N 
ENDROOT
BRANCH   1   2
ATOM      2  C   UNL     1       3.833   6.040  18.860  0.00  0.00    +0.000 A 
ATOM      3  C   UNL     1       3.079   6.273  20.013  0.00  0.00    +0.000 A 
ATOM      4  C   UNL     1       2.146   7.322  20.051  0.00  0.00    +0.000 A 
ATOM      5  C   UNL     1       1.947   8.158  18.939  0.00  0.00    +0.000 A 
ATOM      6  C   UNL     1       2.726   7.920  17.798  0.00  0.00    +0.000 A 
ATOM      7  C   UNL     1       3.657   6.870  17.758  0.00  0.00    +0.000 A 
BRANCH   5   8
ATOM      8  C   UNL     1       0.945   9.306  19.023  0.00  0.00    +0.000 C 
ATOM      9  C   UNL     1       0.511   9.543  20.471  0.00  0.00    +0.000 C 
ATOM     10  C   UNL     1       1.433  10.625  18.408  0.00  0.00    +0.000 C 
ENDBRANCH   5   8
ENDBRANCH   1   2
BRANCH   1  11
ATOM     11  S   UNL     1       4.249   3.383  18.876  0.00  0.00    +0.000 S 
ATOM     12  O   UNL     1       4.965   2.672  19.909  0.00  0.00    +0.000 OA
ATOM     13  O   UNL     1       4.183   2.860  17.529  0.00  0.00    +0.000 OA
BRANCH  11  20
ATOM     14  C   UNL     1       2.765   2.232  21.761  0.00  0.00    +0.000 C 
ATOM     15  C   UNL     1       2.104   2.924  20.639  0.00  0.00    +0.000 A 
ATOM     16  N   UNL     1       0.794   3.188  20.737  0.00  0.00    +0.000 NA
ATOM     17  O   UNL     1       0.414   3.668  19.504  0.00  0.00    +0.000 OA
ATOM     18  C   UNL     1       1.488   3.687  18.668  0.00  0.00    +0.000 A 
ATOM     19  C   UNL     1       1.191   4.069  17.279  0.00  0.00    +0.000 C 
ATOM     20  C   UNL     1       2.608   3.318  19.377  0.00  0.00    +0.000 A 
ENDBRANCH  11  20
ENDBRANCH   1  11
BRANCH   1  21
ATOM     21  C   UNL     1       6.205   5.273  19.184  0.00  0.00    +0.000 C 
BRANCH  21  22
ATOM     22  C   UNL     1       7.035   5.675  17.966  0.00  0.00    +0.000 C 
ATOM     23  O   UNL     1       7.870   6.584  18.027  0.00  0.00    +0.000 OA
ATOM     24  N   UNL     1       6.807   4.975  16.792  0.00  0.00    +0.000 N 
ATOM     25  H   UNL     1       5.957   4.432  16.695  0.00  0.00    +0.000 HD
BRANCH  24  26
ATOM     26  C   UNL     1       7.497   5.380  15.575  0.00  0.00    +0.000 C 
BRANCH  26  27
ATOM     27  C   UNL     1       6.926   4.794  14.308  0.00  0.00    +0.000 A 
ATOM     28  C   UNL     1       7.627   4.846  13.094  0.00  0.00    +0.000 A 
ATOM     29  C   UNL     1       7.121   4.213  11.954  0.00  0.00    +0.000 A 
ATOM     30  C   UNL     1       5.913   3.520  12.012  0.00  0.00    +0.000 A 
ATOM     31  C   UNL     1       5.206   3.460  13.209  0.00  0.00    +0.000 A 
ATOM     32  C   UNL     1       5.708   4.094  14.348  0.00  0.00    +0.000 A 
ENDBRANCH  26  27
ENDBRANCH  24  26
ENDBRANCH  21  22
ENDBRANCH   1  21
TORSDOF 8
ENDMDL
MODEL 8
REMARK VINA RESULT:      -7.8      2.730      4.632
REMARK  Name = 
REMARK  12 active torsions:
REMARK  status: ('A' for Active; 'I' for Inactive)
REMARK    1  A    between atoms: C_1  and  C_2
REMARK    2  A    between atoms: C_5  and  C_6
REMARK    3  A    between atoms: C_7  and  S_8
REMARK    4  A    between atoms: S_8  and  N_11
REMARK    5  A    between atoms: N_11  and  C_12
REMARK    6  A    between atoms: N_11  and  C_23
REMARK    7  A    between atoms: C_12  and  C_13
REMARK    8  A    between atoms: N_15  and  C_16
REMARK    9  A    between atoms: C_16  and  C_17
REMARK   10  A    between atoms: C_26  and  C_27
REMARK   11  A    between atoms: C_27  and  C_28
REMARK   12  A    between atoms: C_27  and  C_29
REMARK                            x       y       z     vdW  Elec       q    Type
REMARK                         _______ _______ _______ _____ _____    ______ ____
ROOT
ATOM      1  N   UNL     1       6.164   5.211  17.732  0.00  0.00    +0.000 N 
ENDROOT
BRANCH   1   2
ATOM      2  C   UNL     1       6.906   6.422  17.945  0.00  0.00    +0.000 A 
ATOM      3  C   UNL     1       7.962   6.488  18.858  0.00  0.00    +0.000 A 
ATOM      4  C   UNL     1       8.672   7.687  19.036  0.00  0.00    +0.000 A 
ATOM      5  C   UNL     1       8.340   8.843  18.308  0.00  0.00    +0.000 A 
ATOM      6  C   UNL     1       7.290   8.751  17.384  0.00  0.00    +0.000 A 
ATOM      7  C   UNL     1       6.578   7.554  17.207  0.00  0.00    +0.000 A 
BRANCH   5   8
ATOM      8  C   UNL     1       9.148  10.122  18.504  0.00  0.00    +0.000 C 
ATOM      9  C   UNL     1       8.476  11.302  17.798  0.00  0.00    +0.000 C 
ATOM     10  C   UNL     1       9.422  10.486  19.970  0.00  0.00    +0.000 C 
ENDBRANCH   5   8
ENDBRANCH   1   2
BRANCH   1  11
ATOM     11  S   UNL     1       5.079   4.713  18.934  0.00  0.00    +0.000 S 
ATOM     12  O   UNL     1       4.872   5.783  19.882  0.00  0.00    +0.000 OA
ATOM     13  O   UNL     1       5.483   3.398  19.382  0.00  0.00    +0.000 OA
BRANCH  11  20
ATOM     14  C   UNL     1       3.553   1.829  17.837  0.00  0.00    +0.000 C 
ATOM     15  C   UNL     1       2.941   3.166  17.960  0.00  0.00    +0.000 A 
ATOM     16  N   UNL     1       1.642   3.301  17.661  0.00  0.00    +0.000 NA
ATOM     17  O   UNL     1       1.387   4.654  17.692  0.00  0.00    +0.000 OA
ATOM     18  C   UNL     1       2.528   5.328  18.002  0.00  0.00    +0.000 A 
ATOM     19  C   UNL     1       2.419   6.794  17.952  0.00  0.00    +0.000 C 
ATOM     20  C   UNL     1       3.520   4.417  18.281  0.00  0.00    +0.000 A 
ENDBRANCH  11  20
ENDBRANCH   1  11
BRANCH   1  21
ATOM     21  C   UNL     1       6.722   4.187  16.808  0.00  0.00    +0.000 C 
BRANCH  21  22
ATOM     22  C   UNL     1       6.295   4.472  15.368  0.00  0.00    +0.000 C 
ATOM     23  O   UNL     1       5.103   4.493  15.042  0.00  0.00    +0.000 OA
ATOM     24  N   UNL     1       7.305   4.705  14.449  0.00  0.00    +0.000 N 
ATOM     25  H   UNL     1       8.254   4.428  14.673  0.00  0.00    +0.000 HD
BRANCH  24  26
ATOM     26  C   UNL     1       6.964   4.884  13.044  0.00  0.00    +0.000 C 
BRANCH  26  27
ATOM     27  C   UNL     1       6.603   3.610  12.322  0.00  0.00    +0.000 A 
ATOM     28  C   UNL     1       5.268   3.277  12.045  0.00  0.00    +0.000 A 
ATOM     29  C   UNL     1       4.962   2.139  11.291  0.00  0.00    +0.000 A 
ATOM     30  C   UNL     1       5.982   1.324  10.802  0.00  0.00    +0.000 A 
ATOM     31  C   UNL     1       7.310   1.643  11.069  0.00  0.00    +0.000 A 
ATOM     32  C   UNL     1       7.618   2.777  11.824  0.00  0.00    +0.000 A 
ENDBRANCH  26  27
ENDBRANCH  24  26
ENDBRANCH  21  22
ENDBRANCH   1  21
TORSDOF 8
ENDMDL
MODEL 9
REMARK VINA RESULT:      -7.8      2.706      4.767
REMARK  Name = 
REMARK  12 active torsions:
REMARK  status: ('A' for Active; 'I' for Inactive)
REMARK    1  A    between atoms: C_1  and  C_2
REMARK    2  A    between atoms: C_5  and  C_6
REMARK    3  A    between atoms: C_7  and  S_8
REMARK    4  A    between atoms: S_8  and  N_11
REMARK    5  A    between atoms: N_11  and  C_12
REMARK    6  A    between atoms: N_11  and  C_23
REMARK    7  A    between atoms: C_12  and  C_13
REMARK    8  A    between atoms: N_15  and  C_16
REMARK    9  A    between atoms: C_16  and  C_17
REMARK   10  A    between atoms: C_26  and  C_27
REMARK   11  A    between atoms: C_27  and  C_28
REMARK   12  A    between atoms: C_27  and  C_29
REMARK                            x       y       z     vdW  Elec       q    Type
REMARK                         _______ _______ _______ _____ _____    ______ ____
ROOT
ATOM      1  N   UNL     1       6.070   5.176  17.724  0.00  0.00    +0.000 N 
ENDROOT
BRANCH   1   2
ATOM      2  C   UNL     1       6.817   6.391  17.899  0.00  0.00    +0.000 A 
ATOM      3  C   UNL     1       6.487   7.564  17.213  0.00  0.00    +0.000 A 
ATOM      4  C   UNL     1       7.233   8.736  17.413  0.00  0.00    +0.000 A 
ATOM      5  C   UNL     1       8.324   8.761  18.299  0.00  0.00    +0.000 A 
ATOM      6  C   UNL     1       8.627   7.580  18.991  0.00  0.00    +0.000 A 
ATOM      7  C   UNL     1       7.883   6.407  18.790  0.00  0.00    +0.000 A 
BRANCH   5   8
ATOM      8  C   UNL     1       9.098  10.059  18.515  0.00  0.00    +0.000 C 
ATOM      9  C   UNL     1       8.422  11.221  17.782  0.00  0.00    +0.000 C 
ATOM     10  C   UNL     1       9.318  10.435  19.986  0.00  0.00    +0.000 C 
ENDBRANCH   5   8
ENDBRANCH   1   2
BRANCH   1  11
ATOM     11  S   UNL     1       5.030   4.689  18.969  0.00  0.00    +0.000 S 
ATOM     12  O   UNL     1       4.734   5.811  19.829  0.00  0.00    +0.000 OA
ATOM     13  O   UNL     1       5.541   3.452  19.517  0.00  0.00    +0.000 OA
BRANCH  11  20
ATOM     14  C   UNL     1       2.223   6.496  18.129  0.00  0.00    +0.000 C 
ATOM     15  C   UNL     1       2.440   5.050  17.930  0.00  0.00    +0.000 A 
ATOM     16  N   UNL     1       1.480   4.340  17.322  0.00  0.00    +0.000 NA
ATOM     17  O   UNL     1       1.864   3.022  17.427  0.00  0.00    +0.000 OA
ATOM     18  C   UNL     1       3.044   2.940  18.099  0.00  0.00    +0.000 A 
ATOM     19  C   UNL     1       3.506   1.573  18.384  0.00  0.00    +0.000 C 
ATOM     20  C   UNL     1       3.501   4.213  18.351  0.00  0.00    +0.000 A 
ENDBRANCH  11  20
ENDBRANCH   1  11
BRANCH   1  21
ATOM     21  C   UNL     1       6.597   4.145  16.791  0.00  0.00    +0.000 C 
BRANCH  21  22
ATOM     22  C   UNL     1       6.201   4.470  15.350  0.00  0.00    +0.000 C 
ATOM     23  O   UNL     1       5.020   4.637  15.029  0.00  0.00    +0.000 OA
ATOM     24  N   UNL     1       7.228   4.567  14.425  0.00  0.00    +0.000 N 
ATOM     25  H   UNL     1       8.136   4.174  14.647  0.00  0.00    +0.000 HD
BRANCH  24  26
ATOM     26  C   UNL     1       6.904   4.776  13.020  0.00  0.00    +0.000 C 
BRANCH  26  27
ATOM     27  C   UNL     1       6.536   3.521  12.270  0.00  0.00    +0.000 A 
ATOM     28  C   UNL     1       5.198   3.192  12.000  0.00  0.00    +0.000 A 
ATOM     29  C   UNL     1       4.885   2.074  11.222  0.00  0.00    +0.000 A 
ATOM     30  C   UNL     1       5.900   1.272  10.701  0.00  0.00    +0.000 A 
ATOM     31  C   UNL     1       7.230   1.586  10.960  0.00  0.00    +0.000 A 
ATOM     32  C   UNL     1       7.546   2.701  11.740  0.00  0.00    +0.000 A 
ENDBRANCH  26  27
ENDBRANCH  24  26
ENDBRANCH  21  22
ENDBRANCH   1  21
TORSDOF 8
ENDMDL
