MODEL 1
REMARK VINA RESULT:      -7.9      0.000      0.000
REMARK  Name = 
REMARK  2 active torsions:
REMARK  status: ('A' for Active; 'I' for Inactive)
REMARK    1  A    between atoms: C_1  and  N_2
REMARK    2  A    between atoms: C_4  and  C_5
REMARK                            x       y       z     vdW  Elec       q    Type
REMARK                         _______ _______ _______ _____ _____    ______ ____
ROOT
ATOM      1  C   UNL     1       0.782   4.732  20.258  0.00  0.00    +0.000 C 
ATOM      2  N   UNL     1       1.758   4.174  19.333  0.00  0.00    +0.000 N 
ATOM      3  C   UNL     1       2.827   4.770  18.840  0.00  0.00    +0.000 C 
ATOM      4  C   UNL     1       3.037   6.296  18.649  0.00  0.00    +0.000 C 
ATOM      5  N   UNL     1       3.861   6.660  17.674  0.00  0.00    +0.000 N 
ATOM      6  O   UNL     1       4.034   7.941  17.410  0.00  0.00    +0.000 OA
ATOM      7  C   UNL     1       4.590   5.734  16.859  0.00  0.00    +0.000 A 
ATOM      8  C   UNL     1       5.268   6.178  15.694  0.00  0.00    +0.000 A 
ATOM      9  C   UNL     1       5.981   5.272  14.891  0.00  0.00    +0.000 A 
ATOM     10  C   UNL     1       6.042   3.933  15.237  0.00  0.00    +0.000 A 
ATOM     11  C   UNL     1       5.373   3.495  16.357  0.00  0.00    +0.000 A 
ATOM     12  C   UNL     1       4.625   4.373  17.171  0.00  0.00    +0.000 A 
ATOM     13  N   UNL     1       3.826   3.927  18.252  0.00  0.00    +0.000 N 
ATOM     14  C   UNL     1       3.781   2.519  18.653  0.00  0.00    +0.000 C 
ATOM     15  C   UNL     1       2.476   2.061  18.095  0.00  0.00    +0.000 C 
ATOM     16  C   UNL     1       1.405   2.812  18.882  0.00  0.00    +0.000 C 
ENDROOT
BRANCH   4  17
ATOM     17  C   UNL     1       2.205   7.386  19.325  0.00  0.00    +0.000 A 
ATOM     18  C   UNL     1       1.589   8.399  18.572  0.00  0.00    +0.000 A 
ATOM     19  C   UNL     1       0.902   9.451  19.189  0.00  0.00    +0.000 A 
ATOM     20  C   UNL     1       0.761   9.484  20.574  0.00  0.00    +0.000 A 
ATOM     21  C   UNL     1       1.298   8.457  21.347  0.00  0.00    +0.000 A 
ATOM     22  C   UNL     1       2.015   7.426  20.731  0.00  0.00    +0.000 A 
ENDBRANCH   4  17
TORSDOF 1
ENDMDL
MODEL 2
REMARK VINA RESULT:      -7.8      0.059      1.028
REMARK  Name = 
REMARK  2 active torsions:
REMARK  status: ('A' for Active; 'I' for Inactive)
REMARK    1  A    between atoms: C_1  and  N_2
REMARK    2  A    between atoms: C_4  and  C_5
REMARK                            x       y       z     vdW  Elec       q    Type
REMARK                         _______ _______ _______ _____ _____    ______ ____
ROOT
ATOM      1  C   UNL     1       0.808   4.756  20.280  0.00  0.00    +0.000 C 
ATOM      2  N   UNL     1       1.776   4.189  19.353  0.00  0.00    +0.000 N 
ATOM      3  C   UNL     1       2.845   4.777  18.851  0.00  0.00    +0.000 C 
ATOM      4  C   UNL     1       3.061   6.302  18.651  0.00  0.00    +0.000 C 
ATOM      5  N   UNL     1       3.881   6.657  17.670  0.00  0.00    +0.000 N 
ATOM      6  O   UNL     1       4.059   7.936  17.399  0.00  0.00    +0.000 OA
ATOM      7  C   UNL     1       4.601   5.723  16.855  0.00  0.00    +0.000 A 
ATOM      8  C   UNL     1       5.276   6.158  15.685  0.00  0.00    +0.000 A 
ATOM      9  C   UNL     1       5.981   5.245  14.882  0.00  0.00    +0.000 A 
ATOM     10  C   UNL     1       6.037   3.907  15.235  0.00  0.00    +0.000 A 
ATOM     11  C   UNL     1       5.372   3.478  16.361  0.00  0.00    +0.000 A 
ATOM     12  C   UNL     1       4.632   4.364  17.175  0.00  0.00    +0.000 A 
ATOM     13  N   UNL     1       3.837   3.927  18.262  0.00  0.00    +0.000 N 
ATOM     14  C   UNL     1       3.788   2.521  18.671  0.00  0.00    +0.000 C 
ATOM     15  C   UNL     1       2.478   2.067  18.121  0.00  0.00    +0.000 C 
ATOM     16  C   UNL     1       1.414   2.826  18.911  0.00  0.00    +0.000 C 
ENDROOT
BRANCH   4  17
ATOM     17  C   UNL     1       2.238   7.398  19.326  0.00  0.00    +0.000 A 
ATOM     18  C   UNL     1       2.051   7.410  20.719  0.00  0.00    +0.000 A 
ATOM     19  C   UNL     1       1.225   8.357  21.335  0.00  0.00    +0.000 A 
ATOM     20  C   UNL     1       0.612   9.356  20.582  0.00  0.00    +0.000 A 
ATOM     21  C   UNL     1       0.833   9.417  19.207  0.00  0.00    +0.000 A 
ATOM     22  C   UNL     1       1.630   8.448  18.589  0.00  0.00    +0.000 A 
ENDBRANCH   4  17
TORSDOF 1
ENDMDL
MODEL 3
REMARK VINA RESULT:      -7.7      1.292      5.469
REMARK  Name = 
REMARK  2 active torsions:
REMARK  status: ('A' for Active; 'I' for Inactive)
REMARK    1  A    between atoms: C_1  and  N_2
REMARK    2  A    between atoms: C_4  and  C_5
REMARK                            x       y       z     vdW  Elec       q    Type
REMARK                         _______ _______ _______ _____ _____    ______ ____
ROOT
ATOM      1  C   UNL     1       4.473   2.204  18.856  0.00  0.00    +0.000 C 
ATOM      2  N   UNL     1       3.542   3.068  19.566  0.00  0.00    +0.000 N 
ATOM      3  C   UNL     1       3.046   4.221  19.155  0.00  0.00    +0.000 C 
ATOM      4  C   UNL     1       3.691   5.204  18.142  0.00  0.00    +0.000 C 
ATOM      5  N   UNL     1       3.371   6.484  18.278  0.00  0.00    +0.000 N 
ATOM      6  O   UNL     1       3.935   7.385  17.495  0.00  0.00    +0.000 OA
ATOM      7  C   UNL     1       2.437   6.974  19.249  0.00  0.00    +0.000 A 
ATOM      8  C   UNL     1       2.315   8.367  19.493  0.00  0.00    +0.000 A 
ATOM      9  C   UNL     1       1.402   8.850  20.446  0.00  0.00    +0.000 A 
ATOM     10  C   UNL     1       0.598   7.970  21.149  0.00  0.00    +0.000 A 
ATOM     11  C   UNL     1       0.723   6.617  20.926  0.00  0.00    +0.000 A 
ATOM     12  C   UNL     1       1.648   6.096  19.996  0.00  0.00    +0.000 A 
ATOM     13  N   UNL     1       1.886   4.709  19.842  0.00  0.00    +0.000 N 
ATOM     14  C   UNL     1       1.124   3.705  20.588  0.00  0.00    +0.000 C 
ATOM     15  C   UNL     1       2.085   3.287  21.650  0.00  0.00    +0.000 C 
ATOM     16  C   UNL     1       3.221   2.573  20.920  0.00  0.00    +0.000 C 
ENDROOT
BRANCH   4  17
ATOM     17  C   UNL     1       4.821   4.849  17.176  0.00  0.00    +0.000 A 
ATOM     18  C   UNL     1       6.168   4.969  17.561  0.00  0.00    +0.000 A 
ATOM     19  C   UNL     1       7.208   4.734  16.656  0.00  0.00    +0.000 A 
ATOM     20  C   UNL     1       6.932   4.312  15.357  0.00  0.00    +0.000 A 
ATOM     21  C   UNL     1       5.610   4.113  14.963  0.00  0.00    +0.000 A 
ATOM     22  C   UNL     1       4.570   4.384  15.859  0.00  0.00    +0.000 A 
ENDBRANCH   4  17
TORSDOF 1
ENDMDL
MODEL 4
REMARK VINA RESULT:      -7.6      1.297      5.415
REMARK  Name = 
REMARK  2 active torsions:
REMARK  status: ('A' for Active; 'I' for Inactive)
REMARK    1  A    between atoms: C_1  and  N_2
REMARK    2  A    between atoms: C_4  and  C_5
REMARK                            x       y       z     vdW  Elec       q    Type
REMARK                         _______ _______ _______ _____ _____    ______ ____
ROOT
ATOM      1  C   UNL     1       4.470   2.319  18.948  0.00  0.00    +0.000 C 
ATOM      2  N   UNL     1       3.524   3.177  19.644  0.00  0.00    +0.000 N 
ATOM      3  C   UNL     1       3.021   4.323  19.224  0.00  0.00    +0.000 C 
ATOM      4  C   UNL     1       3.667   5.307  18.212  0.00  0.00    +0.000 C 
ATOM      5  N   UNL     1       3.333   6.585  18.339  0.00  0.00    +0.000 N 
ATOM      6  O   UNL     1       3.896   7.487  17.558  0.00  0.00    +0.000 OA
ATOM      7  C   UNL     1       2.384   7.070  19.297  0.00  0.00    +0.000 A 
ATOM      8  C   UNL     1       2.247   8.463  19.533  0.00  0.00    +0.000 A 
ATOM      9  C   UNL     1       1.319   8.942  20.475  0.00  0.00    +0.000 A 
ATOM     10  C   UNL     1       0.516   8.057  21.173  0.00  0.00    +0.000 A 
ATOM     11  C   UNL     1       0.657   6.705  20.958  0.00  0.00    +0.000 A 
ATOM     12  C   UNL     1       1.596   6.188  20.040  0.00  0.00    +0.000 A 
ATOM     13  N   UNL     1       1.849   4.803  19.896  0.00  0.00    +0.000 N 
ATOM     14  C   UNL     1       1.089   3.795  20.638  0.00  0.00    +0.000 C 
ATOM     15  C   UNL     1       2.043   3.392  21.712  0.00  0.00    +0.000 C 
ATOM     16  C   UNL     1       3.193   2.685  20.998  0.00  0.00    +0.000 C 
ENDROOT
BRANCH   4  17
ATOM     17  C   UNL     1       4.811   4.959  17.260  0.00  0.00    +0.000 A 
ATOM     18  C   UNL     1       4.555   4.521  15.949  0.00  0.00    +0.000 A 
ATOM     19  C   UNL     1       5.591   4.114  15.102  0.00  0.00    +0.000 A 
ATOM     20  C   UNL     1       6.917   4.190  15.521  0.00  0.00    +0.000 A 
ATOM     21  C   UNL     1       7.212   4.687  16.790  0.00  0.00    +0.000 A 
ATOM     22  C   UNL     1       6.173   5.060  17.648  0.00  0.00    +0.000 A 
ENDBRANCH   4  17
TORSDOF 1
ENDMDL
MODEL 5
REMARK VINA RESULT:      -7.5      1.796      6.081
REMARK  Name = 
REMARK  2 active torsions:
REMARK  status: ('A' for Active; 'I' for Inactive)
REMARK    1  A    between atoms: C_1  and  N_2
REMARK    2  A    between atoms: C_4  and  C_5
REMARK                            x       y       z     vdW  Elec       q    Type
REMARK                         _______ _______ _______ _____ _____    ______ ____
ROOT
ATOM      1  C   UNL     1       4.650   7.640  16.480  0.00  0.00    +0.000 C 
ATOM      2  N   UNL     1       3.750   7.118  17.497  0.00  0.00    +0.000 N 
ATOM      3  C   UNL     1       3.786   5.927  18.065  0.00  0.00    +0.000 C 
ATOM      4  C   UNL     1       4.383   4.627  17.463  0.00  0.00    +0.000 C 
ATOM      5  N   UNL     1       3.853   3.486  17.884  0.00  0.00    +0.000 N 
ATOM      6  O   UNL     1       4.264   2.344  17.365  0.00  0.00    +0.000 OA
ATOM      7  C   UNL     1       2.829   3.403  18.884  0.00  0.00    +0.000 A 
ATOM      8  C   UNL     1       2.149   2.179  19.119  0.00  0.00    +0.000 A 
ATOM      9  C   UNL     1       1.143   2.095  20.097  0.00  0.00    +0.000 A 
ATOM     10  C   UNL     1       0.814   3.206  20.855  0.00  0.00    +0.000 A 
ATOM     11  C   UNL     1       1.461   4.398  20.620  0.00  0.00    +0.000 A 
ATOM     12  C   UNL     1       2.457   4.525  19.628  0.00  0.00    +0.000 A 
ATOM     13  N   UNL     1       3.044   5.766  19.281  0.00  0.00    +0.000 N 
ATOM     14  C   UNL     1       2.712   7.004  19.988  0.00  0.00    +0.000 C 
ATOM     15  C   UNL     1       1.794   7.691  19.034  0.00  0.00    +0.000 C 
ATOM     16  C   UNL     1       2.653   8.053  17.824  0.00  0.00    +0.000 C 
ENDROOT
BRANCH   4  17
ATOM     17  C   UNL     1       5.347   4.573  16.278  0.00  0.00    +0.000 A 
ATOM     18  C   UNL     1       6.717   4.838  16.446  0.00  0.00    +0.000 A 
ATOM     19  C   UNL     1       7.590   4.880  15.353  0.00  0.00    +0.000 A 
ATOM     20  C   UNL     1       7.128   4.597  14.069  0.00  0.00    +0.000 A 
ATOM     21  C   UNL     1       5.789   4.260  13.877  0.00  0.00    +0.000 A 
ATOM     22  C   UNL     1       4.911   4.254  14.965  0.00  0.00    +0.000 A 
ENDBRANCH   4  17
TORSDOF 1
ENDMDL
MODEL 6
REMARK VINA RESULT:      -7.3      1.779      6.022
REMARK  Name = 
REMARK  2 active torsions:
REMARK  status: ('A' for Active; 'I' for Inactive)
REMARK    1  A    between atoms: C_1  and  N_2
REMARK    2  A    between atoms: C_4  and  C_5
REMARK                            x       y       z     vdW  Elec       q    Type
REMARK                         _______ _______ _______ _____ _____    ______ ____
ROOT
ATOM      1  C   UNL     1       4.596   7.710  16.513  0.00  0.00    +0.000 C 
ATOM      2  N   UNL     1       3.705   7.167  17.528  0.00  0.00    +0.000 N 
ATOM      3  C   UNL     1       3.756   5.969  18.080  0.00  0.00    +0.000 C 
ATOM      4  C   UNL     1       4.362   4.682  17.459  0.00  0.00    +0.000 C 
ATOM      5  N   UNL     1       3.845   3.531  17.868  0.00  0.00    +0.000 N 
ATOM      6  O   UNL     1       4.264   2.400  17.332  0.00  0.00    +0.000 OA
ATOM      7  C   UNL     1       2.827   3.425  18.871  0.00  0.00    +0.000 A 
ATOM      8  C   UNL     1       2.159   2.192  19.094  0.00  0.00    +0.000 A 
ATOM      9  C   UNL     1       1.159   2.086  20.075  0.00  0.00    +0.000 A 
ATOM     10  C   UNL     1       0.823   3.184  20.849  0.00  0.00    +0.000 A 
ATOM     11  C   UNL     1       1.457   4.385  20.626  0.00  0.00    +0.000 A 
ATOM     12  C   UNL     1       2.447   4.534  19.631  0.00  0.00    +0.000 A 
ATOM     13  N   UNL     1       3.020   5.785  19.298  0.00  0.00    +0.000 N 
ATOM     14  C   UNL     1       2.680   7.011  20.022  0.00  0.00    +0.000 C 
ATOM     15  C   UNL     1       1.751   7.701  19.081  0.00  0.00    +0.000 C 
ATOM     16  C   UNL     1       2.601   8.086  17.872  0.00  0.00    +0.000 C 
ENDROOT
BRANCH   4  17
ATOM     17  C   UNL     1       5.321   4.652  16.270  0.00  0.00    +0.000 A 
ATOM     18  C   UNL     1       4.861   4.349  14.976  0.00  0.00    +0.000 A 
ATOM     19  C   UNL     1       5.745   4.231  13.898  0.00  0.00    +0.000 A 
ATOM     20  C   UNL     1       7.106   4.472  14.071  0.00  0.00    +0.000 A 
ATOM     21  C   UNL     1       7.586   4.845  15.325  0.00  0.00    +0.000 A 
ATOM     22  C   UNL     1       6.706   4.927  16.409  0.00  0.00    +0.000 A 
ENDBRANCH   4  17
TORSDOF 1
ENDMDL
MODEL 7
REMARK VINA RESULT:      -7.3      6.618     10.577
REMARK  Name = 
REMARK  2 active torsions:
REMARK  status: ('A' for Active; 'I' for Inactive)
REMARK    1  A    between atoms: C_1  and  N_2
REMARK    2  A    between atoms: C_4  and  C_5
REMARK                            x       y       z     vdW  Elec       q    Type
REMARK                         _______ _______ _______ _____ _____    ______ ____
ROOT
ATOM      1  C   UNL     1      -2.714  11.359  17.377  0.00  0.00    +0.000 C 
ATOM      2  N   UNL     1      -3.626  11.711  18.456  0.00  0.00    +0.000 N 
ATOM      3  C   UNL     1      -3.317  12.234  19.627  0.00  0.00    +0.000 C 
ATOM      4  C   UNL     1      -1.963  12.106  20.376  0.00  0.00    +0.000 C 
ATOM      5  N   UNL     1      -2.012  12.189  21.699  0.00  0.00    +0.000 N 
ATOM      6  O   UNL     1      -0.910  12.021  22.405  0.00  0.00    +0.000 OA
ATOM      7  C   UNL     1      -3.213  12.445  22.439  0.00  0.00    +0.000 A 
ATOM      8  C   UNL     1      -3.237  12.293  23.850  0.00  0.00    +0.000 A 
ATOM      9  C   UNL     1      -4.414  12.541  24.577  0.00  0.00    +0.000 A 
ATOM     10  C   UNL     1      -5.562  12.954  23.924  0.00  0.00    +0.000 A 
ATOM     11  C   UNL     1      -5.547  13.089  22.554  0.00  0.00    +0.000 A 
ATOM     12  C   UNL     1      -4.391  12.822  21.790  0.00  0.00    +0.000 A 
ATOM     13  N   UNL     1      -4.386  12.830  20.374  0.00  0.00    +0.000 N 
ATOM     14  C   UNL     1      -5.572  13.195  19.597  0.00  0.00    +0.000 C 
ATOM     15  C   UNL     1      -6.081  11.872  19.134  0.00  0.00    +0.000 C 
ATOM     16  C   UNL     1      -5.027  11.341  18.165  0.00  0.00    +0.000 C 
ENDROOT
BRANCH   4  17
ATOM     17  C   UNL     1      -0.647  11.667  19.736  0.00  0.00    +0.000 A 
ATOM     18  C   UNL     1       0.273  12.611  19.248  0.00  0.00    +0.000 A 
ATOM     19  C   UNL     1       1.437  12.216  18.580  0.00  0.00    +0.000 A 
ATOM     20  C   UNL     1       1.744  10.865  18.435  0.00  0.00    +0.000 A 
ATOM     21  C   UNL     1       0.890   9.903  18.970  0.00  0.00    +0.000 A 
ATOM     22  C   UNL     1      -0.291  10.299  19.605  0.00  0.00    +0.000 A 
ENDBRANCH   4  17
TORSDOF 1
ENDMDL
MODEL 8
REMARK VINA RESULT:      -7.2      6.822     10.678
REMARK  Name = 
REMARK  2 active torsions:
REMARK  status: ('A' for Active; 'I' for Inactive)
REMARK    1  A    between atoms: C_1  and  N_2
REMARK    2  A    between atoms: C_4  and  C_5
REMARK                            x       y       z     vdW  Elec       q    Type
REMARK                         _______ _______ _______ _____ _____    ______ ____
ROOT
ATOM      1  C   UNL     1      -2.874  11.393  17.335  0.00  0.00    +0.000 C 
ATOM      2  N   UNL     1      -3.782  11.695  18.432  0.00  0.00    +0.000 N 
ATOM      3  C   UNL     1      -3.482  12.254  19.589  0.00  0.00    +0.000 C 
ATOM      4  C   UNL     1      -2.106  12.227  20.307  0.00  0.00    +0.000 C 
ATOM      5  N   UNL     1      -2.130  12.323  21.630  0.00  0.00    +0.000 N 
ATOM      6  O   UNL     1      -1.003  12.239  22.311  0.00  0.00    +0.000 OA
ATOM      7  C   UNL     1      -3.328  12.507  22.395  0.00  0.00    +0.000 A 
ATOM      8  C   UNL     1      -3.309  12.370  23.808  0.00  0.00    +0.000 A 
ATOM      9  C   UNL     1      -4.483  12.547  24.561  0.00  0.00    +0.000 A 
ATOM     10  C   UNL     1      -5.671  12.873  23.931  0.00  0.00    +0.000 A 
ATOM     11  C   UNL     1      -5.697  12.991  22.559  0.00  0.00    +0.000 A 
ATOM     12  C   UNL     1      -4.544  12.794  21.771  0.00  0.00    +0.000 A 
ATOM     13  N   UNL     1      -4.573  12.784  20.355  0.00  0.00    +0.000 N 
ATOM     14  C   UNL     1      -5.798  13.059  19.603  0.00  0.00    +0.000 C 
ATOM     15  C   UNL     1      -6.226  11.698  19.166  0.00  0.00    +0.000 C 
ATOM     16  C   UNL     1      -5.161  11.228  18.179  0.00  0.00    +0.000 C 
ENDROOT
BRANCH   4  17
ATOM     17  C   UNL     1      -0.778  11.870  19.641  0.00  0.00    +0.000 A 
ATOM     18  C   UNL     1      -0.356  10.533  19.538  0.00  0.00    +0.000 A 
ATOM     19  C   UNL     1       0.898  10.204  19.011  0.00  0.00    +0.000 A 
ATOM     20  C   UNL     1       1.739  11.198  18.517  0.00  0.00    +0.000 A 
ATOM     21  C   UNL     1       1.322  12.528  18.537  0.00  0.00    +0.000 A 
ATOM     22  C   UNL     1       0.084  12.858  19.097  0.00  0.00    +0.000 A 
ENDBRANCH   4  17
TORSDOF 1
ENDMDL
MODEL 9
REMARK VINA RESULT:      -7.0      6.893      9.329
REMARK  Name = 
REMARK  2 active torsions:
REMARK  status: ('A' for Active; 'I' for Inactive)
REMARK    1  A    between atoms: C_1  and  N_2
REMARK    2  A    between atoms: C_4  and  C_5
REMARK                            x       y       z     vdW  Elec       q    Type
REMARK                         _______ _______ _______ _____ _____    ______ ____
ROOT
ATOM      1  C   UNL     1      -1.165  12.200  22.984  0.00  0.00    +0.000 C 
ATOM      2  N   UNL     1      -1.090  11.562  21.678  0.00  0.00    +0.000 N 
ATOM      3  C   UNL     1      -1.745  11.898  20.583  0.00  0.00    +0.000 C 
ATOM      4  C   UNL     1      -3.108  12.638  20.504  0.00  0.00    +0.000 C 
ATOM      5  N   UNL     1      -3.850  12.393  19.431  0.00  0.00    +0.000 N 
ATOM      6  O   UNL     1      -5.049  12.934  19.330  0.00  0.00    +0.000 OA
ATOM      7  C   UNL     1      -3.433  11.551  18.348  0.00  0.00    +0.000 A 
ATOM      8  C   UNL     1      -4.359  11.151  17.350  0.00  0.00    +0.000 A 
ATOM      9  C   UNL     1      -3.954  10.323  16.288  0.00  0.00    +0.000 A 
ATOM     10  C   UNL     1      -2.639   9.901  16.197  0.00  0.00    +0.000 A 
ATOM     11  C   UNL     1      -1.741  10.275  17.171  0.00  0.00    +0.000 A 
ATOM     12  C   UNL     1      -2.120  11.083  18.265  0.00  0.00    +0.000 A 
ATOM     13  N   UNL     1      -1.250  11.374  19.343  0.00  0.00    +0.000 N 
ATOM     14  C   UNL     1       0.142  10.919  19.362  0.00  0.00    +0.000 C 
ATOM     15  C   UNL     1       0.096   9.766  20.307  0.00  0.00    +0.000 C 
ATOM     16  C   UNL     1      -0.222  10.366  21.674  0.00  0.00    +0.000 C 
ENDROOT
BRANCH   4  17
ATOM     17  C   UNL     1      -3.746  13.421  21.650  0.00  0.00    +0.000 A 
ATOM     18  C   UNL     1      -4.610  12.793  22.564  0.00  0.00    +0.000 A 
ATOM     19  C   UNL     1      -5.269  13.520  23.561  0.00  0.00    +0.000 A 
ATOM     20  C   UNL     1      -5.036  14.886  23.710  0.00  0.00    +0.000 A 
ATOM     21  C   UNL     1      -4.131  15.527  22.866  0.00  0.00    +0.000 A 
ATOM     22  C   UNL     1      -3.501  14.806  21.848  0.00  0.00    +0.000 A 
ENDBRANCH   4  17
TORSDOF 1
ENDMDL
