MODEL 1
REMARK VINA RESULT:      -5.9      0.000      0.000
REMARK  Name = 
REMARK  8 active torsions:
REMARK  status: ('A' for Active; 'I' for Inactive)
REMARK    1  A    between atoms: C_1  and  C_2
REMARK    2  A    between atoms: C_2  and  N_3
REMARK    3  A    between atoms: N_3  and  C_4
REMARK    4  A    between atoms: N_3  and  C_6
REMARK    5  A    between atoms: C_4  and  C_5
REMARK    6  A    between atoms: C_9  and  C_10
REMARK    7  A    between atoms: C_12  and  O_13
REMARK    8  A    between atoms: O_13  and  C_14
REMARK                            x       y       z     vdW  Elec       q    Type
REMARK                         _______ _______ _______ _____ _____    ______ ____
ROOT
ATOM      1  C   UNL     1       3.827   3.897  18.613  0.00  0.00    +0.000 A 
ATOM      2  C   UNL     1       3.612   3.901  17.229  0.00  0.00    +0.000 A 
ATOM      3  C   UNL     1       4.652   4.149  16.333  0.00  0.00    +0.000 A 
ATOM      4  C   UNL     1       5.943   4.399  16.809  0.00  0.00    +0.000 A 
ATOM      5  C   UNL     1       6.205   4.388  18.184  0.00  0.00    +0.000 A 
ATOM      6  C   UNL     1       5.141   4.134  19.064  0.00  0.00    +0.000 A 
ENDROOT
BRANCH   4   7
ATOM      7  C   UNL     1       7.022   4.680  15.837  0.00  0.00    +0.000 C 
ATOM      8  O   UNL     1       7.361   5.824  15.556  0.00  0.00    +0.000 OA
ENDBRANCH   4   7
BRANCH   5   9
ATOM      9  O   UNL     1       7.495   4.625  18.577  0.00  0.00    +0.000 OA
ATOM     10  C   UNL     1       7.777   5.869  19.210  0.00  0.00    +0.000 C 
ENDBRANCH   5   9
BRANCH   1  11
ATOM     11  N   UNL     1       2.760   3.680  19.496  0.00  0.00    +0.000 N 
BRANCH  11  13
ATOM     12  C   UNL     1       2.167   6.016  20.121  0.00  0.00    +0.000 C 
ATOM     13  C   UNL     1       1.691   4.689  19.547  0.00  0.00    +0.000 C 
ENDBRANCH  11  13
BRANCH  11  14
ATOM     14  C   UNL     1       3.055   2.898  20.711  0.00  0.00    +0.000 C 
ATOM     15  C   UNL     1       1.817   2.599  21.549  0.00  0.00    +0.000 C 
ENDBRANCH  11  14
ENDBRANCH   1  11
TORSDOF 5
ENDMDL
MODEL 2
REMARK VINA RESULT:      -5.6      0.788      1.644
REMARK  Name = 
REMARK  8 active torsions:
REMARK  status: ('A' for Active; 'I' for Inactive)
REMARK    1  A    between atoms: C_1  and  C_2
REMARK    2  A    between atoms: C_2  and  N_3
REMARK    3  A    between atoms: N_3  and  C_4
REMARK    4  A    between atoms: N_3  and  C_6
REMARK    5  A    between atoms: C_4  and  C_5
REMARK    6  A    between atoms: C_9  and  C_10
REMARK    7  A    between atoms: C_12  and  O_13
REMARK    8  A    between atoms: O_13  and  C_14
REMARK                            x       y       z     vdW  Elec       q    Type
REMARK                         _______ _______ _______ _____ _____    ______ ____
ROOT
ATOM      1  C   UNL     1       4.055   3.886  18.674  0.00  0.00    +0.000 A 
ATOM      2  C   UNL     1       3.756   3.835  17.306  0.00  0.00    +0.000 A 
ATOM      3  C   UNL     1       4.730   4.086  16.340  0.00  0.00    +0.000 A 
ATOM      4  C   UNL     1       6.038   4.394  16.725  0.00  0.00    +0.000 A 
ATOM      5  C   UNL     1       6.384   4.439  18.081  0.00  0.00    +0.000 A 
ATOM      6  C   UNL     1       5.386   4.180  19.034  0.00  0.00    +0.000 A 
ENDROOT
BRANCH   4   7
ATOM      7  C   UNL     1       7.044   4.676  15.679  0.00  0.00    +0.000 C 
ATOM      8  O   UNL     1       7.268   5.815  15.283  0.00  0.00    +0.000 OA
ENDBRANCH   4   7
BRANCH   5   9
ATOM      9  O   UNL     1       7.687   4.731  18.384  0.00  0.00    +0.000 OA
ATOM     10  C   UNL     1       7.946   5.932  19.102  0.00  0.00    +0.000 C 
ENDBRANCH   5   9
BRANCH   1  11
ATOM     11  N   UNL     1       3.053   3.665  19.629  0.00  0.00    +0.000 N 
BRANCH  11  13
ATOM     12  C   UNL     1       0.742   2.814  19.268  0.00  0.00    +0.000 C 
ATOM     13  C   UNL     1       2.209   2.470  19.480  0.00  0.00    +0.000 C 
ENDBRANCH  11  13
BRANCH  11  14
ATOM     14  C   UNL     1       2.481   4.861  20.276  0.00  0.00    +0.000 C 
ATOM     15  C   UNL     1       2.501   6.095  19.382  0.00  0.00    +0.000 C 
ENDBRANCH  11  14
ENDBRANCH   1  11
TORSDOF 5
ENDMDL
MODEL 3
REMARK VINA RESULT:      -5.6      1.728      3.008
REMARK  Name = 
REMARK  8 active torsions:
REMARK  status: ('A' for Active; 'I' for Inactive)
REMARK    1  A    between atoms: C_1  and  C_2
REMARK    2  A    between atoms: C_2  and  N_3
REMARK    3  A    between atoms: N_3  and  C_4
REMARK    4  A    between atoms: N_3  and  C_6
REMARK    5  A    between atoms: C_4  and  C_5
REMARK    6  A    between atoms: C_9  and  C_10
REMARK    7  A    between atoms: C_12  and  O_13
REMARK    8  A    between atoms: O_13  and  C_14
REMARK                            x       y       z     vdW  Elec       q    Type
REMARK                         _______ _______ _______ _____ _____    ______ ____
ROOT
ATOM      1  C   UNL     1       3.969   4.413  18.181  0.00  0.00    +0.000 A 
ATOM      2  C   UNL     1       4.749   4.932  19.222  0.00  0.00    +0.000 A 
ATOM      3  C   UNL     1       5.883   5.703  18.966  0.00  0.00    +0.000 A 
ATOM      4  C   UNL     1       6.263   5.976  17.649  0.00  0.00    +0.000 A 
ATOM      5  C   UNL     1       5.503   5.490  16.578  0.00  0.00    +0.000 A 
ATOM      6  C   UNL     1       4.365   4.719  16.863  0.00  0.00    +0.000 A 
ENDROOT
BRANCH   4   7
ATOM      7  C   UNL     1       7.482   6.778  17.407  0.00  0.00    +0.000 C 
ATOM      8  O   UNL     1       7.431   7.980  17.167  0.00  0.00    +0.000 OA
ENDBRANCH   4   7
BRANCH   5   9
ATOM      9  O   UNL     1       5.926   5.810  15.315  0.00  0.00    +0.000 OA
ATOM     10  C   UNL     1       6.456   4.763  14.510  0.00  0.00    +0.000 C 
ENDBRANCH   5   9
BRANCH   1  11
ATOM     11  N   UNL     1       2.854   3.611  18.460  0.00  0.00    +0.000 N 
BRANCH  11  13
ATOM     12  C   UNL     1       3.705   1.271  18.470  0.00  0.00    +0.000 C 
ATOM     13  C   UNL     1       2.778   2.289  17.820  0.00  0.00    +0.000 C 
ENDBRANCH  11  13
BRANCH  11  14
ATOM     14  C   UNL     1       1.600   4.313  18.789  0.00  0.00    +0.000 C 
ATOM     15  C   UNL     1       1.078   3.988  20.184  0.00  0.00    +0.000 C 
ENDBRANCH  11  14
ENDBRANCH   1  11
TORSDOF 5
ENDMDL
MODEL 4
REMARK VINA RESULT:      -5.5      3.007      5.506
REMARK  Name = 
REMARK  8 active torsions:
REMARK  status: ('A' for Active; 'I' for Inactive)
REMARK    1  A    between atoms: C_1  and  C_2
REMARK    2  A    between atoms: C_2  and  N_3
REMARK    3  A    between atoms: N_3  and  C_4
REMARK    4  A    between atoms: N_3  and  C_6
REMARK    5  A    between atoms: C_4  and  C_5
REMARK    6  A    between atoms: C_9  and  C_10
REMARK    7  A    between atoms: C_12  and  O_13
REMARK    8  A    between atoms: O_13  and  C_14
REMARK                            x       y       z     vdW  Elec       q    Type
REMARK                         _______ _______ _______ _____ _____    ______ ____
ROOT
ATOM      1  C   UNL     1       4.638   5.230  17.153  0.00  0.00    +0.000 A 
ATOM      2  C   UNL     1       3.613   6.039  17.661  0.00  0.00    +0.000 A 
ATOM      3  C   UNL     1       2.432   5.489  18.158  0.00  0.00    +0.000 A 
ATOM      4  C   UNL     1       2.250   4.102  18.160  0.00  0.00    +0.000 A 
ATOM      5  C   UNL     1       3.255   3.257  17.677  0.00  0.00    +0.000 A 
ATOM      6  C   UNL     1       4.436   3.835  17.184  0.00  0.00    +0.000 A 
ENDROOT
BRANCH   4   7
ATOM      7  C   UNL     1       0.979   3.548  18.673  0.00  0.00    +0.000 C 
ATOM      8  O   UNL     1       0.824   3.266  19.856  0.00  0.00    +0.000 OA
ENDBRANCH   4   7
BRANCH   5   9
ATOM      9  O   UNL     1       3.015   1.909  17.724  0.00  0.00    +0.000 OA
ATOM     10  C   UNL     1       3.770   1.135  18.651  0.00  0.00    +0.000 C 
ENDBRANCH   5   9
BRANCH   1  11
ATOM     11  N   UNL     1       5.802   5.806  16.626  0.00  0.00    +0.000 N 
BRANCH  11  13
ATOM     12  C   UNL     1       6.921   4.823  14.632  0.00  0.00    +0.000 C 
ATOM     13  C   UNL     1       6.863   4.905  16.150  0.00  0.00    +0.000 C 
ENDBRANCH  11  13
BRANCH  11  14
ATOM     14  C   UNL     1       6.180   7.132  17.150  0.00  0.00    +0.000 C 
ATOM     15  C   UNL     1       7.618   7.192  17.652  0.00  0.00    +0.000 C 
ENDBRANCH  11  14
ENDBRANCH   1  11
TORSDOF 5
ENDMDL
MODEL 5
REMARK VINA RESULT:      -5.5      1.200      1.471
REMARK  Name = 
REMARK  8 active torsions:
REMARK  status: ('A' for Active; 'I' for Inactive)
REMARK    1  A    between atoms: C_1  and  C_2
REMARK    2  A    between atoms: C_2  and  N_3
REMARK    3  A    between atoms: N_3  and  C_4
REMARK    4  A    between atoms: N_3  and  C_6
REMARK    5  A    between atoms: C_4  and  C_5
REMARK    6  A    between atoms: C_9  and  C_10
REMARK    7  A    between atoms: C_12  and  O_13
REMARK    8  A    between atoms: O_13  and  C_14
REMARK                            x       y       z     vdW  Elec       q    Type
REMARK                         _______ _______ _______ _____ _____    ______ ____
ROOT
ATOM      1  C   UNL     1       3.651   4.110  18.529  0.00  0.00    +0.000 A 
ATOM      2  C   UNL     1       3.702   3.645  17.208  0.00  0.00    +0.000 A 
ATOM      3  C   UNL     1       4.723   4.034  16.341  0.00  0.00    +0.000 A 
ATOM      4  C   UNL     1       5.725   4.904  16.781  0.00  0.00    +0.000 A 
ATOM      5  C   UNL     1       5.721   5.379  18.098  0.00  0.00    +0.000 A 
ATOM      6  C   UNL     1       4.685   4.971  18.952  0.00  0.00    +0.000 A 
ENDROOT
BRANCH   4   7
ATOM      7  C   UNL     1       6.783   5.315  15.833  0.00  0.00    +0.000 C 
ATOM      8  O   UNL     1       7.806   4.658  15.675  0.00  0.00    +0.000 OA
ENDBRANCH   4   7
BRANCH   5   9
ATOM      9  O   UNL     1       6.743   6.214  18.465  0.00  0.00    +0.000 OA
ATOM     10  C   UNL     1       7.741   5.694  19.337  0.00  0.00    +0.000 C 
ENDBRANCH   5   9
BRANCH   1  11
ATOM     11  N   UNL     1       2.597   3.735  19.374  0.00  0.00    +0.000 N 
BRANCH  11  13
ATOM     12  C   UNL     1       2.148   3.398  21.799  0.00  0.00    +0.000 C 
ATOM     13  C   UNL     1       2.507   4.380  20.692  0.00  0.00    +0.000 C 
ENDBRANCH  11  13
BRANCH  11  14
ATOM     14  C   UNL     1       2.082   2.361  19.219  0.00  0.00    +0.000 C 
ATOM     15  C   UNL     1       0.638   2.312  18.733  0.00  0.00    +0.000 C 
ENDBRANCH  11  14
ENDBRANCH   1  11
TORSDOF 5
ENDMDL
MODEL 6
REMARK VINA RESULT:      -5.5      2.912      5.495
REMARK  Name = 
REMARK  8 active torsions:
REMARK  status: ('A' for Active; 'I' for Inactive)
REMARK    1  A    between atoms: C_1  and  C_2
REMARK    2  A    between atoms: C_2  and  N_3
REMARK    3  A    between atoms: N_3  and  C_4
REMARK    4  A    between atoms: N_3  and  C_6
REMARK    5  A    between atoms: C_4  and  C_5
REMARK    6  A    between atoms: C_9  and  C_10
REMARK    7  A    between atoms: C_12  and  O_13
REMARK    8  A    between atoms: O_13  and  C_14
REMARK                            x       y       z     vdW  Elec       q    Type
REMARK                         _______ _______ _______ _____ _____    ______ ____
ROOT
ATOM      1  C   UNL     1       4.731   4.650  18.797  0.00  0.00    +0.000 A 
ATOM      2  C   UNL     1       4.493   3.279  18.965  0.00  0.00    +0.000 A 
ATOM      3  C   UNL     1       3.402   2.816  19.699  0.00  0.00    +0.000 A 
ATOM      4  C   UNL     1       2.514   3.724  20.285  0.00  0.00    +0.000 A 
ATOM      5  C   UNL     1       2.705   5.101  20.129  0.00  0.00    +0.000 A 
ATOM      6  C   UNL     1       3.810   5.542  19.383  0.00  0.00    +0.000 A 
ENDROOT
BRANCH   4   7
ATOM      7  C   UNL     1       1.377   3.204  21.075  0.00  0.00    +0.000 C 
ATOM      8  O   UNL     1       1.542   2.604  22.132  0.00  0.00    +0.000 OA
ENDBRANCH   4   7
BRANCH   5   9
ATOM      9  O   UNL     1       1.787   5.931  20.716  0.00  0.00    +0.000 OA
ATOM     10  C   UNL     1       1.796   7.303  20.334  0.00  0.00    +0.000 C 
ENDBRANCH   5   9
BRANCH   1  11
ATOM     11  N   UNL     1       5.854   5.094  18.085  0.00  0.00    +0.000 N 
BRANCH  11  13
ATOM     12  C   UNL     1       5.402   5.245  15.642  0.00  0.00    +0.000 C 
ATOM     13  C   UNL     1       6.112   4.501  16.764  0.00  0.00    +0.000 C 
ENDBRANCH  11  13
BRANCH  11  14
ATOM     14  C   UNL     1       6.999   5.569  18.885  0.00  0.00    +0.000 C 
ATOM     15  C   UNL     1       7.728   6.747  18.248  0.00  0.00    +0.000 C 
ENDBRANCH  11  14
ENDBRANCH   1  11
TORSDOF 5
ENDMDL
MODEL 7
REMARK VINA RESULT:      -5.5      2.779      5.400
REMARK  Name = 
REMARK  8 active torsions:
REMARK  status: ('A' for Active; 'I' for Inactive)
REMARK    1  A    between atoms: C_1  and  C_2
REMARK    2  A    between atoms: C_2  and  N_3
REMARK    3  A    between atoms: N_3  and  C_4
REMARK    4  A    between atoms: N_3  and  C_6
REMARK    5  A    between atoms: C_4  and  C_5
REMARK    6  A    between atoms: C_9  and  C_10
REMARK    7  A    between atoms: C_12  and  O_13
REMARK    8  A    between atoms: O_13  and  C_14
REMARK                            x       y       z     vdW  Elec       q    Type
REMARK                         _______ _______ _______ _____ _____    ______ ____
ROOT
ATOM      1  C   UNL     1       4.661   5.607  18.301  0.00  0.00    +0.000 A 
ATOM      2  C   UNL     1       3.649   6.296  18.983  0.00  0.00    +0.000 A 
ATOM      3  C   UNL     1       2.768   5.633  19.837  0.00  0.00    +0.000 A 
ATOM      4  C   UNL     1       2.883   4.254  20.032  0.00  0.00    +0.000 A 
ATOM      5  C   UNL     1       3.890   3.529  19.383  0.00  0.00    +0.000 A 
ATOM      6  C   UNL     1       4.765   4.220  18.530  0.00  0.00    +0.000 A 
ENDROOT
BRANCH   4   7
ATOM      7  C   UNL     1       1.922   3.574  20.927  0.00  0.00    +0.000 C 
ATOM      8  O   UNL     1       2.169   3.371  22.111  0.00  0.00    +0.000 OA
ENDBRANCH   4   7
BRANCH   5   9
ATOM      9  O   UNL     1       3.953   2.184  19.633  0.00  0.00    +0.000 OA
ATOM     10  C   UNL     1       3.747   1.297  18.539  0.00  0.00    +0.000 C 
ENDBRANCH   5   9
BRANCH   1  11
ATOM     11  N   UNL     1       5.513   6.287  17.420  0.00  0.00    +0.000 N 
BRANCH  11  13
ATOM     12  C   UNL     1       5.658   5.360  15.114  0.00  0.00    +0.000 C 
ATOM     13  C   UNL     1       5.081   6.437  16.022  0.00  0.00    +0.000 C 
ENDBRANCH  11  13
BRANCH  11  14
ATOM     14  C   UNL     1       6.957   6.222  17.713  0.00  0.00    +0.000 C 
ATOM     15  C   UNL     1       7.650   7.576  17.621  0.00  0.00    +0.000 C 
ENDBRANCH  11  14
ENDBRANCH   1  11
TORSDOF 5
ENDMDL
MODEL 8
REMARK VINA RESULT:      -5.4      2.998      5.510
REMARK  Name = 
REMARK  8 active torsions:
REMARK  status: ('A' for Active; 'I' for Inactive)
REMARK    1  A    between atoms: C_1  and  C_2
REMARK    2  A    between atoms: C_2  and  N_3
REMARK    3  A    between atoms: N_3  and  C_4
REMARK    4  A    between atoms: N_3  and  C_6
REMARK    5  A    between atoms: C_4  and  C_5
REMARK    6  A    between atoms: C_9  and  C_10
REMARK    7  A    between atoms: C_12  and  O_13
REMARK    8  A    between atoms: O_13  and  C_14
REMARK                            x       y       z     vdW  Elec       q    Type
REMARK                         _______ _______ _______ _____ _____    ______ ____
ROOT
ATOM      1  C   UNL     1       4.114   5.040  17.443  0.00  0.00    +0.000 A 
ATOM      2  C   UNL     1       3.510   3.793  17.236  0.00  0.00    +0.000 A 
ATOM      3  C   UNL     1       2.453   3.357  18.034  0.00  0.00    +0.000 A 
ATOM      4  C   UNL     1       1.970   4.168  19.065  0.00  0.00    +0.000 A 
ATOM      5  C   UNL     1       2.534   5.428  19.296  0.00  0.00    +0.000 A 
ATOM      6  C   UNL     1       3.596   5.845  18.478  0.00  0.00    +0.000 A 
ENDROOT
BRANCH   4   7
ATOM      7  C   UNL     1       0.862   3.671  19.909  0.00  0.00    +0.000 C 
ATOM      8  O   UNL     1       1.060   2.968  20.893  0.00  0.00    +0.000 OA
ENDBRANCH   4   7
BRANCH   5   9
ATOM      9  O   UNL     1       2.001   6.176  20.313  0.00  0.00    +0.000 OA
ATOM     10  C   UNL     1       1.931   7.586  20.130  0.00  0.00    +0.000 C 
ENDBRANCH   5   9
BRANCH   1  11
ATOM     11  N   UNL     1       5.199   5.443  16.652  0.00  0.00    +0.000 N 
BRANCH  11  13
ATOM     12  C   UNL     1       6.168   4.438  14.591  0.00  0.00    +0.000 C 
ATOM     13  C   UNL     1       6.083   4.400  16.111  0.00  0.00    +0.000 C 
ENDBRANCH  11  13
BRANCH  11  14
ATOM     14  C   UNL     1       5.765   6.776  16.935  0.00  0.00    +0.000 C 
ATOM     15  C   UNL     1       7.185   6.720  17.487  0.00  0.00    +0.000 C 
ENDBRANCH  11  14
ENDBRANCH   1  11
TORSDOF 5
ENDMDL
MODEL 9
REMARK VINA RESULT:      -5.4      1.591      2.766
REMARK  Name = 
REMARK  8 active torsions:
REMARK  status: ('A' for Active; 'I' for Inactive)
REMARK    1  A    between atoms: C_1  and  C_2
REMARK    2  A    between atoms: C_2  and  N_3
REMARK    3  A    between atoms: N_3  and  C_4
REMARK    4  A    between atoms: N_3  and  C_6
REMARK    5  A    between atoms: C_4  and  C_5
REMARK    6  A    between atoms: C_9  and  C_10
REMARK    7  A    between atoms: C_12  and  O_13
REMARK    8  A    between atoms: O_13  and  C_14
REMARK                            x       y       z     vdW  Elec       q    Type
REMARK                         _______ _______ _______ _____ _____    ______ ____
ROOT
ATOM      1  C   UNL     1       3.542   4.398  18.346  0.00  0.00    +0.000 A 
ATOM      2  C   UNL     1       4.442   4.835  19.327  0.00  0.00    +0.000 A 
ATOM      3  C   UNL     1       5.644   5.456  18.986  0.00  0.00    +0.000 A 
ATOM      4  C   UNL     1       5.973   5.658  17.642  0.00  0.00    +0.000 A 
ATOM      5  C   UNL     1       5.095   5.252  16.630  0.00  0.00    +0.000 A 
ATOM      6  C   UNL     1       3.891   4.631  16.999  0.00  0.00    +0.000 A 
ENDROOT
BRANCH   4   7
ATOM      7  C   UNL     1       7.262   6.301  17.310  0.00  0.00    +0.000 C 
ATOM      8  O   UNL     1       7.352   7.505  17.097  0.00  0.00    +0.000 OA
ENDBRANCH   4   7
BRANCH   5   9
ATOM      9  O   UNL     1       5.475   5.497  15.337  0.00  0.00    +0.000 OA
ATOM     10  C   UNL     1       5.713   4.375  14.494  0.00  0.00    +0.000 C 
ENDBRANCH   5   9
BRANCH   1  11
ATOM     11  N   UNL     1       2.357   3.744  18.709  0.00  0.00    +0.000 N 
BRANCH  11  13
ATOM     12  C   UNL     1       1.231   3.017  20.807  0.00  0.00    +0.000 C 
ATOM     13  C   UNL     1       1.676   4.183  19.936  0.00  0.00    +0.000 C 
ENDBRANCH  11  13
BRANCH  11  14
ATOM     14  C   UNL     1       2.222   2.337  18.288  0.00  0.00    +0.000 C 
ATOM     15  C   UNL     1       3.500   1.528  18.478  0.00  0.00    +0.000 C 
ENDBRANCH  11  14
ENDBRANCH   1  11
TORSDOF 5
ENDMDL
