MODEL 1
REMARK VINA RESULT:      -7.4      0.000      0.000
REMARK  Name = 
REMARK  5 active torsions:
REMARK  status: ('A' for Active; 'I' for Inactive)
REMARK    1  A    between atoms: N_1  and  C_2
REMARK    2  A    between atoms: C_11  and  C_13
REMARK    3  A    between atoms: C_13  and  N_14
REMARK    4  A    between atoms: C_13  and  C_15
REMARK    5  A    between atoms: C_15  and  C_16
REMARK                            x       y       z     vdW  Elec       q    Type
REMARK                         _______ _______ _______ _____ _____    ______ ____
ROOT
ATOM      1  C   UNL     1      -1.750  11.886  19.702  0.00  0.00    +0.000 A 
ATOM      2  N   UNL     1      -1.579  12.496  20.882  0.00  0.00    +0.000 NA
ATOM      3  C   UNL     1      -0.561  12.054  21.626  0.00  0.00    +0.000 A 
ATOM      4  N   UNL     1       0.293  11.070  21.300  0.00  0.00    +0.000 NA
ATOM      5  C   UNL     1       0.123  10.478  20.100  0.00  0.00    +0.000 A 
ATOM      6  N   UNL     1       0.930   9.392  19.803  0.00  0.00    +0.000 N 
ATOM      7  C   UNL     1       1.478   8.601  20.915  0.00  0.00    +0.000 C 
ATOM      8  C   UNL     1       1.657   7.156  20.405  0.00  0.00    +0.000 C 
ATOM      9  N   UNL     1       2.460   7.111  19.171  0.00  0.00    +0.000 N 
ATOM     10  C   UNL     1       3.494   6.191  19.080  0.00  0.00    +0.000 C 
ATOM     11  O   UNL     1       3.842   5.521  20.053  0.00  0.00    +0.000 OA
ATOM     12  C   UNL     1       2.004   8.026  18.105  0.00  0.00    +0.000 C 
ATOM     13  C   UNL     1       1.840   9.462  18.652  0.00  0.00    +0.000 C 
ATOM     14  C   UNL     1      -0.911  10.876  19.248  0.00  0.00    +0.000 A 
ATOM     15 BR   UNL     1      -1.339   9.968  17.622  0.00  0.00    +0.000 Br
ENDROOT
BRANCH   1  16
ATOM     16  N   UNL     1      -2.819  12.361  18.937  0.00  0.00    +0.000 N 
ATOM     17  H   UNL     1      -3.678  12.210  19.458  0.00  0.00    +0.000 HD
ATOM     18  H   UNL     1      -2.836  11.943  18.012  0.00  0.00    +0.000 HD
ENDBRANCH   1  16
BRANCH  10  19
ATOM     19  C   UNL     1       4.306   6.136  17.761  0.00  0.00    +0.000 C 
BRANCH  19  20
ATOM     20  N   UNL     1       5.725   5.894  18.133  0.00  0.00    +0.000 NA
ATOM     21  H   UNL     1       6.117   6.795  18.428  0.00  0.00    +0.000 HD
ATOM     22  H   UNL     1       6.248   5.653  17.292  0.00  0.00    +0.000 HD
ENDBRANCH  19  20
BRANCH  19  23
ATOM     23  C   UNL     1       3.816   5.014  16.829  0.00  0.00    +0.000 C 
BRANCH  23  24
ATOM     24  C   UNL     1       3.093   3.904  17.563  0.00  0.00    +0.000 A 
ATOM     25  C   UNL     1       1.712   3.971  17.793  0.00  0.00    +0.000 A 
ATOM     26  C   UNL     1       1.059   2.941  18.472  0.00  0.00    +0.000 A 
ATOM     27  C   UNL     1       1.777   1.839  18.935  0.00  0.00    +0.000 A 
ATOM     28  C   UNL     1       3.151   1.767  18.720  0.00  0.00    +0.000 A 
ATOM     29  C   UNL     1       3.804   2.792  18.036  0.00  0.00    +0.000 A 
ENDBRANCH  23  24
ENDBRANCH  19  23
ENDBRANCH  10  19
TORSDOF 5
ENDMDL
MODEL 2
REMARK VINA RESULT:      -7.3      2.356      3.780
REMARK  Name = 
REMARK  5 active torsions:
REMARK  status: ('A' for Active; 'I' for Inactive)
REMARK    1  A    between atoms: N_1  and  C_2
REMARK    2  A    between atoms: C_11  and  C_13
REMARK    3  A    between atoms: C_13  and  N_14
REMARK    4  A    between atoms: C_13  and  C_15
REMARK    5  A    between atoms: C_15  and  C_16
REMARK                            x       y       z     vdW  Elec       q    Type
REMARK                         _______ _______ _______ _____ _____    ______ ____
ROOT
ATOM      1  C   UNL     1       0.891  10.516  20.239  0.00  0.00    +0.000 A 
ATOM      2  N   UNL     1       0.679  10.718  21.547  0.00  0.00    +0.000 NA
ATOM      3  C   UNL     1       0.872   9.660  22.339  0.00  0.00    +0.000 A 
ATOM      4  N   UNL     1       1.254   8.433  21.948  0.00  0.00    +0.000 NA
ATOM      5  C   UNL     1       1.485   8.249  20.631  0.00  0.00    +0.000 A 
ATOM      6  N   UNL     1       1.775   6.962  20.207  0.00  0.00    +0.000 N 
ATOM      7  C   UNL     1       1.280   5.833  21.008  0.00  0.00    +0.000 C 
ATOM      8  C   UNL     1       1.055   4.650  20.042  0.00  0.00    +0.000 C 
ATOM      9  N   UNL     1       2.264   4.356  19.253  0.00  0.00    +0.000 N 
ATOM     10  C   UNL     1       2.689   3.040  19.148  0.00  0.00    +0.000 C 
ATOM     11  O   UNL     1       2.167   2.144  19.813  0.00  0.00    +0.000 OA
ATOM     12  C   UNL     1       2.856   5.526  18.574  0.00  0.00    +0.000 C 
ATOM     13  C   UNL     1       3.070   6.685  19.572  0.00  0.00    +0.000 C 
ATOM     14  C   UNL     1       1.317   9.298  19.724  0.00  0.00    +0.000 A 
ATOM     15 BR   UNL     1       1.435   9.076  17.830  0.00  0.00    +0.000 Br
ENDROOT
BRANCH   1  16
ATOM     16  N   UNL     1       0.684  11.633  19.425  0.00  0.00    +0.000 N 
ATOM     17  H   UNL     1       1.587  12.054  19.223  0.00  0.00    +0.000 HD
ATOM     18  H   UNL     1       0.025  12.286  19.840  0.00  0.00    +0.000 HD
ENDBRANCH   1  16
BRANCH  10  19
ATOM     19  C   UNL     1       3.944   2.746  18.286  0.00  0.00    +0.000 C 
BRANCH  19  20
ATOM     20  N   UNL     1       4.123   1.271  18.267  0.00  0.00    +0.000 NA
ATOM     21  H   UNL     1       3.347   0.866  18.801  0.00  0.00    +0.000 HD
ATOM     22  H   UNL     1       4.954   1.035  18.809  0.00  0.00    +0.000 HD
ENDBRANCH  19  20
BRANCH  19  23
ATOM     23  C   UNL     1       3.788   3.268  16.846  0.00  0.00    +0.000 C 
BRANCH  23  24
ATOM     24  C   UNL     1       5.052   3.900  16.302  0.00  0.00    +0.000 A 
ATOM     25  C   UNL     1       6.082   4.307  17.161  0.00  0.00    +0.000 A 
ATOM     26  C   UNL     1       7.242   4.889  16.646  0.00  0.00    +0.000 A 
ATOM     27  C   UNL     1       7.382   5.077  15.272  0.00  0.00    +0.000 A 
ATOM     28  C   UNL     1       6.361   4.686  14.411  0.00  0.00    +0.000 A 
ATOM     29  C   UNL     1       5.204   4.098  14.923  0.00  0.00    +0.000 A 
ENDBRANCH  23  24
ENDBRANCH  19  23
ENDBRANCH  10  19
TORSDOF 5
ENDMDL
MODEL 3
REMARK VINA RESULT:      -7.2      2.959      7.927
REMARK  Name = 
REMARK  5 active torsions:
REMARK  status: ('A' for Active; 'I' for Inactive)
REMARK    1  A    between atoms: N_1  and  C_2
REMARK    2  A    between atoms: C_11  and  C_13
REMARK    3  A    between atoms: C_13  and  N_14
REMARK    4  A    between atoms: C_13  and  C_15
REMARK    5  A    between atoms: C_15  and  C_16
REMARK                            x       y       z     vdW  Elec       q    Type
REMARK                         _______ _______ _______ _____ _____    ______ ____
ROOT
ATOM      1  C   UNL     1       5.282   4.101  18.681  0.00  0.00    +0.000 A 
ATOM      2  N   UNL     1       4.815   3.000  19.284  0.00  0.00    +0.000 NA
ATOM      3  C   UNL     1       3.631   3.125  19.891  0.00  0.00    +0.000 A 
ATOM      4  N   UNL     1       2.880   4.237  19.946  0.00  0.00    +0.000 NA
ATOM      5  C   UNL     1       3.352   5.333  19.316  0.00  0.00    +0.000 A 
ATOM      6  N   UNL     1       2.636   6.511  19.460  0.00  0.00    +0.000 N 
ATOM      7  C   UNL     1       1.805   6.683  20.659  0.00  0.00    +0.000 C 
ATOM      8  C   UNL     1       1.746   8.195  20.963  0.00  0.00    +0.000 C 
ATOM      9  N   UNL     1       1.296   8.967  19.792  0.00  0.00    +0.000 N 
ATOM     10  C   UNL     1       0.310   9.928  19.964  0.00  0.00    +0.000 C 
ATOM     11  O   UNL     1      -0.291  10.043  21.033  0.00  0.00    +0.000 OA
ATOM     12  C   UNL     1       2.030   8.677  18.544  0.00  0.00    +0.000 C 
ATOM     13  C   UNL     1       2.063   7.157  18.272  0.00  0.00    +0.000 C 
ATOM     14  C   UNL     1       4.579   5.299  18.648  0.00  0.00    +0.000 A 
ATOM     15 BR   UNL     1       5.408   6.848  17.897  0.00  0.00    +0.000 Br
ENDROOT
BRANCH   1  16
ATOM     16  N   UNL     1       6.521   3.952  18.052  0.00  0.00    +0.000 N 
ATOM     17  H   UNL     1       6.469   4.382  17.133  0.00  0.00    +0.000 HD
ATOM     18  H   UNL     1       6.815   2.980  18.020  0.00  0.00    +0.000 HD
ENDBRANCH   1  16
BRANCH  10  19
ATOM     19  C   UNL     1      -0.126  10.753  18.727  0.00  0.00    +0.000 C 
BRANCH  19  20
ATOM     20  N   UNL     1       1.102  11.376  18.164  0.00  0.00    +0.000 NA
ATOM     21  H   UNL     1       1.271  12.238  18.692  0.00  0.00    +0.000 HD
ATOM     22  H   UNL     1       0.903  11.693  17.216  0.00  0.00    +0.000 HD
ENDBRANCH  19  20
BRANCH  19  23
ATOM     23  C   UNL     1      -0.799   9.874  17.657  0.00  0.00    +0.000 C 
BRANCH  23  24
ATOM     24  C   UNL     1      -2.159  10.387  17.234  0.00  0.00    +0.000 A 
ATOM     25  C   UNL     1      -2.612  10.230  15.918  0.00  0.00    +0.000 A 
ATOM     26  C   UNL     1      -3.869  10.709  15.542  0.00  0.00    +0.000 A 
ATOM     27  C   UNL     1      -4.681  11.355  16.472  0.00  0.00    +0.000 A 
ATOM     28  C   UNL     1      -4.236  11.525  17.781  0.00  0.00    +0.000 A 
ATOM     29  C   UNL     1      -2.984  11.042  18.160  0.00  0.00    +0.000 A 
ENDBRANCH  23  24
ENDBRANCH  19  23
ENDBRANCH  10  19
TORSDOF 5
ENDMDL
MODEL 4
REMARK VINA RESULT:      -7.2      3.151      8.527
REMARK  Name = 
REMARK  5 active torsions:
REMARK  status: ('A' for Active; 'I' for Inactive)
REMARK    1  A    between atoms: N_1  and  C_2
REMARK    2  A    between atoms: C_11  and  C_13
REMARK    3  A    between atoms: C_13  and  N_14
REMARK    4  A    between atoms: C_13  and  C_15
REMARK    5  A    between atoms: C_15  and  C_16
REMARK                            x       y       z     vdW  Elec       q    Type
REMARK                         _______ _______ _______ _____ _____    ______ ____
ROOT
ATOM      1  C   UNL     1       5.375   4.233  18.691  0.00  0.00    +0.000 A 
ATOM      2  N   UNL     1       4.892   3.148  19.309  0.00  0.00    +0.000 NA
ATOM      3  C   UNL     1       3.677   3.277  19.850  0.00  0.00    +0.000 A 
ATOM      4  N   UNL     1       2.910   4.380  19.828  0.00  0.00    +0.000 NA
ATOM      5  C   UNL     1       3.400   5.460  19.183  0.00  0.00    +0.000 A 
ATOM      6  N   UNL     1       2.664   6.631  19.248  0.00  0.00    +0.000 N 
ATOM      7  C   UNL     1       1.770   6.834  20.398  0.00  0.00    +0.000 C 
ATOM      8  C   UNL     1       1.677   8.355  20.644  0.00  0.00    +0.000 C 
ATOM      9  N   UNL     1       1.278   9.079  19.424  0.00  0.00    +0.000 N 
ATOM     10  C   UNL     1       0.273  10.031  19.512  0.00  0.00    +0.000 C 
ATOM     11  O   UNL     1      -0.383  10.175  20.544  0.00  0.00    +0.000 OA
ATOM     12  C   UNL     1       2.077   8.755  18.226  0.00  0.00    +0.000 C 
ATOM     13  C   UNL     1       2.143   7.226  18.010  0.00  0.00    +0.000 C 
ATOM     14  C   UNL     1       4.660   5.419  18.579  0.00  0.00    +0.000 A 
ATOM     15 BR   UNL     1       5.507   6.952  17.816  0.00  0.00    +0.000 Br
ENDROOT
BRANCH   1  16
ATOM     16  N   UNL     1       6.647   4.080  18.131  0.00  0.00    +0.000 N 
ATOM     17  H   UNL     1       7.015   3.176  18.413  0.00  0.00    +0.000 HD
ATOM     18  H   UNL     1       7.261   4.853  18.371  0.00  0.00    +0.000 HD
ENDBRANCH   1  16
BRANCH  10  19
ATOM     19  C   UNL     1      -0.110  10.805  18.225  0.00  0.00    +0.000 C 
BRANCH  19  20
ATOM     20  N   UNL     1      -1.130   9.990  17.514  0.00  0.00    +0.000 NA
ATOM     21  H   UNL     1      -0.869   9.979  16.523  0.00  0.00    +0.000 HD
ATOM     22  H   UNL     1      -2.020  10.486  17.537  0.00  0.00    +0.000 HD
ENDBRANCH  19  20
BRANCH  19  23
ATOM     23  C   UNL     1      -0.687  12.197  18.541  0.00  0.00    +0.000 C 
BRANCH  23  24
ATOM     24  C   UNL     1       0.360  13.291  18.530  0.00  0.00    +0.000 A 
ATOM     25  C   UNL     1       1.695  13.008  18.216  0.00  0.00    +0.000 A 
ATOM     26  C   UNL     1       2.650  14.027  18.210  0.00  0.00    +0.000 A 
ATOM     27  C   UNL     1       2.284  15.334  18.525  0.00  0.00    +0.000 A 
ATOM     28  C   UNL     1       0.961  15.624  18.849  0.00  0.00    +0.000 A 
ATOM     29  C   UNL     1       0.004  14.610  18.848  0.00  0.00    +0.000 A 
ENDBRANCH  23  24
ENDBRANCH  19  23
ENDBRANCH  10  19
TORSDOF 5
ENDMDL
MODEL 5
REMARK VINA RESULT:      -7.0      2.995      8.271
REMARK  Name = 
REMARK  5 active torsions:
REMARK  status: ('A' for Active; 'I' for Inactive)
REMARK    1  A    between atoms: N_1  and  C_2
REMARK    2  A    between atoms: C_11  and  C_13
REMARK    3  A    between atoms: C_13  and  N_14
REMARK    4  A    between atoms: C_13  and  C_15
REMARK    5  A    between atoms: C_15  and  C_16
REMARK                            x       y       z     vdW  Elec       q    Type
REMARK                         _______ _______ _______ _____ _____    ______ ____
ROOT
ATOM      1  C   UNL     1       5.326   4.207  18.706  0.00  0.00    +0.000 A 
ATOM      2  N   UNL     1       4.875   3.125  19.355  0.00  0.00    +0.000 NA
ATOM      3  C   UNL     1       3.681   3.251  19.940  0.00  0.00    +0.000 A 
ATOM      4  N   UNL     1       2.905   4.347  19.935  0.00  0.00    +0.000 NA
ATOM      5  C   UNL     1       3.360   5.423  19.261  0.00  0.00    +0.000 A 
ATOM      6  N   UNL     1       2.618   6.590  19.341  0.00  0.00    +0.000 N 
ATOM      7  C   UNL     1       1.767   6.798  20.521  0.00  0.00    +0.000 C 
ATOM      8  C   UNL     1       1.671   8.321  20.754  0.00  0.00    +0.000 C 
ATOM      9  N   UNL     1       1.220   9.028  19.543  0.00  0.00    +0.000 N 
ATOM     10  C   UNL     1       0.211   9.973  19.659  0.00  0.00    +0.000 C 
ATOM     11  O   UNL     1      -0.407  10.124  20.714  0.00  0.00    +0.000 OA
ATOM     12  C   UNL     1       1.975   8.698  18.319  0.00  0.00    +0.000 C 
ATOM     13  C   UNL     1       2.046   7.167  18.117  0.00  0.00    +0.000 C 
ATOM     14  C   UNL     1       4.597   5.386  18.610  0.00  0.00    +0.000 A 
ATOM     15 BR   UNL     1       5.402   6.917  17.798  0.00  0.00    +0.000 Br
ENDROOT
BRANCH   1  16
ATOM     16  N   UNL     1       6.576   4.057  18.100  0.00  0.00    +0.000 N 
ATOM     17  H   UNL     1       7.286   4.051  18.826  0.00  0.00    +0.000 HD
ATOM     18  H   UNL     1       6.739   4.766  17.390  0.00  0.00    +0.000 HD
ENDBRANCH   1  16
BRANCH  10  19
ATOM     19  C   UNL     1      -0.228  10.730  18.379  0.00  0.00    +0.000 C 
BRANCH  19  20
ATOM     20  N   UNL     1      -1.510  10.124  17.933  0.00  0.00    +0.000 NA
ATOM     21  H   UNL     1      -1.443   9.116  18.108  0.00  0.00    +0.000 HD
ATOM     22  H   UNL     1      -1.573  10.202  16.918  0.00  0.00    +0.000 HD
ENDBRANCH  19  20
BRANCH  19  23
ATOM     23  C   UNL     1      -0.428  12.234  18.640  0.00  0.00    +0.000 C 
BRANCH  23  24
ATOM     24  C   UNL     1       0.855  12.950  19.008  0.00  0.00    +0.000 A 
ATOM     25  C   UNL     1       0.991  13.597  20.243  0.00  0.00    +0.000 A 
ATOM     26  C   UNL     1       2.180  14.254  20.569  0.00  0.00    +0.000 A 
ATOM     27  C   UNL     1       3.238  14.279  19.663  0.00  0.00    +0.000 A 
ATOM     28  C   UNL     1       3.110  13.648  18.428  0.00  0.00    +0.000 A 
ATOM     29  C   UNL     1       1.926  12.985  18.104  0.00  0.00    +0.000 A 
ENDBRANCH  23  24
ENDBRANCH  19  23
ENDBRANCH  10  19
TORSDOF 5
ENDMDL
MODEL 6
REMARK VINA RESULT:      -6.9      2.246      3.478
REMARK  Name = 
REMARK  5 active torsions:
REMARK  status: ('A' for Active; 'I' for Inactive)
REMARK    1  A    between atoms: N_1  and  C_2
REMARK    2  A    between atoms: C_11  and  C_13
REMARK    3  A    between atoms: C_13  and  N_14
REMARK    4  A    between atoms: C_13  and  C_15
REMARK    5  A    between atoms: C_15  and  C_16
REMARK                            x       y       z     vdW  Elec       q    Type
REMARK                         _______ _______ _______ _____ _____    ______ ____
ROOT
ATOM      1  C   UNL     1       0.497  10.777  20.029  0.00  0.00    +0.000 A 
ATOM      2  N   UNL     1       0.148  11.054  21.292  0.00  0.00    +0.000 NA
ATOM      3  C   UNL     1       0.347  10.076  22.180  0.00  0.00    +0.000 A 
ATOM      4  N   UNL     1       0.860   8.861  21.923  0.00  0.00    +0.000 NA
ATOM      5  C   UNL     1       1.227   8.603  20.650  0.00  0.00    +0.000 A 
ATOM      6  N   UNL     1       1.656   7.319  20.358  0.00  0.00    +0.000 N 
ATOM      7  C   UNL     1       1.177   6.212  21.198  0.00  0.00    +0.000 C 
ATOM      8  C   UNL     1       1.138   4.948  20.314  0.00  0.00    +0.000 C 
ATOM      9  N   UNL     1       2.435   4.702  19.660  0.00  0.00    +0.000 N 
ATOM     10  C   UNL     1       2.970   3.423  19.698  0.00  0.00    +0.000 C 
ATOM     11  O   UNL     1       2.460   2.536  20.383  0.00  0.00    +0.000 OA
ATOM     12  C   UNL     1       2.996   5.866  18.945  0.00  0.00    +0.000 C 
ATOM     13  C   UNL     1       3.023   7.109  19.863  0.00  0.00    +0.000 C 
ATOM     14  C   UNL     1       1.063   9.567  19.651  0.00  0.00    +0.000 A 
ATOM     15 BR   UNL     1       1.377   9.220  17.799  0.00  0.00    +0.000 Br
ENDROOT
BRANCH   1  16
ATOM     16  N   UNL     1       0.281  11.811  19.113  0.00  0.00    +0.000 N 
ATOM     17  H   UNL     1      -0.694  11.790  18.828  0.00  0.00    +0.000 HD
ATOM     18  H   UNL     1       0.926  11.763  18.330  0.00  0.00    +0.000 HD
ENDBRANCH   1  16
BRANCH  10  19
ATOM     19  C   UNL     1       4.320   3.176  18.976  0.00  0.00    +0.000 C 
BRANCH  19  20
ATOM     20  N   UNL     1       4.898   1.931  19.547  0.00  0.00    +0.000 NA
ATOM     21  H   UNL     1       5.347   1.427  18.777  0.00  0.00    +0.000 HD
ATOM     22  H   UNL     1       4.136   1.321  19.840  0.00  0.00    +0.000 HD
ENDBRANCH  19  20
BRANCH  19  23
ATOM     23  C   UNL     1       4.138   3.014  17.456  0.00  0.00    +0.000 C 
BRANCH  23  24
ATOM     24  C   UNL     1       5.164   3.782  16.649  0.00  0.00    +0.000 A 
ATOM     25  C   UNL     1       5.170   3.724  15.249  0.00  0.00    +0.000 A 
ATOM     26  C   UNL     1       6.122   4.437  14.517  0.00  0.00    +0.000 A 
ATOM     27  C   UNL     1       7.080   5.207  15.175  0.00  0.00    +0.000 A 
ATOM     28  C   UNL     1       7.089   5.263  16.566  0.00  0.00    +0.000 A 
ATOM     29  C   UNL     1       6.135   4.558  17.298  0.00  0.00    +0.000 A 
ENDBRANCH  23  24
ENDBRANCH  19  23
ENDBRANCH  10  19
TORSDOF 5
ENDMDL
MODEL 7
REMARK VINA RESULT:      -6.9      2.845      7.952
REMARK  Name = 
REMARK  5 active torsions:
REMARK  status: ('A' for Active; 'I' for Inactive)
REMARK    1  A    between atoms: N_1  and  C_2
REMARK    2  A    between atoms: C_11  and  C_13
REMARK    3  A    between atoms: C_13  and  N_14
REMARK    4  A    between atoms: C_13  and  C_15
REMARK    5  A    between atoms: C_15  and  C_16
REMARK                            x       y       z     vdW  Elec       q    Type
REMARK                         _______ _______ _______ _____ _____    ______ ____
ROOT
ATOM      1  C   UNL     1       4.930   3.997  17.510  0.00  0.00    +0.000 A 
ATOM      2  N   UNL     1       4.475   2.852  18.037  0.00  0.00    +0.000 NA
ATOM      3  C   UNL     1       3.376   2.953  18.790  0.00  0.00    +0.000 A 
ATOM      4  N   UNL     1       2.697   4.080  19.059  0.00  0.00    +0.000 NA
ATOM      5  C   UNL     1       3.153   5.223  18.505  0.00  0.00    +0.000 A 
ATOM      6  N   UNL     1       2.523   6.403  18.864  0.00  0.00    +0.000 N 
ATOM      7  C   UNL     1       1.843   6.466  20.166  0.00  0.00    +0.000 C 
ATOM      8  C   UNL     1       1.902   7.932  20.643  0.00  0.00    +0.000 C 
ATOM      9  N   UNL     1       1.364   8.855  19.628  0.00  0.00    +0.000 N 
ATOM     10  C   UNL     1       0.458   9.828  20.023  0.00  0.00    +0.000 C 
ATOM     11  O   UNL     1      -0.011   9.841  21.162  0.00  0.00    +0.000 OA
ATOM     12  C   UNL     1       1.935   8.685  18.277  0.00  0.00    +0.000 C 
ATOM     13  C   UNL     1       1.855   7.207  17.833  0.00  0.00    +0.000 C 
ATOM     14  C   UNL     1       4.293   5.217  17.696  0.00  0.00    +0.000 A 
ATOM     15 BR   UNL     1       5.114   6.809  17.031  0.00  0.00    +0.000 Br
ENDROOT
BRANCH   1  16
ATOM     16  N   UNL     1       6.080   3.873  16.725  0.00  0.00    +0.000 N 
ATOM     17  H   UNL     1       5.818   3.460  15.835  0.00  0.00    +0.000 HD
ATOM     18  H   UNL     1       6.810   3.355  17.205  0.00  0.00    +0.000 HD
ENDBRANCH   1  16
BRANCH  10  19
ATOM     19  C   UNL     1      -0.071  10.811  18.947  0.00  0.00    +0.000 C 
BRANCH  19  20
ATOM     20  N   UNL     1       1.085  11.636  18.506  0.00  0.00    +0.000 NA
ATOM     21  H   UNL     1       0.847  12.019  17.585  0.00  0.00    +0.000 HD
ATOM     22  H   UNL     1       1.878  11.021  18.329  0.00  0.00    +0.000 HD
ENDBRANCH  19  20
BRANCH  19  23
ATOM     23  C   UNL     1      -0.671  10.071  17.737  0.00  0.00    +0.000 C 
BRANCH  23  24
ATOM     24  C   UNL     1      -2.060  10.553  17.375  0.00  0.00    +0.000 A 
ATOM     25  C   UNL     1      -2.854  11.232  18.308  0.00  0.00    +0.000 A 
ATOM     26  C   UNL     1      -4.133  11.671  17.961  0.00  0.00    +0.000 A 
ATOM     27  C   UNL     1      -4.635  11.429  16.683  0.00  0.00    +0.000 A 
ATOM     28  C   UNL     1      -3.858  10.746  15.751  0.00  0.00    +0.000 A 
ATOM     29  C   UNL     1      -2.578  10.313  16.094  0.00  0.00    +0.000 A 
ENDBRANCH  23  24
ENDBRANCH  19  23
ENDBRANCH  10  19
TORSDOF 5
ENDMDL
MODEL 8
REMARK VINA RESULT:      -6.9      2.886      4.332
REMARK  Name = 
REMARK  5 active torsions:
REMARK  status: ('A' for Active; 'I' for Inactive)
REMARK    1  A    between atoms: N_1  and  C_2
REMARK    2  A    between atoms: C_11  and  C_13
REMARK    3  A    between atoms: C_13  and  N_14
REMARK    4  A    between atoms: C_13  and  C_15
REMARK    5  A    between atoms: C_15  and  C_16
REMARK                            x       y       z     vdW  Elec       q    Type
REMARK                         _______ _______ _______ _____ _____    ______ ____
ROOT
ATOM      1  C   UNL     1       0.348  10.177  20.482  0.00  0.00    +0.000 A 
ATOM      2  N   UNL     1       0.124   9.961  21.785  0.00  0.00    +0.000 NA
ATOM      3  C   UNL     1       0.622   8.826  22.282  0.00  0.00    +0.000 A 
ATOM      4  N   UNL     1       1.316   7.898  21.604  0.00  0.00    +0.000 NA
ATOM      5  C   UNL     1       1.554   8.137  20.297  0.00  0.00    +0.000 A 
ATOM      6  N   UNL     1       2.175   7.137  19.567  0.00  0.00    +0.000 N 
ATOM      7  C   UNL     1       2.031   5.746  20.021  0.00  0.00    +0.000 C 
ATOM      8  C   UNL     1       2.114   4.845  18.771  0.00  0.00    +0.000 C 
ATOM      9  N   UNL     1       3.336   5.111  17.990  0.00  0.00    +0.000 N 
ATOM     10  C   UNL     1       4.104   4.036  17.567  0.00  0.00    +0.000 C 
ATOM     11  O   UNL     1       3.867   2.889  17.950  0.00  0.00    +0.000 OA
ATOM     12  C   UNL     1       3.565   6.533  17.669  0.00  0.00    +0.000 C 
ATOM     13  C   UNL     1       3.478   7.402  18.944  0.00  0.00    +0.000 C 
ATOM     14  C   UNL     1       1.078   9.302  19.688  0.00  0.00    +0.000 A 
ATOM     15 BR   UNL     1       1.202   9.628  17.809  0.00  0.00    +0.000 Br
ENDROOT
BRANCH   1  16
ATOM     16  N   UNL     1      -0.180  11.369  19.978  0.00  0.00    +0.000 N 
ATOM     17  H   UNL     1       0.487  11.763  19.320  0.00  0.00    +0.000 HD
ATOM     18  H   UNL     1      -0.434  12.013  20.721  0.00  0.00    +0.000 HD
ENDBRANCH   1  16
BRANCH  10  19
ATOM     19  C   UNL     1       5.367   4.333  16.719  0.00  0.00    +0.000 C 
BRANCH  19  20
ATOM     20  N   UNL     1       6.532   4.287  17.643  0.00  0.00    +0.000 NA
ATOM     21  H   UNL     1       6.396   5.030  18.336  0.00  0.00    +0.000 HD
ATOM     22  H   UNL     1       7.367   4.567  17.130  0.00  0.00    +0.000 HD
ENDBRANCH  19  20
BRANCH  19  23
ATOM     23  C   UNL     1       5.559   3.304  15.591  0.00  0.00    +0.000 C 
BRANCH  23  24
ATOM     24  C   UNL     1       6.257   3.877  14.375  0.00  0.00    +0.000 A 
ATOM     25  C   UNL     1       7.181   4.923  14.500  0.00  0.00    +0.000 A 
ATOM     26  C   UNL     1       7.817   5.442  13.371  0.00  0.00    +0.000 A 
ATOM     27  C   UNL     1       7.532   4.929  12.107  0.00  0.00    +0.000 A 
ATOM     28  C   UNL     1       6.608   3.896  11.970  0.00  0.00    +0.000 A 
ATOM     29  C   UNL     1       5.976   3.372  13.098  0.00  0.00    +0.000 A 
ENDBRANCH  23  24
ENDBRANCH  19  23
ENDBRANCH  10  19
TORSDOF 5
ENDMDL
MODEL 9
REMARK VINA RESULT:      -6.9      1.818      2.888
REMARK  Name = 
REMARK  5 active torsions:
REMARK  status: ('A' for Active; 'I' for Inactive)
REMARK    1  A    between atoms: N_1  and  C_2
REMARK    2  A    between atoms: C_11  and  C_13
REMARK    3  A    between atoms: C_13  and  N_14
REMARK    4  A    between atoms: C_13  and  C_15
REMARK    5  A    between atoms: C_15  and  C_16
REMARK                            x       y       z     vdW  Elec       q    Type
REMARK                         _______ _______ _______ _____ _____    ______ ____
ROOT
ATOM      1  C   UNL     1      -1.668  11.868  19.664  0.00  0.00    +0.000 A 
ATOM      2  N   UNL     1      -1.430  12.482  20.830  0.00  0.00    +0.000 NA
ATOM      3  C   UNL     1      -0.377  12.037  21.520  0.00  0.00    +0.000 A 
ATOM      4  N   UNL     1       0.453  11.046  21.153  0.00  0.00    +0.000 NA
ATOM      5  C   UNL     1       0.215  10.450  19.965  0.00  0.00    +0.000 A 
ATOM      6  N   UNL     1       0.999   9.359  19.631  0.00  0.00    +0.000 N 
ATOM      7  C   UNL     1       1.602   8.570  20.715  0.00  0.00    +0.000 C 
ATOM      8  C   UNL     1       1.745   7.121  20.202  0.00  0.00    +0.000 C 
ATOM      9  N   UNL     1       2.480   7.066  18.927  0.00  0.00    +0.000 N 
ATOM     10  C   UNL     1       3.502   6.140  18.784  0.00  0.00    +0.000 C 
ATOM     11  O   UNL     1       3.898   5.472  19.740  0.00  0.00    +0.000 OA
ATOM     12  C   UNL     1       1.972   7.979  17.883  0.00  0.00    +0.000 C 
ATOM     13  C   UNL     1       1.846   9.419  18.432  0.00  0.00    +0.000 C 
ATOM     14  C   UNL     1      -0.861  10.851  19.169  0.00  0.00    +0.000 A 
ATOM     15 BR   UNL     1      -1.382   9.939  17.573  0.00  0.00    +0.000 Br
ENDROOT
BRANCH   1  16
ATOM     16  N   UNL     1      -2.774  12.346  18.956  0.00  0.00    +0.000 N 
ATOM     17  H   UNL     1      -3.362  11.555  18.706  0.00  0.00    +0.000 HD
ATOM     18  H   UNL     1      -2.497  12.904  18.154  0.00  0.00    +0.000 HD
ENDBRANCH   1  16
BRANCH  10  19
ATOM     19  C   UNL     1       4.242   6.075  17.423  0.00  0.00    +0.000 C 
BRANCH  19  20
ATOM     20  N   UNL     1       5.215   7.199  17.403  0.00  0.00    +0.000 NA
ATOM     21  H   UNL     1       4.770   7.975  16.904  0.00  0.00    +0.000 HD
ATOM     22  H   UNL     1       6.005   6.937  16.814  0.00  0.00    +0.000 HD
ENDBRANCH  19  20
BRANCH  19  23
ATOM     23  C   UNL     1       4.985   4.741  17.235  0.00  0.00    +0.000 C 
BRANCH  23  24
ATOM     24  C   UNL     1       5.608   4.595  15.862  0.00  0.00    +0.000 A 
ATOM     25  C   UNL     1       4.863   4.108  14.780  0.00  0.00    +0.000 A 
ATOM     26  C   UNL     1       5.450   3.979  13.520  0.00  0.00    +0.000 A 
ATOM     27  C   UNL     1       6.786   4.326  13.329  0.00  0.00    +0.000 A 
ATOM     28  C   UNL     1       7.538   4.802  14.400  0.00  0.00    +0.000 A 
ATOM     29  C   UNL     1       6.952   4.939  15.658  0.00  0.00    +0.000 A 
ENDBRANCH  23  24
ENDBRANCH  19  23
ENDBRANCH  10  19
TORSDOF 5
ENDMDL
