MODEL 1
REMARK VINA RESULT:      -8.1      0.000      0.000
REMARK  Name = 
REMARK  8 active torsions:
REMARK  status: ('A' for Active; 'I' for Inactive)
REMARK    1  A    between atoms: C_1  and  C_2
REMARK    2  A    between atoms: C_2  and  C_3
REMARK    3  A    between atoms: C_2  and  C_4
REMARK    4  A    between atoms: C_2  and  N_5
REMARK    5  A    between atoms: N_5  and  N_6
REMARK    6  A    between atoms: C_7  and  C_9
REMARK    7  A    between atoms: C_20  and  C_22
REMARK    8  A    between atoms: C_27  and  N_28
REMARK                            x       y       z     vdW  Elec       q    Type
REMARK                         _______ _______ _______ _____ _____    ______ ____
ROOT
ATOM      1  N   UNL     1       4.503   4.593  16.801  0.00  0.00    +0.000 N 
ATOM      2  C   UNL     1       4.078   3.308  17.219  0.00  0.00    +0.000 C 
ATOM      3  O   UNL     1       4.559   2.260  16.788  0.00  0.00    +0.000 OA
ENDROOT
BRANCH   2   4
ATOM      4  C   UNL     1       3.011   3.127  18.236  0.00  0.00    +0.000 A 
ATOM      5  C   UNL     1       1.673   3.391  17.916  0.00  0.00    +0.000 A 
ATOM      6  C   UNL     1       0.670   3.273  18.880  0.00  0.00    +0.000 A 
ATOM      7  C   UNL     1       0.975   2.942  20.197  0.00  0.00    +0.000 A 
ATOM      8  C   UNL     1       2.306   2.735  20.561  0.00  0.00    +0.000 A 
ATOM      9  C   UNL     1       3.309   2.839  19.579  0.00  0.00    +0.000 A 
BRANCH   9  10
ATOM     10  N   UNL     1       4.674   2.632  20.028  0.00  0.00    +0.000 N 
ATOM     11  O   UNL     1       5.477   3.548  19.811  0.00  0.00    +0.000 OA
ATOM     12  O   UNL     1       4.951   1.508  20.472  0.00  0.00    +0.000 OA
ENDBRANCH   9  10
ENDBRANCH   2   4
BRANCH   1  14
ATOM     13  C   UNL     1       5.304   3.814  14.453  0.00  0.00    +0.000 C 
ATOM     14  C   UNL     1       5.510   4.729  15.687  0.00  0.00    +0.000 C 
ATOM     15  C   UNL     1       6.930   4.405  16.208  0.00  0.00    +0.000 C 
ATOM     16  C   UNL     1       5.458   6.180  15.152  0.00  0.00    +0.000 C 
ENDBRANCH   1  14
BRANCH   1  17
ATOM     17  N   UNL     1       3.723   5.753  17.099  0.00  0.00    +0.000 N 
ATOM     18  C   UNL     1       3.887   6.442  18.296  0.00  0.00    +0.000 C 
ATOM     19  O   UNL     1       4.808   6.205  19.076  0.00  0.00    +0.000 OA
ATOM     20  H   UNL     1       2.869   5.864  16.560  0.00  0.00    +0.000 HD
BRANCH  18  21
ATOM     21  C   UNL     1       2.886   7.505  18.680  0.00  0.00    +0.000 A 
ATOM     22  C   UNL     1       2.777   8.575  17.766  0.00  0.00    +0.000 A 
ATOM     23  C   UNL     1       1.871   9.616  17.966  0.00  0.00    +0.000 A 
ATOM     24  C   UNL     1       1.031   9.607  19.072  0.00  0.00    +0.000 A 
ATOM     25  C   UNL     1       1.133   8.588  20.030  0.00  0.00    +0.000 A 
ATOM     26  C   UNL     1       2.063   7.532  19.827  0.00  0.00    +0.000 A 
ATOM     27 CL   UNL     1       2.144   6.290  21.041  0.00  0.00    +0.000 Cl
ATOM     28  C   UNL     1       0.204   8.617  21.224  0.00  0.00    +0.000 C 
ATOM     29  C   UNL     1      -0.467   9.973  21.389  0.00  0.00    +0.000 C 
ATOM     30  C   UNL     1      -0.951  10.445  20.033  0.00  0.00    +0.000 C 
ATOM     31  O   UNL     1       0.152  10.655  19.149  0.00  0.00    +0.000 OA
ENDBRANCH  18  21
ENDBRANCH   1  17
TORSDOF 5
ENDMDL
MODEL 2
REMARK VINA RESULT:      -7.8      1.179      1.671
REMARK  Name = 
REMARK  8 active torsions:
REMARK  status: ('A' for Active; 'I' for Inactive)
REMARK    1  A    between atoms: C_1  and  C_2
REMARK    2  A    between atoms: C_2  and  C_3
REMARK    3  A    between atoms: C_2  and  C_4
REMARK    4  A    between atoms: C_2  and  N_5
REMARK    5  A    between atoms: N_5  and  N_6
REMARK    6  A    between atoms: C_7  and  C_9
REMARK    7  A    between atoms: C_20  and  C_22
REMARK    8  A    between atoms: C_27  and  N_28
REMARK                            x       y       z     vdW  Elec       q    Type
REMARK                         _______ _______ _______ _____ _____    ______ ____
ROOT
ATOM      1  N   UNL     1       4.278   4.901  17.125  0.00  0.00    +0.000 N 
ATOM      2  C   UNL     1       3.956   3.544  17.373  0.00  0.00    +0.000 C 
ATOM      3  O   UNL     1       4.494   2.602  16.792  0.00  0.00    +0.000 OA
ENDROOT
BRANCH   2   4
ATOM      4  C   UNL     1       2.937   3.151  18.379  0.00  0.00    +0.000 A 
ATOM      5  C   UNL     1       1.575   3.362  18.130  0.00  0.00    +0.000 A 
ATOM      6  C   UNL     1       0.613   3.043  19.092  0.00  0.00    +0.000 A 
ATOM      7  C   UNL     1       0.983   2.557  20.342  0.00  0.00    +0.000 A 
ATOM      8  C   UNL     1       2.336   2.396  20.643  0.00  0.00    +0.000 A 
ATOM      9  C   UNL     1       3.297   2.704  19.662  0.00  0.00    +0.000 A 
BRANCH   9  10
ATOM     10  N   UNL     1       4.687   2.533  20.046  0.00  0.00    +0.000 N 
ATOM     11  O   UNL     1       5.437   3.502  19.871  0.00  0.00    +0.000 OA
ATOM     12  O   UNL     1       5.033   1.395  20.393  0.00  0.00    +0.000 OA
ENDBRANCH   9  10
ENDBRANCH   2   4
BRANCH   1  14
ATOM     13  C   UNL     1       5.108   4.448  14.703  0.00  0.00    +0.000 C 
ATOM     14  C   UNL     1       5.238   5.258  16.018  0.00  0.00    +0.000 C 
ATOM     15  C   UNL     1       6.696   5.052  16.487  0.00  0.00    +0.000 C 
ATOM     16  C   UNL     1       5.009   6.738  15.627  0.00  0.00    +0.000 C 
ENDBRANCH   1  14
BRANCH   1  17
ATOM     17  N   UNL     1       3.431   5.951  17.596  0.00  0.00    +0.000 N 
ATOM     18  C   UNL     1       3.507   6.403  18.909  0.00  0.00    +0.000 C 
ATOM     19  O   UNL     1       4.403   6.057  19.677  0.00  0.00    +0.000 OA
ATOM     20  H   UNL     1       2.597   6.130  17.043  0.00  0.00    +0.000 HD
BRANCH  18  21
ATOM     21  C   UNL     1       2.440   7.332  19.434  0.00  0.00    +0.000 A 
ATOM     22  C   UNL     1       1.873   6.946  20.668  0.00  0.00    +0.000 A 
ATOM     23  C   UNL     1       0.899   7.720  21.298  0.00  0.00    +0.000 A 
ATOM     24  C   UNL     1       0.479   8.914  20.726  0.00  0.00    +0.000 A 
ATOM     25  C   UNL     1       0.981   9.317  19.480  0.00  0.00    +0.000 A 
ATOM     26  C   UNL     1       1.969   8.522  18.837  0.00  0.00    +0.000 A 
ATOM     27 CL   UNL     1       2.563   9.070  17.298  0.00  0.00    +0.000 Cl
ATOM     28  C   UNL     1       0.495  10.621  18.887  0.00  0.00    +0.000 C 
ATOM     29  C   UNL     1      -0.762  11.127  19.582  0.00  0.00    +0.000 C 
ATOM     30  C   UNL     1      -0.578  10.990  21.079  0.00  0.00    +0.000 C 
ATOM     31  O   UNL     1      -0.449   9.615  21.448  0.00  0.00    +0.000 OA
ENDBRANCH  18  21
ENDBRANCH   1  17
TORSDOF 5
ENDMDL
MODEL 3
REMARK VINA RESULT:      -7.8      1.762      2.435
REMARK  Name = 
REMARK  8 active torsions:
REMARK  status: ('A' for Active; 'I' for Inactive)
REMARK    1  A    between atoms: C_1  and  C_2
REMARK    2  A    between atoms: C_2  and  C_3
REMARK    3  A    between atoms: C_2  and  C_4
REMARK    4  A    between atoms: C_2  and  N_5
REMARK    5  A    between atoms: N_5  and  N_6
REMARK    6  A    between atoms: C_7  and  C_9
REMARK    7  A    between atoms: C_20  and  C_22
REMARK    8  A    between atoms: C_27  and  N_28
REMARK                            x       y       z     vdW  Elec       q    Type
REMARK                         _______ _______ _______ _____ _____    ______ ____
ROOT
ATOM      1  N   UNL     1       4.717   5.419  18.624  0.00  0.00    +0.000 N 
ATOM      2  C   UNL     1       4.284   4.076  18.743  0.00  0.00    +0.000 C 
ATOM      3  O   UNL     1       4.800   3.140  18.131  0.00  0.00    +0.000 OA
ENDROOT
BRANCH   2   4
ATOM      4  C   UNL     1       3.166   3.688  19.641  0.00  0.00    +0.000 A 
ATOM      5  C   UNL     1       3.350   3.653  21.029  0.00  0.00    +0.000 A 
ATOM      6  C   UNL     1       2.319   3.241  21.877  0.00  0.00    +0.000 A 
ATOM      7  C   UNL     1       1.102   2.803  21.366  0.00  0.00    +0.000 A 
ATOM      8  C   UNL     1       0.910   2.766  19.985  0.00  0.00    +0.000 A 
ATOM      9  C   UNL     1       1.948   3.200  19.138  0.00  0.00    +0.000 A 
BRANCH   9  10
ATOM     10  N   UNL     1       1.692   3.117  17.711  0.00  0.00    +0.000 N 
ATOM     11  O   UNL     1       0.965   3.992  17.223  0.00  0.00    +0.000 OA
ATOM     12  O   UNL     1       2.113   2.109  17.127  0.00  0.00    +0.000 OA
ENDBRANCH   9  10
ENDBRANCH   2   4
BRANCH   1  14
ATOM     13  C   UNL     1       6.066   7.296  17.433  0.00  0.00    +0.000 C 
ATOM     14  C   UNL     1       5.781   5.783  17.620  0.00  0.00    +0.000 C 
ATOM     15  C   UNL     1       5.392   5.261  16.217  0.00  0.00    +0.000 C 
ATOM     16  C   UNL     1       7.120   5.152  18.071  0.00  0.00    +0.000 C 
ENDBRANCH   1  14
BRANCH   1  17
ATOM     17  N   UNL     1       3.910   6.493  19.113  0.00  0.00    +0.000 N 
ATOM     18  C   UNL     1       2.809   6.950  18.396  0.00  0.00    +0.000 C 
ATOM     19  O   UNL     1       2.371   6.361  17.409  0.00  0.00    +0.000 OA
ATOM     20  H   UNL     1       4.338   7.084  19.820  0.00  0.00    +0.000 HD
BRANCH  18  21
ATOM     21  C   UNL     1       2.134   8.233  18.816  0.00  0.00    +0.000 A 
ATOM     22  C   UNL     1       2.253   9.294  17.893  0.00  0.00    +0.000 A 
ATOM     23  C   UNL     1       1.653  10.533  18.125  0.00  0.00    +0.000 A 
ATOM     24  C   UNL     1       0.900  10.739  19.273  0.00  0.00    +0.000 A 
ATOM     25  C   UNL     1       0.789   9.729  20.239  0.00  0.00    +0.000 A 
ATOM     26  C   UNL     1       1.408   8.470  20.003  0.00  0.00    +0.000 A 
ATOM     27 CL   UNL     1       1.235   7.250  21.230  0.00  0.00    +0.000 Cl
ATOM     28  C   UNL     1      -0.036   9.995  21.479  0.00  0.00    +0.000 C 
ATOM     29  C   UNL     1      -0.330  11.477  21.659  0.00  0.00    +0.000 C 
ATOM     30  C   UNL     1      -0.750  12.055  20.323  0.00  0.00    +0.000 C 
ATOM     31  O   UNL     1       0.321  11.976  19.380  0.00  0.00    +0.000 OA
ENDBRANCH  18  21
ENDBRANCH   1  17
TORSDOF 5
ENDMDL
MODEL 4
REMARK VINA RESULT:      -7.7      1.904      4.055
REMARK  Name = 
REMARK  8 active torsions:
REMARK  status: ('A' for Active; 'I' for Inactive)
REMARK    1  A    between atoms: C_1  and  C_2
REMARK    2  A    between atoms: C_2  and  C_3
REMARK    3  A    between atoms: C_2  and  C_4
REMARK    4  A    between atoms: C_2  and  N_5
REMARK    5  A    between atoms: N_5  and  N_6
REMARK    6  A    between atoms: C_7  and  C_9
REMARK    7  A    between atoms: C_20  and  C_22
REMARK    8  A    between atoms: C_27  and  N_28
REMARK                            x       y       z     vdW  Elec       q    Type
REMARK                         _______ _______ _______ _____ _____    ______ ____
ROOT
ATOM      1  N   UNL     1       3.527   4.392  18.089  0.00  0.00    +0.000 N 
ATOM      2  C   UNL     1       4.867   4.014  18.355  0.00  0.00    +0.000 C 
ATOM      3  O   UNL     1       5.205   2.863  18.629  0.00  0.00    +0.000 OA
ENDROOT
BRANCH   2   4
ATOM      4  C   UNL     1       5.982   4.992  18.306  0.00  0.00    +0.000 A 
ATOM      5  C   UNL     1       6.667   5.346  19.475  0.00  0.00    +0.000 A 
ATOM      6  C   UNL     1       7.684   6.304  19.447  0.00  0.00    +0.000 A 
ATOM      7  C   UNL     1       8.009   6.971  18.269  0.00  0.00    +0.000 A 
ATOM      8  C   UNL     1       7.301   6.686  17.102  0.00  0.00    +0.000 A 
ATOM      9  C   UNL     1       6.290   5.707  17.135  0.00  0.00    +0.000 A 
BRANCH   9  10
ATOM     10  N   UNL     1       5.579   5.473  15.891  0.00  0.00    +0.000 N 
ATOM     11  O   UNL     1       5.829   4.416  15.297  0.00  0.00    +0.000 OA
ATOM     12  O   UNL     1       4.882   6.404  15.463  0.00  0.00    +0.000 OA
ENDBRANCH   9  10
ENDBRANCH   2   4
BRANCH   1  14
ATOM     13  C   UNL     1       2.134   2.904  19.703  0.00  0.00    +0.000 C 
ATOM     14  C   UNL     1       2.413   3.391  18.258  0.00  0.00    +0.000 C 
ATOM     15  C   UNL     1       2.716   2.111  17.444  0.00  0.00    +0.000 C 
ATOM     16  C   UNL     1       1.094   4.035  17.766  0.00  0.00    +0.000 C 
ENDBRANCH   1  14
BRANCH   1  17
ATOM     17  N   UNL     1       3.147   5.770  18.072  0.00  0.00    +0.000 N 
ATOM     18  C   UNL     1       2.844   6.447  19.248  0.00  0.00    +0.000 C 
ATOM     19  O   UNL     1       3.046   5.965  20.361  0.00  0.00    +0.000 OA
ATOM     20  H   UNL     1       2.822   6.129  17.179  0.00  0.00    +0.000 HD
BRANCH  18  21
ATOM     21  C   UNL     1       2.214   7.817  19.171  0.00  0.00    +0.000 A 
ATOM     22  C   UNL     1       2.489   8.529  17.983  0.00  0.00    +0.000 A 
ATOM     23  C   UNL     1       1.951   9.795  17.750  0.00  0.00    +0.000 A 
ATOM     24  C   UNL     1       1.104  10.376  18.685  0.00  0.00    +0.000 A 
ATOM     25  C   UNL     1       0.836   9.726  19.899  0.00  0.00    +0.000 A 
ATOM     26  C   UNL     1       1.393   8.439  20.136  0.00  0.00    +0.000 A 
ATOM     27 CL   UNL     1       1.025   7.673  21.653  0.00  0.00    +0.000 Cl
ATOM     28  C   UNL     1      -0.087  10.394  20.894  0.00  0.00    +0.000 C 
ATOM     29  C   UNL     1      -0.301  11.865  20.571  0.00  0.00    +0.000 C 
ATOM     30  C   UNL     1      -0.552  12.005  19.083  0.00  0.00    +0.000 C 
ATOM     31  O   UNL     1       0.598  11.600  18.338  0.00  0.00    +0.000 OA
ENDBRANCH  18  21
ENDBRANCH   1  17
TORSDOF 5
ENDMDL
MODEL 5
REMARK VINA RESULT:      -7.7      1.921      4.209
REMARK  Name = 
REMARK  8 active torsions:
REMARK  status: ('A' for Active; 'I' for Inactive)
REMARK    1  A    between atoms: C_1  and  C_2
REMARK    2  A    between atoms: C_2  and  C_3
REMARK    3  A    between atoms: C_2  and  C_4
REMARK    4  A    between atoms: C_2  and  N_5
REMARK    5  A    between atoms: N_5  and  N_6
REMARK    6  A    between atoms: C_7  and  C_9
REMARK    7  A    between atoms: C_20  and  C_22
REMARK    8  A    between atoms: C_27  and  N_28
REMARK                            x       y       z     vdW  Elec       q    Type
REMARK                         _______ _______ _______ _____ _____    ______ ____
ROOT
ATOM      1  N   UNL     1       3.528   4.010  19.563  0.00  0.00    +0.000 N 
ATOM      2  C   UNL     1       4.844   3.644  19.187  0.00  0.00    +0.000 C 
ATOM      3  O   UNL     1       5.287   2.501  19.297  0.00  0.00    +0.000 OA
ENDROOT
BRANCH   2   4
ATOM      4  C   UNL     1       5.797   4.626  18.611  0.00  0.00    +0.000 A 
ATOM      5  C   UNL     1       6.492   5.513  19.442  0.00  0.00    +0.000 A 
ATOM      6  C   UNL     1       7.351   6.474  18.904  0.00  0.00    +0.000 A 
ATOM      7  C   UNL     1       7.501   6.613  17.528  0.00  0.00    +0.000 A 
ATOM      8  C   UNL     1       6.773   5.786  16.672  0.00  0.00    +0.000 A 
ATOM      9  C   UNL     1       5.923   4.809  17.222  0.00  0.00    +0.000 A 
BRANCH   9  10
ATOM     10  N   UNL     1       5.179   3.995  16.277  0.00  0.00    +0.000 N 
ATOM     11  O   UNL     1       5.842   3.348  15.457  0.00  0.00    +0.000 OA
ATOM     12  O   UNL     1       3.947   4.116  16.286  0.00  0.00    +0.000 OA
ENDBRANCH   9  10
ENDBRANCH   2   4
BRANCH   1  14
ATOM     13  C   UNL     1       1.392   3.579  20.982  0.00  0.00    +0.000 C 
ATOM     14  C   UNL     1       2.632   3.008  20.246  0.00  0.00    +0.000 C 
ATOM     15  C   UNL     1       3.425   2.227  21.320  0.00  0.00    +0.000 C 
ATOM     16  C   UNL     1       2.080   2.033  19.179  0.00  0.00    +0.000 C 
ENDBRANCH   1  14
BRANCH   1  17
ATOM     17  N   UNL     1       3.162   5.385  19.698  0.00  0.00    +0.000 N 
ATOM     18  C   UNL     1       2.302   5.993  18.790  0.00  0.00    +0.000 C 
ATOM     19  O   UNL     1       1.682   5.358  17.938  0.00  0.00    +0.000 OA
ATOM     20  H   UNL     1       3.775   5.953  20.277  0.00  0.00    +0.000 HD
BRANCH  18  21
ATOM     21  C   UNL     1       2.135   7.493  18.819  0.00  0.00    +0.000 A 
ATOM     22  C   UNL     1       2.618   8.165  17.675  0.00  0.00    +0.000 A 
ATOM     23  C   UNL     1       2.505   9.549  17.540  0.00  0.00    +0.000 A 
ATOM     24  C   UNL     1       1.886  10.298  18.532  0.00  0.00    +0.000 A 
ATOM     25  C   UNL     1       1.430   9.681  19.706  0.00  0.00    +0.000 A 
ATOM     26  C   UNL     1       1.553   8.271  19.844  0.00  0.00    +0.000 A 
ATOM     27 CL   UNL     1       0.966   7.554  21.315  0.00  0.00    +0.000 Cl
ATOM     28  C   UNL     1       0.766  10.532  20.766  0.00  0.00    +0.000 C 
ATOM     29  C   UNL     1       1.024  12.016  20.547  0.00  0.00    +0.000 C 
ATOM     30  C   UNL     1       0.828  12.332  19.078  0.00  0.00    +0.000 C 
ATOM     31  O   UNL     1       1.790  11.641  18.280  0.00  0.00    +0.000 OA
ENDBRANCH  18  21
ENDBRANCH   1  17
TORSDOF 5
ENDMDL
MODEL 6
REMARK VINA RESULT:      -7.6      1.395      3.728
REMARK  Name = 
REMARK  8 active torsions:
REMARK  status: ('A' for Active; 'I' for Inactive)
REMARK    1  A    between atoms: C_1  and  C_2
REMARK    2  A    between atoms: C_2  and  C_3
REMARK    3  A    between atoms: C_2  and  C_4
REMARK    4  A    between atoms: C_2  and  N_5
REMARK    5  A    between atoms: N_5  and  N_6
REMARK    6  A    between atoms: C_7  and  C_9
REMARK    7  A    between atoms: C_20  and  C_22
REMARK    8  A    between atoms: C_27  and  N_28
REMARK                            x       y       z     vdW  Elec       q    Type
REMARK                         _______ _______ _______ _____ _____    ______ ____
ROOT
ATOM      1  N   UNL     1       2.575   3.936  18.345  0.00  0.00    +0.000 N 
ATOM      2  C   UNL     1       3.787   3.369  17.879  0.00  0.00    +0.000 C 
ATOM      3  O   UNL     1       4.174   2.243  18.193  0.00  0.00    +0.000 OA
ENDROOT
BRANCH   2   4
ATOM      4  C   UNL     1       4.688   4.098  16.950  0.00  0.00    +0.000 A 
ATOM      5  C   UNL     1       4.523   3.982  15.565  0.00  0.00    +0.000 A 
ATOM      6  C   UNL     1       5.397   4.623  14.683  0.00  0.00    +0.000 A 
ATOM      7  C   UNL     1       6.486   5.350  15.155  0.00  0.00    +0.000 A 
ATOM      8  C   UNL     1       6.713   5.431  16.529  0.00  0.00    +0.000 A 
ATOM      9  C   UNL     1       5.818   4.796  17.410  0.00  0.00    +0.000 A 
BRANCH   9  10
ATOM     10  N   UNL     1       6.123   4.902  18.826  0.00  0.00    +0.000 N 
ATOM     11  O   UNL     1       6.729   5.917  19.191  0.00  0.00    +0.000 OA
ATOM     12  O   UNL     1       5.868   3.912  19.526  0.00  0.00    +0.000 OA
ENDBRANCH   9  10
ENDBRANCH   2   4
BRANCH   1  14
ATOM     13  C   UNL     1       0.704   4.053  20.145  0.00  0.00    +0.000 C 
ATOM     14  C   UNL     1       1.747   3.206  19.372  0.00  0.00    +0.000 C 
ATOM     15  C   UNL     1       2.661   2.589  20.455  0.00  0.00    +0.000 C 
ATOM     16  C   UNL     1       0.943   2.094  18.656  0.00  0.00    +0.000 C 
ENDBRANCH   1  14
BRANCH   1  17
ATOM     17  N   UNL     1       2.319   5.334  18.197  0.00  0.00    +0.000 N 
ATOM     18  C   UNL     1       2.724   6.246  19.166  0.00  0.00    +0.000 C 
ATOM     19  O   UNL     1       3.460   5.936  20.101  0.00  0.00    +0.000 OA
ATOM     20  H   UNL     1       1.588   5.584  17.536  0.00  0.00    +0.000 HD
BRANCH  18  21
ATOM     21  C   UNL     1       2.224   7.669  19.097  0.00  0.00    +0.000 A 
ATOM     22  C   UNL     1       2.580   8.365  17.922  0.00  0.00    +0.000 A 
ATOM     23  C   UNL     1       2.163   9.678  17.697  0.00  0.00    +0.000 A 
ATOM     24  C   UNL     1       1.361  10.324  18.628  0.00  0.00    +0.000 A 
ATOM     25  C   UNL     1       1.017   9.688  19.830  0.00  0.00    +0.000 A 
ATOM     26  C   UNL     1       1.450   8.353  20.059  0.00  0.00    +0.000 A 
ATOM     27 CL   UNL     1       0.992   7.608  21.562  0.00  0.00    +0.000 Cl
ATOM     28  C   UNL     1       0.146  10.428  20.821  0.00  0.00    +0.000 C 
ATOM     29  C   UNL     1       0.072  11.916  20.513  0.00  0.00    +0.000 C 
ATOM     30  C   UNL     1      -0.144  12.094  19.024  0.00  0.00    +0.000 C 
ATOM     31  O   UNL     1       0.974  11.593  18.289  0.00  0.00    +0.000 OA
ENDBRANCH  18  21
ENDBRANCH   1  17
TORSDOF 5
ENDMDL
MODEL 7
REMARK VINA RESULT:      -7.6      1.713      4.072
REMARK  Name = 
REMARK  8 active torsions:
REMARK  status: ('A' for Active; 'I' for Inactive)
REMARK    1  A    between atoms: C_1  and  C_2
REMARK    2  A    between atoms: C_2  and  C_3
REMARK    3  A    between atoms: C_2  and  C_4
REMARK    4  A    between atoms: C_2  and  N_5
REMARK    5  A    between atoms: N_5  and  N_6
REMARK    6  A    between atoms: C_7  and  C_9
REMARK    7  A    between atoms: C_20  and  C_22
REMARK    8  A    between atoms: C_27  and  N_28
REMARK                            x       y       z     vdW  Elec       q    Type
REMARK                         _______ _______ _______ _____ _____    ______ ____
ROOT
ATOM      1  N   UNL     1       3.310   4.034  18.866  0.00  0.00    +0.000 N 
ATOM      2  C   UNL     1       4.681   3.689  18.962  0.00  0.00    +0.000 C 
ATOM      3  O   UNL     1       5.080   2.618  19.420  0.00  0.00    +0.000 OA
ENDROOT
BRANCH   2   4
ATOM      4  C   UNL     1       5.754   4.603  18.497  0.00  0.00    +0.000 A 
ATOM      5  C   UNL     1       6.433   5.422  19.408  0.00  0.00    +0.000 A 
ATOM      6  C   UNL     1       7.409   6.323  18.973  0.00  0.00    +0.000 A 
ATOM      7  C   UNL     1       7.697   6.469  17.619  0.00  0.00    +0.000 A 
ATOM      8  C   UNL     1       6.993   5.713  16.682  0.00  0.00    +0.000 A 
ATOM      9  C   UNL     1       6.024   4.796  17.131  0.00  0.00    +0.000 A 
BRANCH   9  10
ATOM     10  N   UNL     1       5.313   4.055  16.104  0.00  0.00    +0.000 N 
ATOM     11  O   UNL     1       5.984   3.280  15.411  0.00  0.00    +0.000 OA
ATOM     12  O   UNL     1       4.125   4.356  15.920  0.00  0.00    +0.000 OA
ENDBRANCH   9  10
ENDBRANCH   2   4
BRANCH   1  14
ATOM     13  C   UNL     1       0.817   3.687  19.515  0.00  0.00    +0.000 C 
ATOM     14  C   UNL     1       2.260   3.124  19.450  0.00  0.00    +0.000 C 
ATOM     15  C   UNL     1       2.624   2.754  20.907  0.00  0.00    +0.000 C 
ATOM     16  C   UNL     1       2.178   1.846  18.582  0.00  0.00    +0.000 C 
ENDBRANCH   1  14
BRANCH   1  17
ATOM     17  N   UNL     1       2.913   5.383  18.612  0.00  0.00    +0.000 N 
ATOM     18  C   UNL     1       2.775   6.300  19.649  0.00  0.00    +0.000 C 
ATOM     19  O   UNL     1       3.144   6.061  20.797  0.00  0.00    +0.000 OA
ATOM     20  H   UNL     1       2.456   5.551  17.720  0.00  0.00    +0.000 HD
BRANCH  18  21
ATOM     21  C   UNL     1       2.122   7.633  19.375  0.00  0.00    +0.000 A 
ATOM     22  C   UNL     1       2.378   8.166  18.093  0.00  0.00    +0.000 A 
ATOM     23  C   UNL     1       1.816   9.375  17.680  0.00  0.00    +0.000 A 
ATOM     24  C   UNL     1       0.966  10.074  18.526  0.00  0.00    +0.000 A 
ATOM     25  C   UNL     1       0.717   9.607  19.825  0.00  0.00    +0.000 A 
ATOM     26  C   UNL     1       1.296   8.378  20.245  0.00  0.00    +0.000 A 
ATOM     27 CL   UNL     1       0.950   7.839  21.862  0.00  0.00    +0.000 Cl
ATOM     28  C   UNL     1      -0.211  10.400  20.718  0.00  0.00    +0.000 C 
ATOM     29  C   UNL     1      -0.453  11.804  20.183  0.00  0.00    +0.000 C 
ATOM     30  C   UNL     1      -0.714  11.718  18.693  0.00  0.00    +0.000 C 
ATOM     31  O   UNL     1       0.438  11.225  18.006  0.00  0.00    +0.000 OA
ENDBRANCH  18  21
ENDBRANCH   1  17
TORSDOF 5
ENDMDL
MODEL 8
REMARK VINA RESULT:      -7.5      1.169      1.640
REMARK  Name = 
REMARK  8 active torsions:
REMARK  status: ('A' for Active; 'I' for Inactive)
REMARK    1  A    between atoms: C_1  and  C_2
REMARK    2  A    between atoms: C_2  and  C_3
REMARK    3  A    between atoms: C_2  and  C_4
REMARK    4  A    between atoms: C_2  and  N_5
REMARK    5  A    between atoms: N_5  and  N_6
REMARK    6  A    between atoms: C_7  and  C_9
REMARK    7  A    between atoms: C_20  and  C_22
REMARK    8  A    between atoms: C_27  and  N_28
REMARK                            x       y       z     vdW  Elec       q    Type
REMARK                         _______ _______ _______ _____ _____    ______ ____
ROOT
ATOM      1  N   UNL     1       4.782   5.388  17.739  0.00  0.00    +0.000 N 
ATOM      2  C   UNL     1       4.335   4.073  17.462  0.00  0.00    +0.000 C 
ATOM      3  O   UNL     1       4.830   3.358  16.590  0.00  0.00    +0.000 OA
ENDROOT
BRANCH   2   4
ATOM      4  C   UNL     1       3.227   3.444  18.224  0.00  0.00    +0.000 A 
ATOM      5  C   UNL     1       1.907   3.538  17.766  0.00  0.00    +0.000 A 
ATOM      6  C   UNL     1       0.853   2.993  18.503  0.00  0.00    +0.000 A 
ATOM      7  C   UNL     1       1.076   2.389  19.736  0.00  0.00    +0.000 A 
ATOM      8  C   UNL     1       2.372   2.335  20.248  0.00  0.00    +0.000 A 
ATOM      9  C   UNL     1       3.431   2.871  19.492  0.00  0.00    +0.000 A 
BRANCH   9  10
ATOM     10  N   UNL     1       4.752   2.801  20.091  0.00  0.00    +0.000 N 
ATOM     11  O   UNL     1       5.125   1.691  20.489  0.00  0.00    +0.000 OA
ATOM     12  O   UNL     1       5.339   3.877  20.272  0.00  0.00    +0.000 OA
ENDBRANCH   9  10
ENDBRANCH   2   4
BRANCH   1  14
ATOM     13  C   UNL     1       6.342   7.424  17.311  0.00  0.00    +0.000 C 
ATOM     14  C   UNL     1       5.834   6.027  16.869  0.00  0.00    +0.000 C 
ATOM     15  C   UNL     1       5.295   6.221  15.433  0.00  0.00    +0.000 C 
ATOM     16  C   UNL     1       7.081   5.110  16.850  0.00  0.00    +0.000 C 
ENDBRANCH   1  14
BRANCH   1  17
ATOM     17  N   UNL     1       3.995   6.273  18.539  0.00  0.00    +0.000 N 
ATOM     18  C   UNL     1       2.832   6.850  18.042  0.00  0.00    +0.000 C 
ATOM     19  O   UNL     1       2.328   6.509  16.973  0.00  0.00    +0.000 OA
ATOM     20  H   UNL     1       4.467   6.686  19.339  0.00  0.00    +0.000 HD
BRANCH  18  21
ATOM     21  C   UNL     1       2.166   7.961  18.819  0.00  0.00    +0.000 A 
ATOM     22  C   UNL     1       2.151   9.213  18.167  0.00  0.00    +0.000 A 
ATOM     23  C   UNL     1       1.542  10.328  18.744  0.00  0.00    +0.000 A 
ATOM     24  C   UNL     1       0.911  10.219  19.976  0.00  0.00    +0.000 A 
ATOM     25  C   UNL     1       0.938   9.007  20.681  0.00  0.00    +0.000 A 
ATOM     26  C   UNL     1       1.566   7.874  20.093  0.00  0.00    +0.000 A 
ATOM     27 CL   UNL     1       1.565   6.394  21.006  0.00  0.00    +0.000 Cl
ATOM     28  C   UNL     1       0.243   8.930  22.023  0.00  0.00    +0.000 C 
ATOM     29  C   UNL     1      -0.075  10.311  22.577  0.00  0.00    +0.000 C 
ATOM     30  C   UNL     1      -0.654  11.160  21.464  0.00  0.00    +0.000 C 
ATOM     31  O   UNL     1       0.310  11.363  20.430  0.00  0.00    +0.000 OA
ENDBRANCH  18  21
ENDBRANCH   1  17
TORSDOF 5
ENDMDL
MODEL 9
REMARK VINA RESULT:      -7.4      2.338      4.375
REMARK  Name = 
REMARK  8 active torsions:
REMARK  status: ('A' for Active; 'I' for Inactive)
REMARK    1  A    between atoms: C_1  and  C_2
REMARK    2  A    between atoms: C_2  and  C_3
REMARK    3  A    between atoms: C_2  and  C_4
REMARK    4  A    between atoms: C_2  and  N_5
REMARK    5  A    between atoms: N_5  and  N_6
REMARK    6  A    between atoms: C_7  and  C_9
REMARK    7  A    between atoms: C_20  and  C_22
REMARK    8  A    between atoms: C_27  and  N_28
REMARK                            x       y       z     vdW  Elec       q    Type
REMARK                         _______ _______ _______ _____ _____    ______ ____
ROOT
ATOM      1  N   UNL     1       3.846   4.290  19.552  0.00  0.00    +0.000 N 
ATOM      2  C   UNL     1       5.062   4.313  18.825  0.00  0.00    +0.000 C 
ATOM      3  O   UNL     1       5.724   3.305  18.579  0.00  0.00    +0.000 OA
ENDROOT
BRANCH   2   4
ATOM      4  C   UNL     1       5.630   5.575  18.285  0.00  0.00    +0.000 A 
ATOM      5  C   UNL     1       4.894   6.357  17.386  0.00  0.00    +0.000 A 
ATOM      6  C   UNL     1       5.440   7.519  16.834  0.00  0.00    +0.000 A 
ATOM      7  C   UNL     1       6.747   7.902  17.119  0.00  0.00    +0.000 A 
ATOM      8  C   UNL     1       7.526   7.110  17.962  0.00  0.00    +0.000 A 
ATOM      9  C   UNL     1       6.963   5.951  18.527  0.00  0.00    +0.000 A 
BRANCH   9  10
ATOM     10  N   UNL     1       7.834   5.160  19.378  0.00  0.00    +0.000 N 
ATOM     11  O   UNL     1       7.756   5.362  20.597  0.00  0.00    +0.000 OA
ATOM     12  O   UNL     1       8.671   4.446  18.809  0.00  0.00    +0.000 OA
ENDBRANCH   9  10
ENDBRANCH   2   4
BRANCH   1  14
ATOM     13  C   UNL     1       4.457   2.049  20.718  0.00  0.00    +0.000 C 
ATOM     14  C   UNL     1       3.364   3.006  20.176  0.00  0.00    +0.000 C 
ATOM     15  C   UNL     1       2.566   2.176  19.143  0.00  0.00    +0.000 C 
ATOM     16  C   UNL     1       2.466   3.353  21.387  0.00  0.00    +0.000 C 
ENDBRANCH   1  14
BRANCH   1  17
ATOM     17  N   UNL     1       3.279   5.498  20.064  0.00  0.00    +0.000 N 
ATOM     18  C   UNL     1       2.196   6.106  19.438  0.00  0.00    +0.000 C 
ATOM     19  O   UNL     1       1.566   5.565  18.530  0.00  0.00    +0.000 OA
ATOM     20  H   UNL     1       3.869   6.034  20.693  0.00  0.00    +0.000 HD
BRANCH  18  21
ATOM     21  C   UNL     1       1.783   7.496  19.858  0.00  0.00    +0.000 A 
ATOM     22  C   UNL     1       1.423   7.622  21.217  0.00  0.00    +0.000 A 
ATOM     23  C   UNL     1       1.051   8.851  21.762  0.00  0.00    +0.000 A 
ATOM     24  C   UNL     1       1.052   9.993  20.973  0.00  0.00    +0.000 A 
ATOM     25  C   UNL     1       1.360   9.910  19.607  0.00  0.00    +0.000 A 
ATOM     26  C   UNL     1       1.731   8.654  19.052  0.00  0.00    +0.000 A 
ATOM     27 CL   UNL     1       2.111   8.607  17.356  0.00  0.00    +0.000 Cl
ATOM     28  C   UNL     1       1.344  11.177  18.779  0.00  0.00    +0.000 C 
ATOM     29  C   UNL     1       0.629  12.314  19.494  0.00  0.00    +0.000 C 
ATOM     30  C   UNL     1       1.092  12.349  20.936  0.00  0.00    +0.000 C 
ATOM     31  O   UNL     1       0.712  11.153  21.618  0.00  0.00    +0.000 OA
ENDBRANCH  18  21
ENDBRANCH   1  17
TORSDOF 5
ENDMDL
