MODEL 1
REMARK VINA RESULT:      -8.4      0.000      0.000
REMARK  Name = 
REMARK  3 active torsions:
REMARK  status: ('A' for Active; 'I' for Inactive)
REMARK    1  A    between atoms: C_2  and  O_3
REMARK    2  A    between atoms: C_2  and  C_15
REMARK    3  A    between atoms: O_3  and  C_4
REMARK                            x       y       z     vdW  Elec       q    Type
REMARK                         _______ _______ _______ _____ _____    ______ ____
ROOT
ATOM      1  C   UNL     1       5.338   5.170  17.405  0.00  0.00    +0.000 C 
ATOM      2  C   UNL     1       5.106   5.677  15.958  0.00  0.00    +0.000 C 
ATOM      3  C   UNL     1       5.737   4.503  15.149  0.00  0.00    +0.000 C 
ATOM      4  C   UNL     1       5.308   3.284  15.983  0.00  0.00    +0.000 C 
ATOM      5  N   UNL     1       4.828   3.775  17.291  0.00  0.00    +0.000 NA
ATOM      6  C   UNL     1       7.272   4.789  15.255  0.00  0.00    +0.000 C 
ATOM      7  O   UNL     1       8.013   4.624  16.208  0.00  0.00    +0.000 OA
ATOM      8  N   UNL     1       7.703   5.323  14.040  0.00  0.00    +0.000 N 
ATOM      9  C   UNL     1       6.925   4.653  13.094  0.00  0.00    +0.000 A 
ATOM     10  C   UNL     1       7.523   4.042  11.999  0.00  0.00    +0.000 A 
ATOM     11  C   UNL     1       6.820   3.040  11.350  0.00  0.00    +0.000 A 
ATOM     12  C   UNL     1       5.510   2.739  11.756  0.00  0.00    +0.000 A 
ATOM     13  C   UNL     1       4.929   3.354  12.886  0.00  0.00    +0.000 A 
ATOM     14  C   UNL     1       5.686   4.261  13.627  0.00  0.00    +0.000 A 
ATOM     15  H   UNL     1       3.807   3.806  17.305  0.00  0.00    +0.000 HD
ATOM     16  H   UNL     1       7.423   6.304  14.018  0.00  0.00    +0.000 HD
ENDROOT
BRANCH   1  18
ATOM     17  O   UNL     1       5.004   5.502  19.824  0.00  0.00    +0.000 OA
ATOM     18  C   UNL     1       4.831   5.900  18.673  0.00  0.00    +0.000 C 
BRANCH  18  19
ATOM     19  O   UNL     1       4.027   6.932  18.325  0.00  0.00    +0.000 OA
BRANCH  19  20
ATOM     20  C   UNL     1       2.676   6.777  17.782  0.00  0.00    +0.000 C 
ATOM     21  C   UNL     1       1.953   8.107  17.772  0.00  0.00    +0.000 C 
ATOM     22  C   UNL     1       2.095   8.858  19.089  0.00  0.00    +0.000 C 
ATOM     23  S   UNL     1       1.641   7.922  20.586  0.00  0.00    +0.000 S 
ATOM     24  C   UNL     1       1.715   6.221  20.047  0.00  0.00    +0.000 A 
ATOM     25  C   UNL     1       1.399   5.248  21.005  0.00  0.00    +0.000 A 
ATOM     26  C   UNL     1       1.266   3.908  20.641  0.00  0.00    +0.000 A 
ATOM     27  C   UNL     1       1.398   3.546  19.305  0.00  0.00    +0.000 A 
ATOM     28 BR   UNL     1       1.069   1.761  18.782  0.00  0.00    +0.000 Br
ATOM     29  C   UNL     1       1.784   4.488  18.353  0.00  0.00    +0.000 A 
ATOM     30  C   UNL     1       2.013   5.820  18.734  0.00  0.00    +0.000 A 
ENDBRANCH  19  20
ENDBRANCH  18  19
ENDBRANCH   1  18
TORSDOF 3
ENDMDL
MODEL 2
REMARK VINA RESULT:      -7.7      7.109      9.949
REMARK  Name = 
REMARK  3 active torsions:
REMARK  status: ('A' for Active; 'I' for Inactive)
REMARK    1  A    between atoms: C_2  and  O_3
REMARK    2  A    between atoms: C_2  and  C_15
REMARK    3  A    between atoms: O_3  and  C_4
REMARK                            x       y       z     vdW  Elec       q    Type
REMARK                         _______ _______ _______ _____ _____    ______ ____
ROOT
ATOM      1  C   UNL     1      -0.797  11.265  21.649  0.00  0.00    +0.000 C 
ATOM      2  C   UNL     1       0.694  10.958  21.352  0.00  0.00    +0.000 C 
ATOM      3  C   UNL     1       0.540   9.749  20.380  0.00  0.00    +0.000 C 
ATOM      4  C   UNL     1      -0.696  10.162  19.562  0.00  0.00    +0.000 C 
ATOM      5  N   UNL     1      -1.353  11.282  20.268  0.00  0.00    +0.000 NA
ATOM      6  C   UNL     1       0.244   8.556  21.349  0.00  0.00    +0.000 C 
ATOM      7  O   UNL     1      -0.787   8.298  21.946  0.00  0.00    +0.000 OA
ATOM      8  N   UNL     1       1.405   7.791  21.470  0.00  0.00    +0.000 N 
ATOM      9  C   UNL     1       1.977   7.862  20.198  0.00  0.00    +0.000 A 
ATOM     10  C   UNL     1       2.370   6.704  19.539  0.00  0.00    +0.000 A 
ATOM     11  C   UNL     1       2.504   6.754  18.161  0.00  0.00    +0.000 A 
ATOM     12  C   UNL     1       2.329   7.977  17.493  0.00  0.00    +0.000 A 
ATOM     13  C   UNL     1       1.906   9.137  18.177  0.00  0.00    +0.000 A 
ATOM     14  C   UNL     1       1.633   9.056  19.542  0.00  0.00    +0.000 A 
ATOM     15  H   UNL     1      -1.102  12.171  19.833  0.00  0.00    +0.000 HD
ATOM     16  H   UNL     1       2.032   8.281  22.108  0.00  0.00    +0.000 HD
ENDROOT
BRANCH   1  18
ATOM     17  O   UNL     1      -0.589  13.045  23.340  0.00  0.00    +0.000 OA
ATOM     18  C   UNL     1      -1.283  12.452  22.515  0.00  0.00    +0.000 C 
BRANCH  18  19
ATOM     19  O   UNL     1      -2.617  12.624  22.362  0.00  0.00    +0.000 OA
BRANCH  19  20
ATOM     20  C   UNL     1      -3.231  13.805  21.753  0.00  0.00    +0.000 C 
ATOM     21  C   UNL     1      -3.505  14.861  22.802  0.00  0.00    +0.000 C 
ATOM     22  C   UNL     1      -4.172  14.289  24.046  0.00  0.00    +0.000 C 
ATOM     23  S   UNL     1      -5.680  13.308  23.753  0.00  0.00    +0.000 S 
ATOM     24  C   UNL     1      -5.558  12.867  22.027  0.00  0.00    +0.000 A 
ATOM     25  C   UNL     1      -6.606  12.099  21.502  0.00  0.00    +0.000 A 
ATOM     26  C   UNL     1      -6.686  11.846  20.133  0.00  0.00    +0.000 A 
ATOM     27  C   UNL     1      -5.744  12.406  19.278  0.00  0.00    +0.000 A 
ATOM     28 BR   UNL     1      -5.933  12.195  17.410  0.00  0.00    +0.000 Br
ATOM     29  C   UNL     1      -4.654  13.110  19.790  0.00  0.00    +0.000 A 
ATOM     30  C   UNL     1      -4.520  13.284  21.177  0.00  0.00    +0.000 A 
ENDBRANCH  19  20
ENDBRANCH  18  19
ENDBRANCH   1  18
TORSDOF 3
ENDMDL
MODEL 3
REMARK VINA RESULT:      -7.6      4.372      9.100
REMARK  Name = 
REMARK  3 active torsions:
REMARK  status: ('A' for Active; 'I' for Inactive)
REMARK    1  A    between atoms: C_2  and  O_3
REMARK    2  A    between atoms: C_2  and  C_15
REMARK    3  A    between atoms: O_3  and  C_4
REMARK                            x       y       z     vdW  Elec       q    Type
REMARK                         _______ _______ _______ _____ _____    ______ ____
ROOT
ATOM      1  C   UNL     1       1.231   8.976  18.881  0.00  0.00    +0.000 C 
ATOM      2  C   UNL     1       1.274  10.513  19.088  0.00  0.00    +0.000 C 
ATOM      3  C   UNL     1       0.006  10.710  19.972  0.00  0.00    +0.000 C 
ATOM      4  C   UNL     1       0.058   9.464  20.874  0.00  0.00    +0.000 C 
ATOM      5  N   UNL     1       1.028   8.519  20.284  0.00  0.00    +0.000 NA
ATOM      6  C   UNL     1      -1.161  10.646  18.931  0.00  0.00    +0.000 C 
ATOM      7  O   UNL     1      -1.622   9.672  18.363  0.00  0.00    +0.000 OA
ATOM      8  N   UNL     1      -1.615  11.946  18.701  0.00  0.00    +0.000 N 
ATOM      9  C   UNL     1      -1.486  12.562  19.948  0.00  0.00    +0.000 A 
ATOM     10  C   UNL     1      -2.554  13.258  20.500  0.00  0.00    +0.000 A 
ATOM     11  C   UNL     1      -2.559  13.461  21.871  0.00  0.00    +0.000 A 
ATOM     12  C   UNL     1      -1.458  13.042  22.635  0.00  0.00    +0.000 A 
ATOM     13  C   UNL     1      -0.394  12.315  22.060  0.00  0.00    +0.000 A 
ATOM     14  C   UNL     1      -0.453  11.986  20.706  0.00  0.00    +0.000 A 
ATOM     15  H   UNL     1       1.922   8.578  20.773  0.00  0.00    +0.000 HD
ATOM     16  H   UNL     1      -0.949  12.398  18.074  0.00  0.00    +0.000 HD
ENDROOT
BRANCH   1  18
ATOM     17  O   UNL     1       2.881   8.546  17.103  0.00  0.00    +0.000 OA
ATOM     18  C   UNL     1       2.317   8.170  18.130  0.00  0.00    +0.000 C 
BRANCH  18  19
ATOM     19  O   UNL     1       2.426   6.929  18.660  0.00  0.00    +0.000 OA
BRANCH  19  20
ATOM     20  C   UNL     1       2.318   5.691  17.887  0.00  0.00    +0.000 C 
ATOM     21  C   UNL     1       1.372   4.723  18.565  0.00  0.00    +0.000 C 
ATOM     22  C   UNL     1       1.642   4.593  20.058  0.00  0.00    +0.000 C 
ATOM     23  S   UNL     1       3.360   4.200  20.520  0.00  0.00    +0.000 S 
ATOM     24  C   UNL     1       4.294   4.657  19.068  0.00  0.00    +0.000 A 
ATOM     25  C   UNL     1       5.679   4.454  19.125  0.00  0.00    +0.000 A 
ATOM     26  C   UNL     1       6.471   4.622  17.989  0.00  0.00    +0.000 A 
ATOM     27  C   UNL     1       5.869   4.943  16.778  0.00  0.00    +0.000 A 
ATOM     28 BR   UNL     1       6.913   5.022  15.206  0.00  0.00    +0.000 Br
ATOM     29  C   UNL     1       4.504   5.221  16.719  0.00  0.00    +0.000 A 
ATOM     30  C   UNL     1       3.720   5.146  17.882  0.00  0.00    +0.000 A 
ENDBRANCH  19  20
ENDBRANCH  18  19
ENDBRANCH   1  18
TORSDOF 3
ENDMDL
MODEL 4
REMARK VINA RESULT:      -7.6      5.992      8.789
REMARK  Name = 
REMARK  3 active torsions:
REMARK  status: ('A' for Active; 'I' for Inactive)
REMARK    1  A    between atoms: C_2  and  O_3
REMARK    2  A    between atoms: C_2  and  C_15
REMARK    3  A    between atoms: O_3  and  C_4
REMARK                            x       y       z     vdW  Elec       q    Type
REMARK                         _______ _______ _______ _____ _____    ______ ____
ROOT
ATOM      1  C   UNL     1      -0.193  10.841  21.535  0.00  0.00    +0.000 C 
ATOM      2  C   UNL     1      -0.432   9.660  20.558  0.00  0.00    +0.000 C 
ATOM      3  C   UNL     1       1.040   9.295  20.199  0.00  0.00    +0.000 C 
ATOM      4  C   UNL     1       1.750   9.495  21.550  0.00  0.00    +0.000 C 
ATOM      5  N   UNL     1       0.835  10.246  22.434  0.00  0.00    +0.000 NA
ATOM      6  C   UNL     1       1.429  10.392  19.151  0.00  0.00    +0.000 C 
ATOM      7  O   UNL     1       1.692  11.566  19.342  0.00  0.00    +0.000 OA
ATOM      8  N   UNL     1       1.402   9.813  17.882  0.00  0.00    +0.000 N 
ATOM      9  C   UNL     1       1.855   8.511  18.106  0.00  0.00    +0.000 A 
ATOM     10  C   UNL     1       2.879   7.981  17.332  0.00  0.00    +0.000 A 
ATOM     11  C   UNL     1       3.593   6.909  17.844  0.00  0.00    +0.000 A 
ATOM     12  C   UNL     1       3.206   6.343  19.069  0.00  0.00    +0.000 A 
ATOM     13  C   UNL     1       2.178   6.912  19.853  0.00  0.00    +0.000 A 
ATOM     14  C   UNL     1       1.552   8.075  19.407  0.00  0.00    +0.000 A 
ATOM     15  H   UNL     1       0.366   9.610  23.081  0.00  0.00    +0.000 HD
ATOM     16  H   UNL     1       0.426   9.746  17.594  0.00  0.00    +0.000 HD
ENDROOT
BRANCH   1  18
ATOM     17  O   UNL     1      -1.368  11.695  23.525  0.00  0.00    +0.000 OA
ATOM     18  C   UNL     1      -1.319  11.575  22.301  0.00  0.00    +0.000 C 
BRANCH  18  19
ATOM     19  O   UNL     1      -2.320  11.906  21.453  0.00  0.00    +0.000 OA
BRANCH  19  20
ATOM     20  C   UNL     1      -2.185  12.858  20.350  0.00  0.00    +0.000 C 
ATOM     21  C   UNL     1      -2.586  14.248  20.797  0.00  0.00    +0.000 C 
ATOM     22  C   UNL     1      -3.899  14.255  21.570  0.00  0.00    +0.000 C 
ATOM     23  S   UNL     1      -5.307  13.444  20.746  0.00  0.00    +0.000 S 
ATOM     24  C   UNL     1      -4.526  12.399  19.526  0.00  0.00    +0.000 A 
ATOM     25  C   UNL     1      -5.378  11.640  18.714  0.00  0.00    +0.000 A 
ATOM     26  C   UNL     1      -4.876  10.924  17.627  0.00  0.00    +0.000 A 
ATOM     27  C   UNL     1      -3.523  11.009  17.319  0.00  0.00    +0.000 A 
ATOM     28 BR   UNL     1      -2.863  10.167  15.762  0.00  0.00    +0.000 Br
ATOM     29  C   UNL     1      -2.650  11.699  18.159  0.00  0.00    +0.000 A 
ATOM     30  C   UNL     1      -3.139  12.341  19.308  0.00  0.00    +0.000 A 
ENDBRANCH  19  20
ENDBRANCH  18  19
ENDBRANCH   1  18
TORSDOF 3
ENDMDL
MODEL 5
REMARK VINA RESULT:      -7.6      4.346      6.767
REMARK  Name = 
REMARK  3 active torsions:
REMARK  status: ('A' for Active; 'I' for Inactive)
REMARK    1  A    between atoms: C_2  and  O_3
REMARK    2  A    between atoms: C_2  and  C_15
REMARK    3  A    between atoms: O_3  and  C_4
REMARK                            x       y       z     vdW  Elec       q    Type
REMARK                         _______ _______ _______ _____ _____    ______ ____
ROOT
ATOM      1  C   UNL     1       2.394   8.169  18.235  0.00  0.00    +0.000 C 
ATOM      2  C   UNL     1       1.793   6.936  17.512  0.00  0.00    +0.000 C 
ATOM      3  C   UNL     1       2.451   5.785  18.332  0.00  0.00    +0.000 C 
ATOM      4  C   UNL     1       2.423   6.362  19.758  0.00  0.00    +0.000 C 
ATOM      5  N   UNL     1       2.131   7.807  19.656  0.00  0.00    +0.000 NA
ATOM      6  C   UNL     1       3.900   5.719  17.743  0.00  0.00    +0.000 C 
ATOM      7  O   UNL     1       4.832   6.481  17.929  0.00  0.00    +0.000 OA
ATOM      8  N   UNL     1       3.978   4.614  16.895  0.00  0.00    +0.000 N 
ATOM      9  C   UNL     1       3.161   3.667  17.516  0.00  0.00    +0.000 A 
ATOM     10  C   UNL     1       3.631   2.380  17.748  0.00  0.00    +0.000 A 
ATOM     11  C   UNL     1       3.005   1.628  18.730  0.00  0.00    +0.000 A 
ATOM     12  C   UNL     1       1.878   2.147  19.386  0.00  0.00    +0.000 A 
ATOM     13  C   UNL     1       1.431   3.466  19.153  0.00  0.00    +0.000 A 
ATOM     14  C   UNL     1       2.144   4.276  18.270  0.00  0.00    +0.000 A 
ATOM     15  H   UNL     1       1.145   7.984  19.854  0.00  0.00    +0.000 HD
ATOM     16  H   UNL     1       3.527   4.868  16.016  0.00  0.00    +0.000 HD
ENDROOT
BRANCH   1  18
ATOM     17  O   UNL     1       2.839  10.509  17.603  0.00  0.00    +0.000 OA
ATOM     18  C   UNL     1       2.026   9.635  17.904  0.00  0.00    +0.000 C 
BRANCH  18  19
ATOM     19  O   UNL     1       0.716   9.857  18.164  0.00  0.00    +0.000 OA
BRANCH  19  20
ATOM     20  C   UNL     1       0.190  10.235  19.477  0.00  0.00    +0.000 C 
ATOM     21  C   UNL     1      -1.263   9.829  19.603  0.00  0.00    +0.000 C 
ATOM     22  C   UNL     1      -2.085  10.218  18.381  0.00  0.00    +0.000 C 
ATOM     23  S   UNL     1      -1.976  11.967  17.879  0.00  0.00    +0.000 S 
ATOM     24  C   UNL     1      -0.476  12.530  18.666  0.00  0.00    +0.000 A 
ATOM     25  C   UNL     1      -0.128  13.872  18.463  0.00  0.00    +0.000 A 
ATOM     26  C   UNL     1       0.929  14.448  19.166  0.00  0.00    +0.000 A 
ATOM     27  C   UNL     1       1.609  13.695  20.116  0.00  0.00    +0.000 A 
ATOM     28 BR   UNL     1       2.940  14.511  21.180  0.00  0.00    +0.000 Br
ATOM     29  C   UNL     1       1.326  12.339  20.278  0.00  0.00    +0.000 A 
ATOM     30  C   UNL     1       0.325  11.733  19.501  0.00  0.00    +0.000 A 
ENDBRANCH  19  20
ENDBRANCH  18  19
ENDBRANCH   1  18
TORSDOF 3
ENDMDL
MODEL 6
REMARK VINA RESULT:      -7.5      1.994      3.049
REMARK  Name = 
REMARK  3 active torsions:
REMARK  status: ('A' for Active; 'I' for Inactive)
REMARK    1  A    between atoms: C_2  and  O_3
REMARK    2  A    between atoms: C_2  and  C_15
REMARK    3  A    between atoms: O_3  and  C_4
REMARK                            x       y       z     vdW  Elec       q    Type
REMARK                         _______ _______ _______ _____ _____    ______ ____
ROOT
ATOM      1  C   UNL     1       5.207   4.356  18.038  0.00  0.00    +0.000 C 
ATOM      2  C   UNL     1       4.975   5.170  16.738  0.00  0.00    +0.000 C 
ATOM      3  C   UNL     1       5.737   4.277  15.713  0.00  0.00    +0.000 C 
ATOM      4  C   UNL     1       5.397   2.863  16.216  0.00  0.00    +0.000 C 
ATOM      5  N   UNL     1       4.833   2.991  17.575  0.00  0.00    +0.000 NA
ATOM      6  C   UNL     1       7.236   4.656  15.963  0.00  0.00    +0.000 C 
ATOM      7  O   UNL     1       7.958   4.332  16.889  0.00  0.00    +0.000 OA
ATOM      8  N   UNL     1       7.653   5.496  14.930  0.00  0.00    +0.000 N 
ATOM      9  C   UNL     1       6.971   5.007  13.814  0.00  0.00    +0.000 A 
ATOM     10  C   UNL     1       7.657   4.724  12.640  0.00  0.00    +0.000 A 
ATOM     11  C   UNL     1       7.072   3.848  11.739  0.00  0.00    +0.000 A 
ATOM     12  C   UNL     1       5.783   3.353  11.995  0.00  0.00    +0.000 A 
ATOM     13  C   UNL     1       5.112   3.633  13.205  0.00  0.00    +0.000 A 
ATOM     14  C   UNL     1       5.757   4.398  14.176  0.00  0.00    +0.000 A 
ATOM     15  H   UNL     1       3.814   2.932  17.542  0.00  0.00    +0.000 HD
ATOM     16  H   UNL     1       7.283   6.428  15.122  0.00  0.00    +0.000 HD
ENDROOT
BRANCH   1  18
ATOM     17  O   UNL     1       4.900   5.715  20.070  0.00  0.00    +0.000 OA
ATOM     18  C   UNL     1       4.595   4.721  19.412  0.00  0.00    +0.000 C 
BRANCH  18  19
ATOM     19  O   UNL     1       3.817   3.707  19.859  0.00  0.00    +0.000 OA
BRANCH  19  20
ATOM     20  C   UNL     1       2.466   3.880  20.395  0.00  0.00    +0.000 C 
ATOM     21  C   UNL     1       1.554   2.778  19.901  0.00  0.00    +0.000 C 
ATOM     22  C   UNL     1       1.687   2.540  18.402  0.00  0.00    +0.000 C 
ATOM     23  S   UNL     1       1.498   4.014  17.348  0.00  0.00    +0.000 S 
ATOM     24  C   UNL     1       1.781   5.369  18.476  0.00  0.00    +0.000 A 
ATOM     25  C   UNL     1       1.691   6.659  17.939  0.00  0.00    +0.000 A 
ATOM     26  C   UNL     1       1.730   7.780  18.769  0.00  0.00    +0.000 A 
ATOM     27  C   UNL     1       1.808   7.608  20.146  0.00  0.00    +0.000 A 
ATOM     28 BR   UNL     1       1.708   9.113  21.284  0.00  0.00    +0.000 Br
ATOM     29  C   UNL     1       1.973   6.336  20.691  0.00  0.00    +0.000 A 
ATOM     30  C   UNL     1       2.030   5.213  19.850  0.00  0.00    +0.000 A 
ENDBRANCH  19  20
ENDBRANCH  18  19
ENDBRANCH   1  18
TORSDOF 3
ENDMDL
MODEL 7
REMARK VINA RESULT:      -7.4      8.747     10.052
REMARK  Name = 
REMARK  3 active torsions:
REMARK  status: ('A' for Active; 'I' for Inactive)
REMARK    1  A    between atoms: C_2  and  O_3
REMARK    2  A    between atoms: C_2  and  C_15
REMARK    3  A    between atoms: O_3  and  C_4
REMARK                            x       y       z     vdW  Elec       q    Type
REMARK                         _______ _______ _______ _____ _____    ______ ____
ROOT
ATOM      1  C   UNL     1       6.471  15.705  19.138  0.00  0.00    +0.000 C 
ATOM      2  C   UNL     1       6.833  14.651  18.060  0.00  0.00    +0.000 C 
ATOM      3  C   UNL     1       8.182  14.120  18.633  0.00  0.00    +0.000 C 
ATOM      4  C   UNL     1       7.897  14.112  20.145  0.00  0.00    +0.000 C 
ATOM      5  N   UNL     1       6.673  14.907  20.379  0.00  0.00    +0.000 NA
ATOM      6  C   UNL     1       9.201  15.235  18.222  0.00  0.00    +0.000 C 
ATOM      7  O   UNL     1       9.351  16.343  18.705  0.00  0.00    +0.000 OA
ATOM      8  N   UNL     1       9.945  14.769  17.137  0.00  0.00    +0.000 N 
ATOM      9  C   UNL     1      10.083  13.404  17.396  0.00  0.00    +0.000 A 
ATOM     10  C   UNL     1      11.336  12.805  17.349  0.00  0.00    +0.000 A 
ATOM     11  C   UNL     1      11.510  11.608  18.026  0.00  0.00    +0.000 A 
ATOM     12  C   UNL     1      10.409  11.003  18.654  0.00  0.00    +0.000 A 
ATOM     13  C   UNL     1       9.151  11.640  18.712  0.00  0.00    +0.000 A 
ATOM     14  C   UNL     1       9.008  12.910  18.154  0.00  0.00    +0.000 A 
ATOM     15  H   UNL     1       5.868  14.290  20.497  0.00  0.00    +0.000 HD
ATOM     16  H   UNL     1       9.362  14.858  16.304  0.00  0.00    +0.000 HD
ENDROOT
BRANCH   1  18
ATOM     17  O   UNL     1       5.094  17.743  19.280  0.00  0.00    +0.000 OA
ATOM     18  C   UNL     1       5.156  16.521  19.148  0.00  0.00    +0.000 C 
BRANCH  18  19
ATOM     19  O   UNL     1       4.091  15.687  19.170  0.00  0.00    +0.000 OA
BRANCH  19  20
ATOM     20  C   UNL     1       3.227  15.424  18.017  0.00  0.00    +0.000 C 
ATOM     21  C   UNL     1       2.448  16.667  17.644  0.00  0.00    +0.000 C 
ATOM     22  C   UNL     1       1.814  17.343  18.852  0.00  0.00    +0.000 C 
ATOM     23  S   UNL     1       0.791  16.271  19.912  0.00  0.00    +0.000 S 
ATOM     24  C   UNL     1       1.335  14.625  19.484  0.00  0.00    +0.000 A 
ATOM     25  C   UNL     1       0.705  13.565  20.149  0.00  0.00    +0.000 A 
ATOM     26  C   UNL     1       0.940  12.245  19.766  0.00  0.00    +0.000 A 
ATOM     27  C   UNL     1       1.769  11.985  18.681  0.00  0.00    +0.000 A 
ATOM     28 BR   UNL     1       1.971  10.211  18.062  0.00  0.00    +0.000 Br
ATOM     29  C   UNL     1       2.461  13.021  18.056  0.00  0.00    +0.000 A 
ATOM     30  C   UNL     1       2.299  14.343  18.502  0.00  0.00    +0.000 A 
ENDBRANCH  19  20
ENDBRANCH  18  19
ENDBRANCH   1  18
TORSDOF 3
ENDMDL
MODEL 8
REMARK VINA RESULT:      -7.4      4.383      6.911
REMARK  Name = 
REMARK  3 active torsions:
REMARK  status: ('A' for Active; 'I' for Inactive)
REMARK    1  A    between atoms: C_2  and  O_3
REMARK    2  A    between atoms: C_2  and  C_15
REMARK    3  A    between atoms: O_3  and  C_4
REMARK                            x       y       z     vdW  Elec       q    Type
REMARK                         _______ _______ _______ _____ _____    ______ ____
ROOT
ATOM      1  C   UNL     1       2.250   8.186  18.521  0.00  0.00    +0.000 C 
ATOM      2  C   UNL     1       1.718   6.997  17.679  0.00  0.00    +0.000 C 
ATOM      3  C   UNL     1       2.396   5.807  18.422  0.00  0.00    +0.000 C 
ATOM      4  C   UNL     1       2.302   6.261  19.890  0.00  0.00    +0.000 C 
ATOM      5  N   UNL     1       1.959   7.698  19.898  0.00  0.00    +0.000 NA
ATOM      6  C   UNL     1       3.863   5.842  17.878  0.00  0.00    +0.000 C 
ATOM      7  O   UNL     1       4.759   6.619  18.157  0.00  0.00    +0.000 OA
ATOM      8  N   UNL     1       4.009   4.815  16.945  0.00  0.00    +0.000 N 
ATOM      9  C   UNL     1       3.211   3.791  17.458  0.00  0.00    +0.000 A 
ATOM     10  C   UNL     1       3.722   2.507  17.598  0.00  0.00    +0.000 A 
ATOM     11  C   UNL     1       3.096   1.653  18.493  0.00  0.00    +0.000 A 
ATOM     12  C   UNL     1       1.931   2.075  19.152  0.00  0.00    +0.000 A 
ATOM     13  C   UNL     1       1.441   3.392  19.015  0.00  0.00    +0.000 A 
ATOM     14  C   UNL     1       2.149   4.298  18.225  0.00  0.00    +0.000 A 
ATOM     15  H   UNL     1       0.961   7.822  20.077  0.00  0.00    +0.000 HD
ATOM     16  H   UNL     1       3.575   5.126  16.075  0.00  0.00    +0.000 HD
ENDROOT
BRANCH   1  18
ATOM     17  O   UNL     1       2.308  10.397  17.434  0.00  0.00    +0.000 OA
ATOM     18  C   UNL     1       1.836   9.661  18.300  0.00  0.00    +0.000 C 
BRANCH  18  19
ATOM     19  O   UNL     1       1.020  10.071  19.300  0.00  0.00    +0.000 OA
BRANCH  19  20
ATOM     20  C   UNL     1       1.448  10.911  20.420  0.00  0.00    +0.000 C 
ATOM     21  C   UNL     1       0.655  10.577  21.666  0.00  0.00    +0.000 C 
ATOM     22  C   UNL     1      -0.841  10.480  21.396  0.00  0.00    +0.000 C 
ATOM     23  S   UNL     1      -1.588  11.915  20.557  0.00  0.00    +0.000 S 
ATOM     24  C   UNL     1      -0.186  12.735  19.814  0.00  0.00    +0.000 A 
ATOM     25  C   UNL     1      -0.457  13.905  19.092  0.00  0.00    +0.000 A 
ATOM     26  C   UNL     1       0.582  14.705  18.617  0.00  0.00    +0.000 A 
ATOM     27  C   UNL     1       1.897  14.363  18.911  0.00  0.00    +0.000 A 
ATOM     28 BR   UNL     1       3.301  15.520  18.404  0.00  0.00    +0.000 Br
ATOM     29  C   UNL     1       2.187  13.165  19.564  0.00  0.00    +0.000 A 
ATOM     30  C   UNL     1       1.145  12.310  19.958  0.00  0.00    +0.000 A 
ENDBRANCH  19  20
ENDBRANCH  18  19
ENDBRANCH   1  18
TORSDOF 3
ENDMDL
MODEL 9
REMARK VINA RESULT:      -7.4      4.476      9.124
REMARK  Name = 
REMARK  3 active torsions:
REMARK  status: ('A' for Active; 'I' for Inactive)
REMARK    1  A    between atoms: C_2  and  O_3
REMARK    2  A    between atoms: C_2  and  C_15
REMARK    3  A    between atoms: O_3  and  C_4
REMARK                            x       y       z     vdW  Elec       q    Type
REMARK                         _______ _______ _______ _____ _____    ______ ____
ROOT
ATOM      1  C   UNL     1       1.346   7.357  20.778  0.00  0.00    +0.000 C 
ATOM      2  C   UNL     1      -0.104   7.848  21.025  0.00  0.00    +0.000 C 
ATOM      3  C   UNL     1       0.144   9.379  21.176  0.00  0.00    +0.000 C 
ATOM      4  C   UNL     1       1.236   9.624  20.120  0.00  0.00    +0.000 C 
ATOM      5  N   UNL     1       1.780   8.310  19.719  0.00  0.00    +0.000 NA
ATOM      6  C   UNL     1       0.686   9.505  22.638  0.00  0.00    +0.000 C 
ATOM      7  O   UNL     1       1.788   9.213  23.069  0.00  0.00    +0.000 OA
ATOM      8  N   UNL     1      -0.339  10.001  23.444  0.00  0.00    +0.000 N 
ATOM      9  C   UNL     1      -1.017  10.886  22.604  0.00  0.00    +0.000 A 
ATOM     10  C   UNL     1      -1.291  12.182  23.023  0.00  0.00    +0.000 A 
ATOM     11  C   UNL     1      -1.542  13.140  22.053  0.00  0.00    +0.000 A 
ATOM     12  C   UNL     1      -1.600  12.758  20.703  0.00  0.00    +0.000 A 
ATOM     13  C   UNL     1      -1.294  11.441  20.295  0.00  0.00    +0.000 A 
ATOM     14  C   UNL     1      -0.903  10.509  21.255  0.00  0.00    +0.000 A 
ATOM     15  H   UNL     1       1.369   8.012  18.833  0.00  0.00    +0.000 HD
ATOM     16  H   UNL     1      -0.976   9.229  23.643  0.00  0.00    +0.000 HD
ENDROOT
BRANCH   1  18
ATOM     17  O   UNL     1       1.118   4.906  20.891  0.00  0.00    +0.000 OA
ATOM     18  C   UNL     1       1.725   5.889  20.466  0.00  0.00    +0.000 C 
BRANCH  18  19
ATOM     19  O   UNL     1       2.911   5.842  19.815  0.00  0.00    +0.000 OA
BRANCH  19  20
ATOM     20  C   UNL     1       3.062   5.989  18.367  0.00  0.00    +0.000 C 
ATOM     21  C   UNL     1       2.271   4.922  17.640  0.00  0.00    +0.000 C 
ATOM     22  C   UNL     1       2.487   3.534  18.229  0.00  0.00    +0.000 C 
ATOM     23  S   UNL     1       4.223   3.006  18.394  0.00  0.00    +0.000 S 
ATOM     24  C   UNL     1       5.130   4.543  18.329  0.00  0.00    +0.000 A 
ATOM     25  C   UNL     1       6.525   4.451  18.426  0.00  0.00    +0.000 A 
ATOM     26  C   UNL     1       7.328   5.572  18.219  0.00  0.00    +0.000 A 
ATOM     27  C   UNL     1       6.738   6.780  17.863  0.00  0.00    +0.000 A 
ATOM     28 BR   UNL     1       7.827   8.262  17.433  0.00  0.00    +0.000 Br
ATOM     29  C   UNL     1       5.350   6.907  17.836  0.00  0.00    +0.000 A 
ATOM     30  C   UNL     1       4.537   5.802  18.138  0.00  0.00    +0.000 A 
ENDBRANCH  19  20
ENDBRANCH  18  19
ENDBRANCH   1  18
TORSDOF 3
ENDMDL
