MODEL 1
REMARK VINA RESULT:      -7.5      0.000      0.000
REMARK  Name = 
REMARK  8 active torsions:
REMARK  status: ('A' for Active; 'I' for Inactive)
REMARK    1  A    between atoms: C_2  and  C_4
REMARK    2  A    between atoms: C_4  and  N_5
REMARK    3  A    between atoms: C_4  and  C_22
REMARK    4  A    between atoms: C_6  and  C_8
REMARK    5  A    between atoms: C_11  and  C_12
REMARK    6  A    between atoms: C_15  and  O_16
REMARK    7  A    between atoms: O_16  and  C_17
REMARK    8  A    between atoms: C_17  and  C_18
REMARK                            x       y       z     vdW  Elec       q    Type
REMARK                         _______ _______ _______ _____ _____    ______ ____
ROOT
ATOM      1  N   UNL     1       1.027  11.341  19.055  0.00  0.00    +0.000 N 
ATOM      2  C   UNL     1       0.823  10.153  19.733  0.00  0.00    +0.000 C 
ATOM      3  O   UNL     1       0.080  10.068  20.706  0.00  0.00    +0.000 OA
ATOM      4  H   UNL     1       1.337  11.284  18.094  0.00  0.00    +0.000 HD
ENDROOT
BRANCH   2   5
ATOM      5  C   UNL     1       1.581   8.966  19.195  0.00  0.00    +0.000 A 
ATOM      6  C   UNL     1       2.126   8.999  17.922  0.00  0.00    +0.000 A 
ATOM      7  C   UNL     1       2.804   7.871  17.471  0.00  0.00    +0.000 A 
ATOM      8  C   UNL     1       2.952   6.726  18.277  0.00  0.00    +0.000 A 
ATOM      9  C   UNL     1       2.380   6.815  19.556  0.00  0.00    +0.000 A 
ATOM     10  N   UNL     1       1.706   7.900  20.016  0.00  0.00    +0.000 NA
BRANCH   8  11
ATOM     11  C   UNL     1       3.706   5.553  17.691  0.00  0.00    +0.000 C 
ATOM     12  C   UNL     1       4.781   5.631  16.640  0.00  0.00    +0.000 C 
ATOM     13  C   UNL     1       5.175   5.441  18.071  0.00  0.00    +0.000 C 
ENDBRANCH   8  11
BRANCH   9  14
ATOM     14  O   UNL     1       2.541   5.743  20.422  0.00  0.00    +0.000 OA
BRANCH  14  15
ATOM     15  C   UNL     1       1.304   5.060  20.662  0.00  0.00    +0.000 C 
BRANCH  15  16
ATOM     16  C   UNL     1       1.465   3.591  20.388  0.00  0.00    +0.000 C 
ATOM     17  C   UNL     1       2.731   2.855  20.750  0.00  0.00    +0.000 C 
ATOM     18  C   UNL     1       1.484   2.634  21.559  0.00  0.00    +0.000 C 
ENDBRANCH  15  16
ENDBRANCH  14  15
ENDBRANCH   9  14
ENDBRANCH   2   5
BRANCH   1  19
ATOM     19  C   UNL     1       0.299  12.546  19.417  0.00  0.00    +0.000 C 
BRANCH  19  20
ATOM     20  C   UNL     1       1.098  13.765  18.976  0.00  0.00    +0.000 A 
ATOM     21  C   UNL     1       0.616  15.056  19.249  0.00  0.00    +0.000 A 
ATOM     22  C   UNL     1       1.341  16.179  18.851  0.00  0.00    +0.000 A 
ATOM     23  C   UNL     1       2.552  16.018  18.189  0.00  0.00    +0.000 A 
ATOM     24  F   UNL     1       3.246  17.099  17.809  0.00  0.00    +0.000 F 
ATOM     25  C   UNL     1       3.055  14.753  17.916  0.00  0.00    +0.000 A 
ATOM     26  C   UNL     1       2.331  13.628  18.309  0.00  0.00    +0.000 A 
ENDBRANCH  19  20
BRANCH  19  28
ATOM     27  N   UNL     1      -1.123  12.585  17.394  0.00  0.00    +0.000 N 
ATOM     28  C   UNL     1      -1.105  12.543  18.763  0.00  0.00    +0.000 C 
ATOM     29  O   UNL     1      -2.153  12.426  19.396  0.00  0.00    +0.000 OA
ATOM     30  H   UNL     1      -2.030  12.632  16.947  0.00  0.00    +0.000 HD
ATOM     31  H   UNL     1      -0.318  12.881  16.859  0.00  0.00    +0.000 HD
ENDBRANCH  19  28
ENDBRANCH   1  19
TORSDOF 8
ENDMDL
MODEL 2
REMARK VINA RESULT:      -7.5      3.105      4.888
REMARK  Name = 
REMARK  8 active torsions:
REMARK  status: ('A' for Active; 'I' for Inactive)
REMARK    1  A    between atoms: C_2  and  C_4
REMARK    2  A    between atoms: C_4  and  N_5
REMARK    3  A    between atoms: C_4  and  C_22
REMARK    4  A    between atoms: C_6  and  C_8
REMARK    5  A    between atoms: C_11  and  C_12
REMARK    6  A    between atoms: C_15  and  O_16
REMARK    7  A    between atoms: O_16  and  C_17
REMARK    8  A    between atoms: C_17  and  C_18
REMARK                            x       y       z     vdW  Elec       q    Type
REMARK                         _______ _______ _______ _____ _____    ______ ____
ROOT
ATOM      1  N   UNL     1       0.769   9.477  19.125  0.00  0.00    +0.000 N 
ATOM      2  C   UNL     1       1.766   8.820  18.425  0.00  0.00    +0.000 C 
ATOM      3  O   UNL     1       2.337   9.324  17.463  0.00  0.00    +0.000 OA
ATOM      4  H   UNL     1       0.601   9.188  20.078  0.00  0.00    +0.000 HD
ENDROOT
BRANCH   2   5
ATOM      5  C   UNL     1       2.100   7.438  18.925  0.00  0.00    +0.000 A 
ATOM      6  C   UNL     1       1.728   7.043  20.199  0.00  0.00    +0.000 A 
ATOM      7  C   UNL     1       2.074   5.761  20.614  0.00  0.00    +0.000 A 
ATOM      8  C   UNL     1       2.771   4.875  19.771  0.00  0.00    +0.000 A 
ATOM      9  C   UNL     1       3.075   5.374  18.494  0.00  0.00    +0.000 A 
ATOM     10  N   UNL     1       2.756   6.623  18.069  0.00  0.00    +0.000 NA
BRANCH   8  11
ATOM     11  C   UNL     1       3.100   3.503  20.320  0.00  0.00    +0.000 C 
ATOM     12  C   UNL     1       2.415   2.829  21.478  0.00  0.00    +0.000 C 
ATOM     13  C   UNL     1       2.061   2.419  20.083  0.00  0.00    +0.000 C 
ENDBRANCH   8  11
BRANCH   9  14
ATOM     14  O   UNL     1       3.708   4.530  17.594  0.00  0.00    +0.000 OA
BRANCH  14  15
ATOM     15  C   UNL     1       4.987   5.039  17.196  0.00  0.00    +0.000 C 
BRANCH  15  16
ATOM     16  C   UNL     1       6.059   4.512  18.109  0.00  0.00    +0.000 C 
ATOM     17  C   UNL     1       7.518   4.816  17.874  0.00  0.00    +0.000 C 
ATOM     18  C   UNL     1       6.790   5.486  19.006  0.00  0.00    +0.000 C 
ENDBRANCH  15  16
ENDBRANCH  14  15
ENDBRANCH   9  14
ENDBRANCH   2   5
BRANCH   1  19
ATOM     19  C   UNL     1       0.402  10.846  18.800  0.00  0.00    +0.000 C 
BRANCH  19  20
ATOM     20  C   UNL     1      -1.070  10.890  18.415  0.00  0.00    +0.000 A 
ATOM     21  C   UNL     1      -1.563  10.018  17.429  0.00  0.00    +0.000 A 
ATOM     22  C   UNL     1      -2.911  10.049  17.069  0.00  0.00    +0.000 A 
ATOM     23  C   UNL     1      -3.771  10.941  17.697  0.00  0.00    +0.000 A 
ATOM     24  F   UNL     1      -5.064  10.967  17.349  0.00  0.00    +0.000 F 
ATOM     25  C   UNL     1      -3.311  11.806  18.682  0.00  0.00    +0.000 A 
ATOM     26  C   UNL     1      -1.963  11.781  19.041  0.00  0.00    +0.000 A 
ENDBRANCH  19  20
BRANCH  19  28
ATOM     27  N   UNL     1       0.619  11.189  21.239  0.00  0.00    +0.000 N 
ATOM     28  C   UNL     1       0.684  11.778  20.004  0.00  0.00    +0.000 C 
ATOM     29  O   UNL     1       1.028  12.954  19.892  0.00  0.00    +0.000 OA
ATOM     30  H   UNL     1       0.753  11.790  22.043  0.00  0.00    +0.000 HD
ATOM     31  H   UNL     1       0.154  10.304  21.385  0.00  0.00    +0.000 HD
ENDBRANCH  19  28
ENDBRANCH   1  19
TORSDOF 8
ENDMDL
MODEL 3
REMARK VINA RESULT:      -7.5      3.228      3.976
REMARK  Name = 
REMARK  8 active torsions:
REMARK  status: ('A' for Active; 'I' for Inactive)
REMARK    1  A    between atoms: C_2  and  C_4
REMARK    2  A    between atoms: C_4  and  N_5
REMARK    3  A    between atoms: C_4  and  C_22
REMARK    4  A    between atoms: C_6  and  C_8
REMARK    5  A    between atoms: C_11  and  C_12
REMARK    6  A    between atoms: C_15  and  O_16
REMARK    7  A    between atoms: O_16  and  C_17
REMARK    8  A    between atoms: C_17  and  C_18
REMARK                            x       y       z     vdW  Elec       q    Type
REMARK                         _______ _______ _______ _____ _____    ______ ____
ROOT
ATOM      1  N   UNL     1       0.562   9.841  19.581  0.00  0.00    +0.000 N 
ATOM      2  C   UNL     1       1.614   9.761  18.686  0.00  0.00    +0.000 C 
ATOM      3  O   UNL     1       1.983  10.720  18.015  0.00  0.00    +0.000 OA
ATOM      4  H   UNL     1       0.538   9.170  20.335  0.00  0.00    +0.000 HD
ENDROOT
BRANCH   2   5
ATOM      5  C   UNL     1       2.277   8.411  18.591  0.00  0.00    +0.000 A 
ATOM      6  C   UNL     1       3.091   8.102  17.514  0.00  0.00    +0.000 A 
ATOM      7  C   UNL     1       3.667   6.837  17.470  0.00  0.00    +0.000 A 
ATOM      8  C   UNL     1       3.449   5.891  18.490  0.00  0.00    +0.000 A 
ATOM      9  C   UNL     1       2.627   6.321  19.543  0.00  0.00    +0.000 A 
ATOM     10  N   UNL     1       2.047   7.547  19.605  0.00  0.00    +0.000 NA
BRANCH   8  11
ATOM     11  C   UNL     1       4.122   4.542  18.346  0.00  0.00    +0.000 C 
ATOM     12  C   UNL     1       5.151   4.176  17.311  0.00  0.00    +0.000 C 
ATOM     13  C   UNL     1       5.599   4.488  18.704  0.00  0.00    +0.000 C 
ENDBRANCH   8  11
BRANCH   9  14
ATOM     14  O   UNL     1       2.420   5.458  20.609  0.00  0.00    +0.000 OA
BRANCH  14  15
ATOM     15  C   UNL     1       1.183   4.746  20.487  0.00  0.00    +0.000 C 
BRANCH  15  16
ATOM     16  C   UNL     1       1.438   3.265  20.495  0.00  0.00    +0.000 C 
ATOM     17  C   UNL     1       2.692   2.682  21.099  0.00  0.00    +0.000 C 
ATOM     18  C   UNL     1       1.379   2.526  21.814  0.00  0.00    +0.000 C 
ENDBRANCH  15  16
ENDBRANCH  14  15
ENDBRANCH   9  14
ENDBRANCH   2   5
BRANCH   1  19
ATOM     19  C   UNL     1      -0.116  11.104  19.831  0.00  0.00    +0.000 C 
BRANCH  19  20
ATOM     20  C   UNL     1      -1.486  11.074  19.170  0.00  0.00    +0.000 A 
ATOM     21  C   UNL     1      -1.799  10.062  18.247  0.00  0.00    +0.000 A 
ATOM     22  C   UNL     1      -3.053  10.025  17.636  0.00  0.00    +0.000 A 
ATOM     23  C   UNL     1      -4.001  10.991  17.951  0.00  0.00    +0.000 A 
ATOM     24  F   UNL     1      -5.203  10.951  17.363  0.00  0.00    +0.000 F 
ATOM     25  C   UNL     1      -3.720  11.996  18.867  0.00  0.00    +0.000 A 
ATOM     26  C   UNL     1      -2.467  12.038  19.477  0.00  0.00    +0.000 A 
ENDBRANCH  19  20
BRANCH  19  28
ATOM     27  N   UNL     1      -0.690  10.288  22.094  0.00  0.00    +0.000 N 
ATOM     28  C   UNL     1      -0.245  11.352  21.354  0.00  0.00    +0.000 C 
ATOM     29  O   UNL     1       0.102  12.394  21.908  0.00  0.00    +0.000 OA
ATOM     30  H   UNL     1      -0.827  10.443  23.085  0.00  0.00    +0.000 HD
ATOM     31  H   UNL     1      -1.166   9.505  21.669  0.00  0.00    +0.000 HD
ENDBRANCH  19  28
ENDBRANCH   1  19
TORSDOF 8
ENDMDL
MODEL 4
REMARK VINA RESULT:      -7.4      3.035      4.974
REMARK  Name = 
REMARK  8 active torsions:
REMARK  status: ('A' for Active; 'I' for Inactive)
REMARK    1  A    between atoms: C_2  and  C_4
REMARK    2  A    between atoms: C_4  and  N_5
REMARK    3  A    between atoms: C_4  and  C_22
REMARK    4  A    between atoms: C_6  and  C_8
REMARK    5  A    between atoms: C_11  and  C_12
REMARK    6  A    between atoms: C_15  and  O_16
REMARK    7  A    between atoms: O_16  and  C_17
REMARK    8  A    between atoms: C_17  and  C_18
REMARK                            x       y       z     vdW  Elec       q    Type
REMARK                         _______ _______ _______ _____ _____    ______ ____
ROOT
ATOM      1  N   UNL     1       1.023   9.358  19.222  0.00  0.00    +0.000 N 
ATOM      2  C   UNL     1       1.916   8.635  18.451  0.00  0.00    +0.000 C 
ATOM      3  O   UNL     1       2.443   9.098  17.444  0.00  0.00    +0.000 OA
ATOM      4  H   UNL     1       0.910   9.083  20.188  0.00  0.00    +0.000 HD
ENDROOT
BRANCH   2   5
ATOM      5  C   UNL     1       2.195   7.235  18.933  0.00  0.00    +0.000 A 
ATOM      6  C   UNL     1       1.899   6.868  20.235  0.00  0.00    +0.000 A 
ATOM      7  C   UNL     1       2.189   5.566  20.631  0.00  0.00    +0.000 A 
ATOM      8  C   UNL     1       2.757   4.633  19.742  0.00  0.00    +0.000 A 
ATOM      9  C   UNL     1       2.992   5.109  18.442  0.00  0.00    +0.000 A 
ATOM     10  N   UNL     1       2.725   6.376  18.034  0.00  0.00    +0.000 NA
BRANCH   8  11
ATOM     11  C   UNL     1       3.035   3.243  20.273  0.00  0.00    +0.000 C 
ATOM     12  C   UNL     1       2.334   2.585  21.430  0.00  0.00    +0.000 C 
ATOM     13  C   UNL     1       1.951   2.204  20.034  0.00  0.00    +0.000 C 
ENDBRANCH   8  11
BRANCH   9  14
ATOM     14  O   UNL     1       3.496   4.223  17.501  0.00  0.00    +0.000 OA
BRANCH  14  15
ATOM     15  C   UNL     1       4.922   4.312  17.392  0.00  0.00    +0.000 C 
BRANCH  15  16
ATOM     16  C   UNL     1       5.303   4.844  16.040  0.00  0.00    +0.000 C 
ATOM     17  C   UNL     1       6.746   5.057  15.652  0.00  0.00    +0.000 C 
ATOM     18  C   UNL     1       5.975   3.911  15.057  0.00  0.00    +0.000 C 
ENDBRANCH  15  16
ENDBRANCH  14  15
ENDBRANCH   9  14
ENDBRANCH   2   5
BRANCH   1  19
ATOM     19  C   UNL     1       0.724  10.748  18.917  0.00  0.00    +0.000 C 
BRANCH  19  20
ATOM     20  C   UNL     1      -0.758  10.881  18.594  0.00  0.00    +0.000 A 
ATOM     21  C   UNL     1      -1.347  10.031  17.643  0.00  0.00    +0.000 A 
ATOM     22  C   UNL     1      -2.704  10.143  17.340  0.00  0.00    +0.000 A 
ATOM     23  C   UNL     1      -3.479  11.095  17.991  0.00  0.00    +0.000 A 
ATOM     24  F   UNL     1      -4.782  11.199  17.698  0.00  0.00    +0.000 F 
ATOM     25  C   UNL     1      -2.923  11.940  18.942  0.00  0.00    +0.000 A 
ATOM     26  C   UNL     1      -1.566  11.834  19.245  0.00  0.00    +0.000 A 
ENDBRANCH  19  20
BRANCH  19  28
ATOM     27  N   UNL     1       1.562  12.907  19.785  0.00  0.00    +0.000 N 
ATOM     28  C   UNL     1       1.109  11.656  20.112  0.00  0.00    +0.000 C 
ATOM     29  O   UNL     1       0.952  11.338  21.290  0.00  0.00    +0.000 OA
ATOM     30  H   UNL     1       1.865  13.500  20.548  0.00  0.00    +0.000 HD
ATOM     31  H   UNL     1       1.890  13.130  18.856  0.00  0.00    +0.000 HD
ENDBRANCH  19  28
ENDBRANCH   1  19
TORSDOF 8
ENDMDL
MODEL 5
REMARK VINA RESULT:      -7.4      3.253      3.979
REMARK  Name = 
REMARK  8 active torsions:
REMARK  status: ('A' for Active; 'I' for Inactive)
REMARK    1  A    between atoms: C_2  and  C_4
REMARK    2  A    between atoms: C_4  and  N_5
REMARK    3  A    between atoms: C_4  and  C_22
REMARK    4  A    between atoms: C_6  and  C_8
REMARK    5  A    between atoms: C_11  and  C_12
REMARK    6  A    between atoms: C_15  and  O_16
REMARK    7  A    between atoms: O_16  and  C_17
REMARK    8  A    between atoms: C_17  and  C_18
REMARK                            x       y       z     vdW  Elec       q    Type
REMARK                         _______ _______ _______ _____ _____    ______ ____
ROOT
ATOM      1  N   UNL     1       0.819   9.629  18.932  0.00  0.00    +0.000 N 
ATOM      2  C   UNL     1       1.944   9.592  18.128  0.00  0.00    +0.000 C 
ATOM      3  O   UNL     1       2.407  10.596  17.597  0.00  0.00    +0.000 OA
ATOM      4  H   UNL     1       0.703   8.885  19.607  0.00  0.00    +0.000 HD
ENDROOT
BRANCH   2   5
ATOM      5  C   UNL     1       2.562   8.229  17.947  0.00  0.00    +0.000 A 
ATOM      6  C   UNL     1       3.782   8.090  17.305  0.00  0.00    +0.000 A 
ATOM      7  C   UNL     1       4.299   6.808  17.154  0.00  0.00    +0.000 A 
ATOM      8  C   UNL     1       3.623   5.675  17.646  0.00  0.00    +0.000 A 
ATOM      9  C   UNL     1       2.409   5.938  18.300  0.00  0.00    +0.000 A 
ATOM     10  N   UNL     1       1.878   7.179  18.452  0.00  0.00    +0.000 NA
BRANCH   8  11
ATOM     11  C   UNL     1       4.272   4.325  17.429  0.00  0.00    +0.000 C 
ATOM     12  C   UNL     1       5.729   4.085  17.137  0.00  0.00    +0.000 C 
ATOM     13  C   UNL     1       5.216   3.851  18.523  0.00  0.00    +0.000 C 
ENDBRANCH   8  11
BRANCH   9  14
ATOM     14  O   UNL     1       1.721   4.872  18.860  0.00  0.00    +0.000 OA
BRANCH  14  15
ATOM     15  C   UNL     1       1.701   4.941  20.291  0.00  0.00    +0.000 C 
BRANCH  15  16
ATOM     16  C   UNL     1       1.295   3.613  20.865  0.00  0.00    +0.000 C 
ATOM     17  C   UNL     1       1.728   2.313  20.234  0.00  0.00    +0.000 C 
ATOM     18  C   UNL     1       2.351   2.756  21.528  0.00  0.00    +0.000 C 
ENDBRANCH  15  16
ENDBRANCH  14  15
ENDBRANCH   9  14
ENDBRANCH   2   5
BRANCH   1  19
ATOM     19  C   UNL     1       0.169  10.888  19.256  0.00  0.00    +0.000 C 
BRANCH  19  20
ATOM     20  C   UNL     1      -1.253  10.871  18.714  0.00  0.00    +0.000 A 
ATOM     21  C   UNL     1      -2.186  11.823  19.159  0.00  0.00    +0.000 A 
ATOM     22  C   UNL     1      -3.491  11.816  18.668  0.00  0.00    +0.000 A 
ATOM     23  C   UNL     1      -3.867  10.868  17.724  0.00  0.00    +0.000 A 
ATOM     24  F   UNL     1      -5.122  10.866  17.254  0.00  0.00    +0.000 F 
ATOM     25  C   UNL     1      -2.962   9.923  17.260  0.00  0.00    +0.000 A 
ATOM     26  C   UNL     1      -1.657   9.924  17.752  0.00  0.00    +0.000 A 
ENDBRANCH  19  20
BRANCH  19  28
ATOM     27  N   UNL     1      -0.353  10.099  21.541  0.00  0.00    +0.000 N 
ATOM     28  C   UNL     1       0.171  11.116  20.788  0.00  0.00    +0.000 C 
ATOM     29  O   UNL     1       0.678  12.096  21.332  0.00  0.00    +0.000 OA
ATOM     30  H   UNL     1      -0.405  10.246  22.541  0.00  0.00    +0.000 HD
ATOM     31  H   UNL     1      -0.948   9.388  21.137  0.00  0.00    +0.000 HD
ENDBRANCH  19  28
ENDBRANCH   1  19
TORSDOF 8
ENDMDL
MODEL 6
REMARK VINA RESULT:      -7.3      3.445      4.973
REMARK  Name = 
REMARK  8 active torsions:
REMARK  status: ('A' for Active; 'I' for Inactive)
REMARK    1  A    between atoms: C_2  and  C_4
REMARK    2  A    between atoms: C_4  and  N_5
REMARK    3  A    between atoms: C_4  and  C_22
REMARK    4  A    between atoms: C_6  and  C_8
REMARK    5  A    between atoms: C_11  and  C_12
REMARK    6  A    between atoms: C_15  and  O_16
REMARK    7  A    between atoms: O_16  and  C_17
REMARK    8  A    between atoms: C_17  and  C_18
REMARK                            x       y       z     vdW  Elec       q    Type
REMARK                         _______ _______ _______ _____ _____    ______ ____
ROOT
ATOM      1  N   UNL     1       1.015   9.482  19.424  0.00  0.00    +0.000 N 
ATOM      2  C   UNL     1       1.993   9.217  18.482  0.00  0.00    +0.000 C 
ATOM      3  O   UNL     1       2.357  10.050  17.658  0.00  0.00    +0.000 OA
ATOM      4  H   UNL     1       1.015   8.923  20.267  0.00  0.00    +0.000 HD
ENDROOT
BRANCH   2   5
ATOM      5  C   UNL     1       2.578   7.829  18.534  0.00  0.00    +0.000 A 
ATOM      6  C   UNL     1       2.297   6.988  19.598  0.00  0.00    +0.000 A 
ATOM      7  C   UNL     1       2.875   5.722  19.602  0.00  0.00    +0.000 A 
ATOM      8  C   UNL     1       3.714   5.290  18.557  0.00  0.00    +0.000 A 
ATOM      9  C   UNL     1       3.908   6.216  17.521  0.00  0.00    +0.000 A 
ATOM     10  N   UNL     1       3.363   7.460  17.498  0.00  0.00    +0.000 NA
BRANCH   8  11
ATOM     11  C   UNL     1       4.292   3.895  18.659  0.00  0.00    +0.000 C 
ATOM     12  C   UNL     1       3.685   2.740  19.409  0.00  0.00    +0.000 C 
ATOM     13  C   UNL     1       3.538   2.800  17.921  0.00  0.00    +0.000 C 
ENDBRANCH   8  11
BRANCH   9  14
ATOM     14  O   UNL     1       4.676   5.831  16.432  0.00  0.00    +0.000 OA
BRANCH  14  15
ATOM     15  C   UNL     1       6.076   6.027  16.669  0.00  0.00    +0.000 C 
BRANCH  15  16
ATOM     16  C   UNL     1       6.859   4.868  16.118  0.00  0.00    +0.000 C 
ATOM     17  C   UNL     1       6.184   3.736  15.384  0.00  0.00    +0.000 C 
ATOM     18  C   UNL     1       7.002   4.737  14.618  0.00  0.00    +0.000 C 
ENDBRANCH  15  16
ENDBRANCH  14  15
ENDBRANCH   9  14
ENDBRANCH   2   5
BRANCH   1  19
ATOM     19  C   UNL     1       0.422  10.805  19.539  0.00  0.00    +0.000 C 
BRANCH  19  20
ATOM     20  C   UNL     1      -0.940  10.801  18.859  0.00  0.00    +0.000 A 
ATOM     21  C   UNL     1      -1.934  11.703  19.276  0.00  0.00    +0.000 A 
ATOM     22  C   UNL     1      -3.185  11.709  18.659  0.00  0.00    +0.000 A 
ATOM     23  C   UNL     1      -3.445  10.825  17.619  0.00  0.00    +0.000 A 
ATOM     24  F   UNL     1      -4.647  10.835  17.029  0.00  0.00    +0.000 F 
ATOM     25  C   UNL     1      -2.476   9.932  17.181  0.00  0.00    +0.000 A 
ATOM     26  C   UNL     1      -1.226   9.919  17.798  0.00  0.00    +0.000 A 
ENDBRANCH  19  20
BRANCH  19  28
ATOM     27  N   UNL     1      -0.232  10.256  21.859  0.00  0.00    +0.000 N 
ATOM     28  C   UNL     1       0.293  11.210  21.028  0.00  0.00    +0.000 C 
ATOM     29  O   UNL     1       0.703  12.276  21.483  0.00  0.00    +0.000 OA
ATOM     30  H   UNL     1      -0.370  10.516  22.828  0.00  0.00    +0.000 HD
ATOM     31  H   UNL     1      -0.756   9.468  21.504  0.00  0.00    +0.000 HD
ENDBRANCH  19  28
ENDBRANCH   1  19
TORSDOF 8
ENDMDL
MODEL 7
REMARK VINA RESULT:      -7.3      0.689      1.300
REMARK  Name = 
REMARK  8 active torsions:
REMARK  status: ('A' for Active; 'I' for Inactive)
REMARK    1  A    between atoms: C_2  and  C_4
REMARK    2  A    between atoms: C_4  and  N_5
REMARK    3  A    between atoms: C_4  and  C_22
REMARK    4  A    between atoms: C_6  and  C_8
REMARK    5  A    between atoms: C_11  and  C_12
REMARK    6  A    between atoms: C_15  and  O_16
REMARK    7  A    between atoms: O_16  and  C_17
REMARK    8  A    between atoms: C_17  and  C_18
REMARK                            x       y       z     vdW  Elec       q    Type
REMARK                         _______ _______ _______ _____ _____    ______ ____
ROOT
ATOM      1  N   UNL     1       0.730  11.186  19.009  0.00  0.00    +0.000 N 
ATOM      2  C   UNL     1       0.756   9.996  19.716  0.00  0.00    +0.000 C 
ATOM      3  O   UNL     1       0.125   9.834  20.756  0.00  0.00    +0.000 OA
ATOM      4  H   UNL     1       0.954  11.149  18.024  0.00  0.00    +0.000 HD
ENDROOT
BRANCH   2   5
ATOM      5  C   UNL     1       1.616   8.912  19.120  0.00  0.00    +0.000 A 
ATOM      6  C   UNL     1       2.159   9.062  17.854  0.00  0.00    +0.000 A 
ATOM      7  C   UNL     1       2.934   8.024  17.347  0.00  0.00    +0.000 A 
ATOM      8  C   UNL     1       3.181   6.855  18.092  0.00  0.00    +0.000 A 
ATOM      9  C   UNL     1       2.602   6.823  19.370  0.00  0.00    +0.000 A 
ATOM     10  N   UNL     1       1.834   7.819  19.883  0.00  0.00    +0.000 NA
BRANCH   8  11
ATOM     11  C   UNL     1       4.038   5.786  17.448  0.00  0.00    +0.000 C 
ATOM     12  C   UNL     1       5.055   6.006  16.361  0.00  0.00    +0.000 C 
ATOM     13  C   UNL     1       5.523   5.831  17.771  0.00  0.00    +0.000 C 
ENDBRANCH   8  11
BRANCH   9  14
ATOM     14  O   UNL     1       2.855   5.725  20.178  0.00  0.00    +0.000 OA
BRANCH  14  15
ATOM     15  C   UNL     1       1.678   4.935  20.390  0.00  0.00    +0.000 C 
BRANCH  15  16
ATOM     16  C   UNL     1       1.847   3.580  19.763  0.00  0.00    +0.000 C 
ATOM     17  C   UNL     1       0.659   2.721  19.407  0.00  0.00    +0.000 C 
ATOM     18  C   UNL     1       1.444   3.395  18.317  0.00  0.00    +0.000 C 
ENDBRANCH  15  16
ENDBRANCH  14  15
ENDBRANCH   9  14
ENDBRANCH   2   5
BRANCH   1  19
ATOM     19  C   UNL     1      -0.121  12.289  19.427  0.00  0.00    +0.000 C 
BRANCH  19  20
ATOM     20  C   UNL     1       0.595  13.604  19.152  0.00  0.00    +0.000 A 
ATOM     21  C   UNL     1       1.860  13.599  18.540  0.00  0.00    +0.000 A 
ATOM     22  C   UNL     1       2.524  14.799  18.282  0.00  0.00    +0.000 A 
ATOM     23  C   UNL     1       1.925  16.005  18.624  0.00  0.00    +0.000 A 
ATOM     24  F   UNL     1       2.566  17.154  18.374  0.00  0.00    +0.000 F 
ATOM     25  C   UNL     1       0.671  16.037  19.221  0.00  0.00    +0.000 A 
ATOM     26  C   UNL     1       0.006  14.840  19.484  0.00  0.00    +0.000 A 
ENDBRANCH  19  20
BRANCH  19  28
ATOM     27  N   UNL     1      -1.419  12.424  17.327  0.00  0.00    +0.000 N 
ATOM     28  C   UNL     1      -1.477  12.234  18.682  0.00  0.00    +0.000 C 
ATOM     29  O   UNL     1      -2.545  11.956  19.227  0.00  0.00    +0.000 OA
ATOM     30  H   UNL     1      -2.298  12.440  16.827  0.00  0.00    +0.000 HD
ATOM     31  H   UNL     1      -0.615  12.846  16.882  0.00  0.00    +0.000 HD
ENDBRANCH  19  28
ENDBRANCH   1  19
TORSDOF 8
ENDMDL
MODEL 8
REMARK VINA RESULT:      -7.3      3.723      8.197
REMARK  Name = 
REMARK  8 active torsions:
REMARK  status: ('A' for Active; 'I' for Inactive)
REMARK    1  A    between atoms: C_2  and  C_4
REMARK    2  A    between atoms: C_4  and  N_5
REMARK    3  A    between atoms: C_4  and  C_22
REMARK    4  A    between atoms: C_6  and  C_8
REMARK    5  A    between atoms: C_11  and  C_12
REMARK    6  A    between atoms: C_15  and  O_16
REMARK    7  A    between atoms: O_16  and  C_17
REMARK    8  A    between atoms: C_17  and  C_18
REMARK                            x       y       z     vdW  Elec       q    Type
REMARK                         _______ _______ _______ _____ _____    ______ ____
ROOT
ATOM      1  N   UNL     1       2.344   6.893  18.461  0.00  0.00    +0.000 N 
ATOM      2  C   UNL     1       2.147   8.202  18.060  0.00  0.00    +0.000 C 
ATOM      3  O   UNL     1       2.638   8.657  17.032  0.00  0.00    +0.000 OA
ATOM      4  H   UNL     1       1.656   6.485  19.079  0.00  0.00    +0.000 HD
ENDROOT
BRANCH   2   5
ATOM      5  C   UNL     1       1.286   9.033  18.976  0.00  0.00    +0.000 A 
ATOM      6  C   UNL     1       1.156   8.699  20.314  0.00  0.00    +0.000 A 
ATOM      7  C   UNL     1       0.339   9.493  21.111  0.00  0.00    +0.000 A 
ATOM      8  C   UNL     1      -0.334  10.615  20.591  0.00  0.00    +0.000 A 
ATOM      9  C   UNL     1      -0.110  10.873  19.230  0.00  0.00    +0.000 A 
ATOM     10  N   UNL     1       0.676  10.108  18.429  0.00  0.00    +0.000 NA
BRANCH   8  11
ATOM     11  C   UNL     1      -1.200  11.412  21.543  0.00  0.00    +0.000 C 
ATOM     12  C   UNL     1      -1.084  11.421  23.044  0.00  0.00    +0.000 C 
ATOM     13  C   UNL     1      -0.519  12.566  22.263  0.00  0.00    +0.000 C 
ENDBRANCH   8  11
BRANCH   9  14
ATOM     14  O   UNL     1      -0.696  11.998  18.669  0.00  0.00    +0.000 OA
BRANCH  14  15
ATOM     15  C   UNL     1      -1.584  11.659  17.597  0.00  0.00    +0.000 C 
BRANCH  15  16
ATOM     16  C   UNL     1      -2.845  11.051  18.145  0.00  0.00    +0.000 C 
ATOM     17  C   UNL     1      -4.087  10.912  17.300  0.00  0.00    +0.000 C 
ATOM     18  C   UNL     1      -3.275   9.693  17.637  0.00  0.00    +0.000 C 
ENDBRANCH  15  16
ENDBRANCH  14  15
ENDBRANCH   9  14
ENDBRANCH   2   5
BRANCH   1  19
ATOM     19  C   UNL     1       3.087   5.957  17.632  0.00  0.00    +0.000 C 
BRANCH  19  20
ATOM     20  C   UNL     1       4.564   6.037  17.990  0.00  0.00    +0.000 A 
ATOM     21  C   UNL     1       5.050   5.356  19.119  0.00  0.00    +0.000 A 
ATOM     22  C   UNL     1       6.402   5.421  19.456  0.00  0.00    +0.000 A 
ATOM     23  C   UNL     1       7.275   6.155  18.663  0.00  0.00    +0.000 A 
ATOM     24  F   UNL     1       8.573   6.214  18.989  0.00  0.00    +0.000 F 
ATOM     25  C   UNL     1       6.822   6.829  17.536  0.00  0.00    +0.000 A 
ATOM     26  C   UNL     1       5.470   6.769  17.198  0.00  0.00    +0.000 A 
ENDBRANCH  19  20
BRANCH  19  28
ATOM     27  N   UNL     1       1.698   4.342  18.888  0.00  0.00    +0.000 N 
ATOM     28  C   UNL     1       2.549   4.518  17.829  0.00  0.00    +0.000 C 
ATOM     29  O   UNL     1       2.782   3.590  17.056  0.00  0.00    +0.000 OA
ATOM     30  H   UNL     1       1.372   3.400  19.064  0.00  0.00    +0.000 HD
ATOM     31  H   UNL     1       1.644   5.009  19.645  0.00  0.00    +0.000 HD
ENDBRANCH  19  28
ENDBRANCH   1  19
TORSDOF 8
ENDMDL
MODEL 9
REMARK VINA RESULT:      -7.2      1.690      2.182
REMARK  Name = 
REMARK  8 active torsions:
REMARK  status: ('A' for Active; 'I' for Inactive)
REMARK    1  A    between atoms: C_2  and  C_4
REMARK    2  A    between atoms: C_4  and  N_5
REMARK    3  A    between atoms: C_4  and  C_22
REMARK    4  A    between atoms: C_6  and  C_8
REMARK    5  A    between atoms: C_11  and  C_12
REMARK    6  A    between atoms: C_15  and  O_16
REMARK    7  A    between atoms: O_16  and  C_17
REMARK    8  A    between atoms: C_17  and  C_18
REMARK                            x       y       z     vdW  Elec       q    Type
REMARK                         _______ _______ _______ _____ _____    ______ ____
ROOT
ATOM      1  N   UNL     1       1.479   9.371  18.871  0.00  0.00    +0.000 N 
ATOM      2  C   UNL     1       1.863   8.235  19.561  0.00  0.00    +0.000 C 
ATOM      3  O   UNL     1       1.534   8.028  20.725  0.00  0.00    +0.000 OA
ATOM      4  H   UNL     1       1.463   9.321  17.862  0.00  0.00    +0.000 HD
ENDROOT
BRANCH   2   5
ATOM      5  C   UNL     1       2.717   7.267  18.784  0.00  0.00    +0.000 A 
ATOM      6  C   UNL     1       3.354   7.669  17.622  0.00  0.00    +0.000 A 
ATOM      7  C   UNL     1       4.119   6.730  16.937  0.00  0.00    +0.000 A 
ATOM      8  C   UNL     1       4.263   5.410  17.405  0.00  0.00    +0.000 A 
ATOM      9  C   UNL     1       3.593   5.123  18.605  0.00  0.00    +0.000 A 
ATOM     10  N   UNL     1       2.833   6.018  19.287  0.00  0.00    +0.000 NA
BRANCH   8  11
ATOM     11  C   UNL     1       5.117   4.468  16.584  0.00  0.00    +0.000 C 
ATOM     12  C   UNL     1       6.050   4.866  15.473  0.00  0.00    +0.000 C 
ATOM     13  C   UNL     1       6.617   4.545  16.820  0.00  0.00    +0.000 C 
ENDBRANCH   8  11
BRANCH   9  14
ATOM     14  O   UNL     1       3.741   3.857  19.151  0.00  0.00    +0.000 OA
BRANCH  14  15
ATOM     15  C   UNL     1       2.641   3.000  18.821  0.00  0.00    +0.000 C 
BRANCH  15  16
ATOM     16  C   UNL     1       2.042   2.424  20.074  0.00  0.00    +0.000 C 
ATOM     17  C   UNL     1       2.323   3.021  21.431  0.00  0.00    +0.000 C 
ATOM     18  C   UNL     1       0.973   3.213  20.797  0.00  0.00    +0.000 C 
ENDBRANCH  15  16
ENDBRANCH  14  15
ENDBRANCH   9  14
ENDBRANCH   2   5
BRANCH   1  19
ATOM     19  C   UNL     1       0.588  10.350  19.473  0.00  0.00    +0.000 C 
BRANCH  19  20
ATOM     20  C   UNL     1       1.296  11.696  19.539  0.00  0.00    +0.000 A 
ATOM     21  C   UNL     1       1.218  12.473  20.707  0.00  0.00    +0.000 A 
ATOM     22  C   UNL     1       1.865  13.708  20.778  0.00  0.00    +0.000 A 
ATOM     23  C   UNL     1       2.598  14.165  19.690  0.00  0.00    +0.000 A 
ATOM     24  F   UNL     1       3.218  15.350  19.762  0.00  0.00    +0.000 F 
ATOM     25  C   UNL     1       2.699  13.411  18.528  0.00  0.00    +0.000 A 
ATOM     26  C   UNL     1       2.051  12.178  18.452  0.00  0.00    +0.000 A 
ENDBRANCH  19  20
BRANCH  19  28
ATOM     27  N   UNL     1      -0.695   9.896  17.409  0.00  0.00    +0.000 N 
ATOM     28  C   UNL     1      -0.724  10.457  18.658  0.00  0.00    +0.000 C 
ATOM     29  O   UNL     1      -1.768  10.933  19.102  0.00  0.00    +0.000 OA
ATOM     30  H   UNL     1      -1.526   9.996  16.840  0.00  0.00    +0.000 HD
ATOM     31  H   UNL     1       0.175   9.683  16.940  0.00  0.00    +0.000 HD
ENDBRANCH  19  28
ENDBRANCH   1  19
TORSDOF 8
ENDMDL
