MODEL 1
REMARK VINA RESULT:      -5.6      0.000      0.000
REMARK  Name = 
REMARK  4 active torsions:
REMARK  status: ('A' for Active; 'I' for Inactive)
REMARK    1  A    between atoms: C_1  and  N_2
REMARK    2  A    between atoms: C_4  and  N_5
REMARK    3  A    between atoms: C_9  and  C_10
REMARK    4  A    between atoms: C_10  and  O_12
REMARK                            x       y       z     vdW  Elec       q    Type
REMARK                         _______ _______ _______ _____ _____    ______ ____
ROOT
ATOM      1  C   UNL     1       3.235   5.448  19.434  0.00  0.00    +0.000 C 
ATOM      2  N   UNL     1       4.090   4.923  18.386  0.00  0.00    +0.000 N 
ATOM      3  C   UNL     1       5.367   5.366  18.146  0.00  0.00    +0.000 A 
ATOM      4  C   UNL     1       5.873   4.658  17.076  0.00  0.00    +0.000 A 
ATOM      5  C   UNL     1       4.854   3.762  16.655  0.00  0.00    +0.000 A 
ATOM      6  C   UNL     1       3.737   3.948  17.464  0.00  0.00    +0.000 A 
ENDROOT
BRANCH   4   7
ATOM      7  N   UNL     1       7.190   4.808  16.509  0.00  0.00    +0.000 N 
ATOM      8  O   UNL     1       7.295   5.507  15.494  0.00  0.00    +0.000 OA
ATOM      9  O   UNL     1       8.110   4.213  17.086  0.00  0.00    +0.000 OA
ENDBRANCH   4   7
BRANCH   6  10
ATOM     10  C   UNL     1       2.453   3.277  17.444  0.00  0.00    +0.000 C 
ATOM     11  O   UNL     1       1.379   3.804  17.204  0.00  0.00    +0.000 OA
BRANCH  10  12
ATOM     12  O   UNL     1       2.560   1.950  17.697  0.00  0.00    +0.000 OA
ATOM     13  H   UNL     1       2.893   1.430  16.944  0.00  0.00    +0.000 HD
ENDBRANCH  10  12
ENDBRANCH   6  10
TORSDOF 3
ENDMDL
MODEL 2
REMARK VINA RESULT:      -5.5      2.719      3.241
REMARK  Name = 
REMARK  4 active torsions:
REMARK  status: ('A' for Active; 'I' for Inactive)
REMARK    1  A    between atoms: C_1  and  N_2
REMARK    2  A    between atoms: C_4  and  N_5
REMARK    3  A    between atoms: C_9  and  C_10
REMARK    4  A    between atoms: C_10  and  O_12
REMARK                            x       y       z     vdW  Elec       q    Type
REMARK                         _______ _______ _______ _____ _____    ______ ____
ROOT
ATOM      1  C   UNL     1       4.147   6.553  17.635  0.00  0.00    +0.000 C 
ATOM      2  N   UNL     1       5.198   5.827  16.947  0.00  0.00    +0.000 N 
ATOM      3  C   UNL     1       5.420   5.900  15.594  0.00  0.00    +0.000 A 
ATOM      4  C   UNL     1       6.484   5.077  15.288  0.00  0.00    +0.000 A 
ATOM      5  C   UNL     1       6.907   4.480  16.506  0.00  0.00    +0.000 A 
ATOM      6  C   UNL     1       6.087   4.937  17.533  0.00  0.00    +0.000 A 
ENDROOT
BRANCH   4   7
ATOM      7  N   UNL     1       7.047   4.874  13.977  0.00  0.00    +0.000 N 
ATOM      8  O   UNL     1       8.002   5.590  13.652  0.00  0.00    +0.000 OA
ATOM      9  O   UNL     1       6.516   4.002  13.277  0.00  0.00    +0.000 OA
ENDBRANCH   4   7
BRANCH   6  10
ATOM     10  C   UNL     1       6.115   4.634  18.950  0.00  0.00    +0.000 C 
ATOM     11  O   UNL     1       6.631   5.324  19.814  0.00  0.00    +0.000 OA
BRANCH  10  12
ATOM     12  O   UNL     1       5.463   3.484  19.245  0.00  0.00    +0.000 OA
ATOM     13  H   UNL     1       5.884   2.686  18.879  0.00  0.00    +0.000 HD
ENDBRANCH  10  12
ENDBRANCH   6  10
TORSDOF 3
ENDMDL
MODEL 3
REMARK VINA RESULT:      -5.4      2.277      2.648
REMARK  Name = 
REMARK  4 active torsions:
REMARK  status: ('A' for Active; 'I' for Inactive)
REMARK    1  A    between atoms: C_1  and  N_2
REMARK    2  A    between atoms: C_4  and  N_5
REMARK    3  A    between atoms: C_9  and  C_10
REMARK    4  A    between atoms: C_10  and  O_12
REMARK                            x       y       z     vdW  Elec       q    Type
REMARK                         _______ _______ _______ _____ _____    ______ ____
ROOT
ATOM      1  C   UNL     1       7.184   5.604  19.397  0.00  0.00    +0.000 C 
ATOM      2  N   UNL     1       6.702   5.076  18.134  0.00  0.00    +0.000 N 
ATOM      3  C   UNL     1       7.303   5.317  16.924  0.00  0.00    +0.000 A 
ATOM      4  C   UNL     1       6.574   4.672  15.946  0.00  0.00    +0.000 A 
ATOM      5  C   UNL     1       5.490   4.026  16.599  0.00  0.00    +0.000 A 
ATOM      6  C   UNL     1       5.565   4.301  17.961  0.00  0.00    +0.000 A 
ENDROOT
BRANCH   4   7
ATOM      7  N   UNL     1       6.873   4.662  14.537  0.00  0.00    +0.000 N 
ATOM      8  O   UNL     1       6.277   3.836  13.835  0.00  0.00    +0.000 OA
ATOM      9  O   UNL     1       7.716   5.480  14.146  0.00  0.00    +0.000 OA
ENDBRANCH   4   7
BRANCH   6  10
ATOM     10  C   UNL     1       4.704   3.869  19.045  0.00  0.00    +0.000 C 
ATOM     11  O   UNL     1       3.700   4.448  19.428  0.00  0.00    +0.000 OA
BRANCH  10  12
ATOM     12  O   UNL     1       5.113   2.702  19.596  0.00  0.00    +0.000 OA
ATOM     13  H   UNL     1       5.709   2.812  20.358  0.00  0.00    +0.000 HD
ENDBRANCH  10  12
ENDBRANCH   6  10
TORSDOF 3
ENDMDL
MODEL 4
REMARK VINA RESULT:      -5.3      1.014      1.137
REMARK  Name = 
REMARK  4 active torsions:
REMARK  status: ('A' for Active; 'I' for Inactive)
REMARK    1  A    between atoms: C_1  and  N_2
REMARK    2  A    between atoms: C_4  and  N_5
REMARK    3  A    between atoms: C_9  and  C_10
REMARK    4  A    between atoms: C_10  and  O_12
REMARK                            x       y       z     vdW  Elec       q    Type
REMARK                         _______ _______ _______ _____ _____    ______ ____
ROOT
ATOM      1  C   UNL     1       3.109   4.456  20.255  0.00  0.00    +0.000 C 
ATOM      2  N   UNL     1       4.077   4.377  19.178  0.00  0.00    +0.000 N 
ATOM      3  C   UNL     1       5.330   4.935  19.231  0.00  0.00    +0.000 A 
ATOM      4  C   UNL     1       5.967   4.675  18.035  0.00  0.00    +0.000 A 
ATOM      5  C   UNL     1       5.054   3.940  17.232  0.00  0.00    +0.000 A 
ATOM      6  C   UNL     1       3.869   3.776  17.944  0.00  0.00    +0.000 A 
ENDROOT
BRANCH   4   7
ATOM      7  N   UNL     1       7.306   5.077  17.686  0.00  0.00    +0.000 N 
ATOM      8  O   UNL     1       7.757   6.090  18.235  0.00  0.00    +0.000 OA
ATOM      9  O   UNL     1       7.893   4.375  16.852  0.00  0.00    +0.000 OA
ENDBRANCH   4   7
BRANCH   6  10
ATOM     10  C   UNL     1       2.645   3.096  17.569  0.00  0.00    +0.000 C 
ATOM     11  O   UNL     1       1.652   3.628  17.101  0.00  0.00    +0.000 OA
BRANCH  10  12
ATOM     12  O   UNL     1       2.719   1.758  17.762  0.00  0.00    +0.000 OA
ATOM     13  H   UNL     1       2.310   1.455  18.592  0.00  0.00    +0.000 HD
ENDBRANCH  10  12
ENDBRANCH   6  10
TORSDOF 3
ENDMDL
MODEL 5
REMARK VINA RESULT:      -5.3      1.001      1.055
REMARK  Name = 
REMARK  4 active torsions:
REMARK  status: ('A' for Active; 'I' for Inactive)
REMARK    1  A    between atoms: C_1  and  N_2
REMARK    2  A    between atoms: C_4  and  N_5
REMARK    3  A    between atoms: C_9  and  C_10
REMARK    4  A    between atoms: C_10  and  O_12
REMARK                            x       y       z     vdW  Elec       q    Type
REMARK                         _______ _______ _______ _____ _____    ______ ____
ROOT
ATOM      1  C   UNL     1       4.125   3.654  19.909  0.00  0.00    +0.000 C 
ATOM      2  N   UNL     1       4.572   3.969  18.565  0.00  0.00    +0.000 N 
ATOM      3  C   UNL     1       5.785   4.542  18.276  0.00  0.00    +0.000 A 
ATOM      4  C   UNL     1       5.868   4.706  16.909  0.00  0.00    +0.000 A 
ATOM      5  C   UNL     1       4.652   4.220  16.360  0.00  0.00    +0.000 A 
ATOM      6  C   UNL     1       3.840   3.780  17.402  0.00  0.00    +0.000 A 
ENDROOT
BRANCH   4   7
ATOM      7  N   UNL     1       6.987   5.264  16.191  0.00  0.00    +0.000 N 
ATOM      8  O   UNL     1       7.440   4.607  15.246  0.00  0.00    +0.000 OA
ATOM      9  O   UNL     1       7.408   6.358  16.589  0.00  0.00    +0.000 OA
ENDBRANCH   4   7
BRANCH   6  10
ATOM     10  C   UNL     1       2.514   3.195  17.363  0.00  0.00    +0.000 C 
ATOM     11  O   UNL     1       1.469   3.810  17.228  0.00  0.00    +0.000 OA
BRANCH  10  12
ATOM     12  O   UNL     1       2.543   1.844  17.464  0.00  0.00    +0.000 OA
ATOM     13  H   UNL     1       3.066   1.516  18.217  0.00  0.00    +0.000 HD
ENDBRANCH  10  12
ENDBRANCH   6  10
TORSDOF 3
ENDMDL
MODEL 6
REMARK VINA RESULT:      -5.3      0.802      1.479
REMARK  Name = 
REMARK  4 active torsions:
REMARK  status: ('A' for Active; 'I' for Inactive)
REMARK    1  A    between atoms: C_1  and  N_2
REMARK    2  A    between atoms: C_4  and  N_5
REMARK    3  A    between atoms: C_9  and  C_10
REMARK    4  A    between atoms: C_10  and  O_12
REMARK                            x       y       z     vdW  Elec       q    Type
REMARK                         _______ _______ _______ _____ _____    ______ ____
ROOT
ATOM      1  C   UNL     1       3.090   4.690  20.179  0.00  0.00    +0.000 C 
ATOM      2  N   UNL     1       3.981   4.440  19.062  0.00  0.00    +0.000 N 
ATOM      3  C   UNL     1       5.301   4.814  19.037  0.00  0.00    +0.000 A 
ATOM      4  C   UNL     1       5.834   4.429  17.824  0.00  0.00    +0.000 A 
ATOM      5  C   UNL     1       4.787   3.808  17.092  0.00  0.00    +0.000 A 
ATOM      6  C   UNL     1       3.629   3.838  17.862  0.00  0.00    +0.000 A 
ENDROOT
BRANCH   4   7
ATOM      7  N   UNL     1       7.198   4.625  17.399  0.00  0.00    +0.000 N 
ATOM      8  O   UNL     1       8.086   4.452  18.242  0.00  0.00    +0.000 OA
ATOM      9  O   UNL     1       7.365   4.962  16.220  0.00  0.00    +0.000 OA
ENDBRANCH   4   7
BRANCH   6  10
ATOM     10  C   UNL     1       2.304   3.328  17.568  0.00  0.00    +0.000 C 
ATOM     11  O   UNL     1       1.976   2.153  17.579  0.00  0.00    +0.000 OA
BRANCH  10  12
ATOM     12  O   UNL     1       1.418   4.317  17.301  0.00  0.00    +0.000 OA
ATOM     13  H   UNL     1       1.152   4.832  18.083  0.00  0.00    +0.000 HD
ENDBRANCH  10  12
ENDBRANCH   6  10
TORSDOF 3
ENDMDL
MODEL 7
REMARK VINA RESULT:      -5.3      1.519      4.438
REMARK  Name = 
REMARK  4 active torsions:
REMARK  status: ('A' for Active; 'I' for Inactive)
REMARK    1  A    between atoms: C_1  and  N_2
REMARK    2  A    between atoms: C_4  and  N_5
REMARK    3  A    between atoms: C_9  and  C_10
REMARK    4  A    between atoms: C_10  and  O_12
REMARK                            x       y       z     vdW  Elec       q    Type
REMARK                         _______ _______ _______ _____ _____    ______ ____
ROOT
ATOM      1  C   UNL     1       6.709   5.550  19.027  0.00  0.00    +0.000 C 
ATOM      2  N   UNL     1       5.743   4.774  18.272  0.00  0.00    +0.000 N 
ATOM      3  C   UNL     1       4.919   3.828  18.828  0.00  0.00    +0.000 A 
ATOM      4  C   UNL     1       4.147   3.286  17.821  0.00  0.00    +0.000 A 
ATOM      5  C   UNL     1       4.532   3.929  16.614  0.00  0.00    +0.000 A 
ATOM      6  C   UNL     1       5.543   4.841  16.901  0.00  0.00    +0.000 A 
ENDROOT
BRANCH   4   7
ATOM      7  N   UNL     1       3.142   2.265  17.982  0.00  0.00    +0.000 N 
ATOM      8  O   UNL     1       3.473   1.231  18.574  0.00  0.00    +0.000 OA
ATOM      9  O   UNL     1       2.027   2.508  17.502  0.00  0.00    +0.000 OA
ENDBRANCH   4   7
BRANCH   6  10
ATOM     10  C   UNL     1       6.259   5.743  16.019  0.00  0.00    +0.000 C 
ATOM     11  O   UNL     1       7.422   5.621  15.671  0.00  0.00    +0.000 OA
BRANCH  10  12
ATOM     12  O   UNL     1       5.480   6.757  15.575  0.00  0.00    +0.000 OA
ATOM     13  H   UNL     1       5.474   7.536  16.158  0.00  0.00    +0.000 HD
ENDBRANCH  10  12
ENDBRANCH   6  10
TORSDOF 3
ENDMDL
MODEL 8
REMARK VINA RESULT:      -5.3      1.278      4.458
REMARK  Name = 
REMARK  4 active torsions:
REMARK  status: ('A' for Active; 'I' for Inactive)
REMARK    1  A    between atoms: C_1  and  N_2
REMARK    2  A    between atoms: C_4  and  N_5
REMARK    3  A    between atoms: C_9  and  C_10
REMARK    4  A    between atoms: C_10  and  O_12
REMARK                            x       y       z     vdW  Elec       q    Type
REMARK                         _______ _______ _______ _____ _____    ______ ____
ROOT
ATOM      1  C   UNL     1       6.720   5.523  19.530  0.00  0.00    +0.000 C 
ATOM      2  N   UNL     1       5.703   5.009  18.631  0.00  0.00    +0.000 N 
ATOM      3  C   UNL     1       4.426   4.693  19.020  0.00  0.00    +0.000 A 
ATOM      4  C   UNL     1       3.744   4.226  17.915  0.00  0.00    +0.000 A 
ATOM      5  C   UNL     1       4.654   4.255  16.825  0.00  0.00    +0.000 A 
ATOM      6  C   UNL     1       5.881   4.725  17.284  0.00  0.00    +0.000 A 
ENDROOT
BRANCH   4   7
ATOM      7  N   UNL     1       2.368   3.797  17.890  0.00  0.00    +0.000 N 
ATOM      8  O   UNL     1       1.581   4.367  18.656  0.00  0.00    +0.000 OA
ATOM      9  O   UNL     1       2.090   2.882  17.105  0.00  0.00    +0.000 OA
ENDBRANCH   4   7
BRANCH   6  10
ATOM     10  C   UNL     1       7.121   4.945  16.565  0.00  0.00    +0.000 C 
ATOM     11  O   UNL     1       7.320   5.829  15.748  0.00  0.00    +0.000 OA
BRANCH  10  12
ATOM     12  O   UNL     1       8.087   4.065  16.920  0.00  0.00    +0.000 OA
ATOM     13  H   UNL     1       8.991   4.375  16.735  0.00  0.00    +0.000 HD
ENDBRANCH  10  12
ENDBRANCH   6  10
TORSDOF 3
ENDMDL
MODEL 9
REMARK VINA RESULT:      -5.2      0.699      1.241
REMARK  Name = 
REMARK  4 active torsions:
REMARK  status: ('A' for Active; 'I' for Inactive)
REMARK    1  A    between atoms: C_1  and  N_2
REMARK    2  A    between atoms: C_4  and  N_5
REMARK    3  A    between atoms: C_9  and  C_10
REMARK    4  A    between atoms: C_10  and  O_12
REMARK                            x       y       z     vdW  Elec       q    Type
REMARK                         _______ _______ _______ _____ _____    ______ ____
ROOT
ATOM      1  C   UNL     1       3.359   5.401  19.594  0.00  0.00    +0.000 C 
ATOM      2  N   UNL     1       4.133   5.076  18.410  0.00  0.00    +0.000 N 
ATOM      3  C   UNL     1       5.316   5.686  18.077  0.00  0.00    +0.000 A 
ATOM      4  C   UNL     1       5.763   5.139  16.892  0.00  0.00    +0.000 A 
ATOM      5  C   UNL     1       4.802   4.170  16.498  0.00  0.00    +0.000 A 
ATOM      6  C   UNL     1       3.778   4.151  17.439  0.00  0.00    +0.000 A 
ENDROOT
BRANCH   4   7
ATOM      7  N   UNL     1       6.977   5.494  16.202  0.00  0.00    +0.000 N 
ATOM      8  O   UNL     1       7.401   4.700  15.353  0.00  0.00    +0.000 OA
ATOM      9  O   UNL     1       7.503   6.566  16.527  0.00  0.00    +0.000 OA
ENDBRANCH   4   7
BRANCH   6  10
ATOM     10  C   UNL     1       2.580   3.336  17.493  0.00  0.00    +0.000 C 
ATOM     11  O   UNL     1       2.543   2.144  17.752  0.00  0.00    +0.000 OA
BRANCH  10  12
ATOM     12  O   UNL     1       1.456   4.053  17.251  0.00  0.00    +0.000 OA
ATOM     13  H   UNL     1       0.842   3.625  16.629  0.00  0.00    +0.000 HD
ENDBRANCH  10  12
ENDBRANCH   6  10
TORSDOF 3
ENDMDL
