MODEL 1
REMARK VINA RESULT:      -8.2      0.000      0.000
REMARK  Name = 
REMARK  8 active torsions:
REMARK  status: ('A' for Active; 'I' for Inactive)
REMARK    1  A    between atoms: C_1  and  O_2
REMARK    2  A    between atoms: O_2  and  C_3
REMARK    3  A    between atoms: C_8  and  C_9
REMARK    4  A    between atoms: C_11  and  O_12
REMARK    5  A    between atoms: O_12  and  C_13
REMARK    6  A    between atoms: C_13  and  C_14
REMARK    7  A    between atoms: N_16  and  C_17
REMARK    8  A    between atoms: C_17  and  C_18
REMARK                            x       y       z     vdW  Elec       q    Type
REMARK                         _______ _______ _______ _____ _____    ______ ____
ROOT
ATOM      1  C   UNL     1       1.997   2.932  19.443  0.00  0.00    +0.000 A 
ATOM      2  C   UNL     1       2.641   1.937  18.720  0.00  0.00    +0.000 A 
ATOM      3  C   UNL     1       3.570   2.281  17.736  0.00  0.00    +0.000 A 
ATOM      4  C   UNL     1       3.875   3.601  17.446  0.00  0.00    +0.000 A 
ATOM      5  N   UNL     1       4.782   3.837  16.486  0.00  0.00    +0.000 NA
ATOM      6  C   UNL     1       5.091   5.116  16.190  0.00  0.00    +0.000 A 
ATOM      7  C   UNL     1       6.104   5.327  15.105  0.00  0.00    +0.000 C 
ATOM      8  C   UNL     1       4.511   6.199  16.838  0.00  0.00    +0.000 A 
ATOM      9  C   UNL     1       3.568   5.958  17.834  0.00  0.00    +0.000 A 
ATOM     10  C   UNL     1       3.224   4.624  18.161  0.00  0.00    +0.000 A 
ATOM     11  C   UNL     1       2.276   4.267  19.152  0.00  0.00    +0.000 A 
ENDROOT
BRANCH   1  13
ATOM     12  C   UNL     1       1.567   2.674  21.749  0.00  0.00    +0.000 C 
ATOM     13  O   UNL     1       1.061   2.713  20.416  0.00  0.00    +0.000 OA
ENDBRANCH   1  13
BRANCH   9  14
ATOM     14  O   UNL     1       2.924   6.941  18.550  0.00  0.00    +0.000 OA
BRANCH  14  15
ATOM     15  C   UNL     1       2.508   8.103  17.837  0.00  0.00    +0.000 C 
BRANCH  15  16
ATOM     16  C   UNL     1       1.619   9.016  18.680  0.00  0.00    +0.000 C 
ATOM     17  O   UNL     1       1.457   8.811  19.884  0.00  0.00    +0.000 OA
ATOM     18  N   UNL     1       1.037  10.064  18.008  0.00  0.00    +0.000 N 
ATOM     19  H   UNL     1       1.213  10.148  17.014  0.00  0.00    +0.000 HD
BRANCH  18  20
ATOM     20  C   UNL     1       0.191  11.033  18.663  0.00  0.00    +0.000 C 
BRANCH  20  21
ATOM     21  C   UNL     1      -1.248  10.877  18.250  0.00  0.00    +0.000 A 
ATOM     22  C   UNL     1      -1.602   9.935  17.272  0.00  0.00    +0.000 A 
ATOM     23  C   UNL     1      -2.930   9.801  16.865  0.00  0.00    +0.000 A 
ATOM     24  C   UNL     1      -3.917  10.607  17.428  0.00  0.00    +0.000 A 
ATOM     25  C   UNL     1      -3.579  11.542  18.405  0.00  0.00    +0.000 A 
ATOM     26  C   UNL     1      -2.250  11.680  18.812  0.00  0.00    +0.000 A 
ENDBRANCH  20  21
ENDBRANCH  18  20
ENDBRANCH  15  16
ENDBRANCH  14  15
ENDBRANCH   9  14
TORSDOF 6
ENDMDL
MODEL 2
REMARK VINA RESULT:      -8.1      5.095      7.688
REMARK  Name = 
REMARK  8 active torsions:
REMARK  status: ('A' for Active; 'I' for Inactive)
REMARK    1  A    between atoms: C_1  and  O_2
REMARK    2  A    between atoms: O_2  and  C_3
REMARK    3  A    between atoms: C_8  and  C_9
REMARK    4  A    between atoms: C_11  and  O_12
REMARK    5  A    between atoms: O_12  and  C_13
REMARK    6  A    between atoms: C_13  and  C_14
REMARK    7  A    between atoms: N_16  and  C_17
REMARK    8  A    between atoms: C_17  and  C_18
REMARK                            x       y       z     vdW  Elec       q    Type
REMARK                         _______ _______ _______ _____ _____    ______ ____
ROOT
ATOM      1  C   UNL     1       2.593   5.178  19.620  0.00  0.00    +0.000 A 
ATOM      2  C   UNL     1       1.880   4.542  18.613  0.00  0.00    +0.000 A 
ATOM      3  C   UNL     1       2.530   4.152  17.440  0.00  0.00    +0.000 A 
ATOM      4  C   UNL     1       3.880   4.384  17.238  0.00  0.00    +0.000 A 
ATOM      5  N   UNL     1       4.420   3.971  16.081  0.00  0.00    +0.000 NA
ATOM      6  C   UNL     1       5.733   4.190  15.867  0.00  0.00    +0.000 A 
ATOM      7  C   UNL     1       6.286   3.718  14.555  0.00  0.00    +0.000 C 
ATOM      8  C   UNL     1       6.551   4.822  16.794  0.00  0.00    +0.000 A 
ATOM      9  C   UNL     1       5.994   5.253  17.996  0.00  0.00    +0.000 A 
ATOM     10  C   UNL     1       4.618   5.038  18.243  0.00  0.00    +0.000 A 
ATOM     11  C   UNL     1       3.950   5.439  19.427  0.00  0.00    +0.000 A 
ENDROOT
BRANCH   1  13
ATOM     12  C   UNL     1       1.562   6.953  20.785  0.00  0.00    +0.000 C 
ATOM     13  O   UNL     1       2.061   5.617  20.801  0.00  0.00    +0.000 OA
ENDBRANCH   1  13
BRANCH   9  14
ATOM     14  O   UNL     1       6.696   5.888  18.995  0.00  0.00    +0.000 OA
BRANCH  14  15
ATOM     15  C   UNL     1       7.974   6.423  18.659  0.00  0.00    +0.000 C 
BRANCH  15  16
ATOM     16  C   UNL     1       7.877   7.812  18.031  0.00  0.00    +0.000 C 
ATOM     17  O   UNL     1       7.165   8.016  17.047  0.00  0.00    +0.000 OA
ATOM     18  N   UNL     1       8.619   8.794  18.643  0.00  0.00    +0.000 N 
ATOM     19  H   UNL     1       9.188   8.533  19.439  0.00  0.00    +0.000 HD
BRANCH  18  20
ATOM     20  C   UNL     1       8.616  10.165  18.191  0.00  0.00    +0.000 C 
BRANCH  20  21
ATOM     21  C   UNL     1       9.788  10.930  18.747  0.00  0.00    +0.000 A 
ATOM     22  C   UNL     1       9.877  11.178  20.125  0.00  0.00    +0.000 A 
ATOM     23  C   UNL     1      10.947  11.908  20.646  0.00  0.00    +0.000 A 
ATOM     24  C   UNL     1      11.936  12.400  19.796  0.00  0.00    +0.000 A 
ATOM     25  C   UNL     1      11.861  12.154  18.426  0.00  0.00    +0.000 A 
ATOM     26  C   UNL     1      10.790  11.426  17.902  0.00  0.00    +0.000 A 
ENDBRANCH  20  21
ENDBRANCH  18  20
ENDBRANCH  15  16
ENDBRANCH  14  15
ENDBRANCH   9  14
TORSDOF 6
ENDMDL
MODEL 3
REMARK VINA RESULT:      -8.0      3.234      5.812
REMARK  Name = 
REMARK  8 active torsions:
REMARK  status: ('A' for Active; 'I' for Inactive)
REMARK    1  A    between atoms: C_1  and  O_2
REMARK    2  A    between atoms: O_2  and  C_3
REMARK    3  A    between atoms: C_8  and  C_9
REMARK    4  A    between atoms: C_11  and  O_12
REMARK    5  A    between atoms: O_12  and  C_13
REMARK    6  A    between atoms: C_13  and  C_14
REMARK    7  A    between atoms: N_16  and  C_17
REMARK    8  A    between atoms: C_17  and  C_18
REMARK                            x       y       z     vdW  Elec       q    Type
REMARK                         _______ _______ _______ _____ _____    ______ ____
ROOT
ATOM      1  C   UNL     1       6.013   3.533  12.824  0.00  0.00    +0.000 A 
ATOM      2  C   UNL     1       7.086   4.373  12.559  0.00  0.00    +0.000 A 
ATOM      3  C   UNL     1       7.599   5.188  13.570  0.00  0.00    +0.000 A 
ATOM      4  C   UNL     1       7.067   5.192  14.849  0.00  0.00    +0.000 A 
ATOM      5  N   UNL     1       7.626   6.005  15.758  0.00  0.00    +0.000 NA
ATOM      6  C   UNL     1       7.120   6.023  17.007  0.00  0.00    +0.000 A 
ATOM      7  C   UNL     1       7.775   6.954  17.983  0.00  0.00    +0.000 C 
ATOM      8  C   UNL     1       6.045   5.234  17.394  0.00  0.00    +0.000 A 
ATOM      9  C   UNL     1       5.460   4.389  16.453  0.00  0.00    +0.000 A 
ATOM     10  C   UNL     1       5.971   4.354  15.134  0.00  0.00    +0.000 A 
ATOM     11  C   UNL     1       5.450   3.537  14.100  0.00  0.00    +0.000 A 
ENDROOT
BRANCH   1  13
ATOM     12  C   UNL     1       4.274   3.245  11.255  0.00  0.00    +0.000 C 
ATOM     13  O   UNL     1       5.421   2.706  11.910  0.00  0.00    +0.000 OA
ENDBRANCH   1  13
BRANCH   9  14
ATOM     14  O   UNL     1       4.394   3.557  16.711  0.00  0.00    +0.000 OA
BRANCH  14  15
ATOM     15  C   UNL     1       4.175   3.175  18.066  0.00  0.00    +0.000 C 
BRANCH  15  16
ATOM     16  C   UNL     1       2.975   3.889  18.686  0.00  0.00    +0.000 C 
ATOM     17  O   UNL     1       1.826   3.630  18.327  0.00  0.00    +0.000 OA
ATOM     18  N   UNL     1       3.272   4.813  19.660  0.00  0.00    +0.000 N 
ATOM     19  H   UNL     1       4.247   4.973  19.882  0.00  0.00    +0.000 HD
BRANCH  18  20
ATOM     20  C   UNL     1       2.253   5.554  20.364  0.00  0.00    +0.000 C 
BRANCH  20  21
ATOM     21  C   UNL     1       2.025   6.905  19.740  0.00  0.00    +0.000 A 
ATOM     22  C   UNL     1       2.447   7.154  18.425  0.00  0.00    +0.000 A 
ATOM     23  C   UNL     1       2.262   8.410  17.847  0.00  0.00    +0.000 A 
ATOM     24  C   UNL     1       1.658   9.432  18.576  0.00  0.00    +0.000 A 
ATOM     25  C   UNL     1       1.229   9.195  19.882  0.00  0.00    +0.000 A 
ATOM     26  C   UNL     1       1.415   7.939  20.463  0.00  0.00    +0.000 A 
ENDBRANCH  20  21
ENDBRANCH  18  20
ENDBRANCH  15  16
ENDBRANCH  14  15
ENDBRANCH   9  14
TORSDOF 6
ENDMDL
MODEL 4
REMARK VINA RESULT:      -8.0      6.667      9.335
REMARK  Name = 
REMARK  8 active torsions:
REMARK  status: ('A' for Active; 'I' for Inactive)
REMARK    1  A    between atoms: C_1  and  O_2
REMARK    2  A    between atoms: O_2  and  C_3
REMARK    3  A    between atoms: C_8  and  C_9
REMARK    4  A    between atoms: C_11  and  O_12
REMARK    5  A    between atoms: O_12  and  C_13
REMARK    6  A    between atoms: C_13  and  C_14
REMARK    7  A    between atoms: N_16  and  C_17
REMARK    8  A    between atoms: C_17  and  C_18
REMARK                            x       y       z     vdW  Elec       q    Type
REMARK                         _______ _______ _______ _____ _____    ______ ____
ROOT
ATOM      1  C   UNL     1       8.688  11.831  22.382  0.00  0.00    +0.000 A 
ATOM      2  C   UNL     1       9.245  13.103  22.382  0.00  0.00    +0.000 A 
ATOM      3  C   UNL     1       9.899  13.576  21.243  0.00  0.00    +0.000 A 
ATOM      4  C   UNL     1      10.017  12.812  20.094  0.00  0.00    +0.000 A 
ATOM      5  N   UNL     1      10.658  13.350  19.046  0.00  0.00    +0.000 NA
ATOM      6  C   UNL     1      10.783  12.619  17.920  0.00  0.00    +0.000 A 
ATOM      7  C   UNL     1      11.516  13.263  16.780  0.00  0.00    +0.000 C 
ATOM      8  C   UNL     1      10.275  11.333  17.798  0.00  0.00    +0.000 A 
ATOM      9  C   UNL     1       9.609  10.769  18.884  0.00  0.00    +0.000 A 
ATOM     10  C   UNL     1       9.467  11.515  20.078  0.00  0.00    +0.000 A 
ATOM     11  C   UNL     1       8.814  11.037  21.242  0.00  0.00    +0.000 A 
ENDROOT
BRANCH   1  13
ATOM     12  C   UNL     1       6.755  11.801  23.735  0.00  0.00    +0.000 C 
ATOM     13  O   UNL     1       8.041  11.258  23.442  0.00  0.00    +0.000 OA
ENDBRANCH   1  13
BRANCH   9  14
ATOM     14  O   UNL     1       9.059   9.508  18.890  0.00  0.00    +0.000 OA
BRANCH  14  15
ATOM     15  C   UNL     1       8.079   9.216  17.897  0.00  0.00    +0.000 C 
BRANCH  15  16
ATOM     16  C   UNL     1       7.743   7.727  17.830  0.00  0.00    +0.000 C 
ATOM     17  O   UNL     1       8.209   6.933  18.647  0.00  0.00    +0.000 OA
ATOM     18  N   UNL     1       6.891   7.356  16.816  0.00  0.00    +0.000 N 
ATOM     19  H   UNL     1       6.567   8.074  16.180  0.00  0.00    +0.000 HD
BRANCH  18  20
ATOM     20  C   UNL     1       6.452   5.993  16.632  0.00  0.00    +0.000 C 
BRANCH  20  21
ATOM     21  C   UNL     1       5.068   5.781  17.183  0.00  0.00    +0.000 A 
ATOM     22  C   UNL     1       4.606   4.483  17.447  0.00  0.00    +0.000 A 
ATOM     23  C   UNL     1       3.315   4.275  17.935  0.00  0.00    +0.000 A 
ATOM     24  C   UNL     1       2.471   5.360  18.161  0.00  0.00    +0.000 A 
ATOM     25  C   UNL     1       2.921   6.656  17.908  0.00  0.00    +0.000 A 
ATOM     26  C   UNL     1       4.211   6.866  17.417  0.00  0.00    +0.000 A 
ENDBRANCH  20  21
ENDBRANCH  18  20
ENDBRANCH  15  16
ENDBRANCH  14  15
ENDBRANCH   9  14
TORSDOF 6
ENDMDL
MODEL 5
REMARK VINA RESULT:      -7.9      1.584      3.628
REMARK  Name = 
REMARK  8 active torsions:
REMARK  status: ('A' for Active; 'I' for Inactive)
REMARK    1  A    between atoms: C_1  and  O_2
REMARK    2  A    between atoms: O_2  and  C_3
REMARK    3  A    between atoms: C_8  and  C_9
REMARK    4  A    between atoms: C_11  and  O_12
REMARK    5  A    between atoms: O_12  and  C_13
REMARK    6  A    between atoms: C_13  and  C_14
REMARK    7  A    between atoms: N_16  and  C_17
REMARK    8  A    between atoms: C_17  and  C_18
REMARK                            x       y       z     vdW  Elec       q    Type
REMARK                         _______ _______ _______ _____ _____    ______ ____
ROOT
ATOM      1  C   UNL     1       6.631   6.337  16.820  0.00  0.00    +0.000 A 
ATOM      2  C   UNL     1       6.780   5.017  16.416  0.00  0.00    +0.000 A 
ATOM      3  C   UNL     1       5.749   4.101  16.634  0.00  0.00    +0.000 A 
ATOM      4  C   UNL     1       4.564   4.465  17.253  0.00  0.00    +0.000 A 
ATOM      5  N   UNL     1       3.628   3.519  17.418  0.00  0.00    +0.000 NA
ATOM      6  C   UNL     1       2.469   3.855  18.020  0.00  0.00    +0.000 A 
ATOM      7  C   UNL     1       1.458   2.760  18.188  0.00  0.00    +0.000 C 
ATOM      8  C   UNL     1       2.203   5.139  18.475  0.00  0.00    +0.000 A 
ATOM      9  C   UNL     1       3.173   6.125  18.307  0.00  0.00    +0.000 A 
ATOM     10  C   UNL     1       4.399   5.797  17.681  0.00  0.00    +0.000 A 
ATOM     11  C   UNL     1       5.453   6.719  17.464  0.00  0.00    +0.000 A 
ENDROOT
BRANCH   1  13
ATOM     12  C   UNL     1       7.958   7.978  17.876  0.00  0.00    +0.000 C 
ATOM     13  O   UNL     1       7.576   7.314  16.673  0.00  0.00    +0.000 OA
ENDBRANCH   1  13
BRANCH   9  14
ATOM     14  O   UNL     1       3.031   7.433  18.710  0.00  0.00    +0.000 OA
BRANCH  14  15
ATOM     15  C   UNL     1       2.250   8.292  17.884  0.00  0.00    +0.000 C 
BRANCH  15  16
ATOM     16  C   UNL     1       1.350   9.222  18.697  0.00  0.00    +0.000 C 
ATOM     17  O   UNL     1       1.238   9.092  19.916  0.00  0.00    +0.000 OA
ATOM     18  N   UNL     1       0.702  10.198  17.978  0.00  0.00    +0.000 N 
ATOM     19  H   UNL     1       0.841  10.223  16.975  0.00  0.00    +0.000 HD
BRANCH  18  20
ATOM     20  C   UNL     1      -0.163  11.174  18.599  0.00  0.00    +0.000 C 
BRANCH  20  21
ATOM     21  C   UNL     1      -1.594  10.995  18.166  0.00  0.00    +0.000 A 
ATOM     22  C   UNL     1      -1.911  10.103  17.131  0.00  0.00    +0.000 A 
ATOM     23  C   UNL     1      -3.231   9.949  16.707  0.00  0.00    +0.000 A 
ATOM     24  C   UNL     1      -4.248  10.687  17.310  0.00  0.00    +0.000 A 
ATOM     25  C   UNL     1      -3.946  11.572  18.344  0.00  0.00    +0.000 A 
ATOM     26  C   UNL     1      -2.625  11.729  18.768  0.00  0.00    +0.000 A 
ENDBRANCH  20  21
ENDBRANCH  18  20
ENDBRANCH  15  16
ENDBRANCH  14  15
ENDBRANCH   9  14
TORSDOF 6
ENDMDL
MODEL 6
REMARK VINA RESULT:      -7.9      1.581      3.598
REMARK  Name = 
REMARK  8 active torsions:
REMARK  status: ('A' for Active; 'I' for Inactive)
REMARK    1  A    between atoms: C_1  and  O_2
REMARK    2  A    between atoms: O_2  and  C_3
REMARK    3  A    between atoms: C_8  and  C_9
REMARK    4  A    between atoms: C_11  and  O_12
REMARK    5  A    between atoms: O_12  and  C_13
REMARK    6  A    between atoms: C_13  and  C_14
REMARK    7  A    between atoms: N_16  and  C_17
REMARK    8  A    between atoms: C_17  and  C_18
REMARK                            x       y       z     vdW  Elec       q    Type
REMARK                         _______ _______ _______ _____ _____    ______ ____
ROOT
ATOM      1  C   UNL     1       5.582   6.020  16.619  0.00  0.00    +0.000 A 
ATOM      2  C   UNL     1       5.426   4.797  15.980  0.00  0.00    +0.000 A 
ATOM      3  C   UNL     1       4.407   3.930  16.376  0.00  0.00    +0.000 A 
ATOM      4  C   UNL     1       3.532   4.246  17.402  0.00  0.00    +0.000 A 
ATOM      5  N   UNL     1       2.580   3.353  17.711  0.00  0.00    +0.000 NA
ATOM      6  C   UNL     1       1.721   3.644  18.708  0.00  0.00    +0.000 A 
ATOM      7  C   UNL     1       0.681   2.609  19.021  0.00  0.00    +0.000 C 
ATOM      8  C   UNL     1       1.777   4.830  19.427  0.00  0.00    +0.000 A 
ATOM      9  C   UNL     1       2.764   5.761  19.110  0.00  0.00    +0.000 A 
ATOM     10  C   UNL     1       3.680   5.477  18.069  0.00  0.00    +0.000 A 
ATOM     11  C   UNL     1       4.724   6.349  17.668  0.00  0.00    +0.000 A 
ENDROOT
BRANCH   1  13
ATOM     12  C   UNL     1       7.477   7.203  17.380  0.00  0.00    +0.000 C 
ATOM     13  O   UNL     1       6.551   6.940  16.327  0.00  0.00    +0.000 OA
ENDBRANCH   1  13
BRANCH   9  14
ATOM     14  O   UNL     1       2.925   6.972  19.744  0.00  0.00    +0.000 OA
BRANCH  14  15
ATOM     15  C   UNL     1       1.744   7.681  20.109  0.00  0.00    +0.000 C 
BRANCH  15  16
ATOM     16  C   UNL     1       1.491   8.892  19.212  0.00  0.00    +0.000 C 
ATOM     17  O   UNL     1       2.124   9.053  18.168  0.00  0.00    +0.000 OA
ATOM     18  N   UNL     1       0.518   9.760  19.647  0.00  0.00    +0.000 N 
ATOM     19  H   UNL     1       0.058   9.557  20.526  0.00  0.00    +0.000 HD
BRANCH  18  20
ATOM     20  C   UNL     1       0.139  10.937  18.903  0.00  0.00    +0.000 C 
BRANCH  20  21
ATOM     21  C   UNL     1      -1.255  10.813  18.349  0.00  0.00    +0.000 A 
ATOM     22  C   UNL     1      -1.519   9.921  17.298  0.00  0.00    +0.000 A 
ATOM     23  C   UNL     1      -2.803   9.817  16.762  0.00  0.00    +0.000 A 
ATOM     24  C   UNL     1      -3.836  10.605  17.266  0.00  0.00    +0.000 A 
ATOM     25  C   UNL     1      -3.587  11.490  18.314  0.00  0.00    +0.000 A 
ATOM     26  C   UNL     1      -2.303  11.598  18.851  0.00  0.00    +0.000 A 
ENDBRANCH  20  21
ENDBRANCH  18  20
ENDBRANCH  15  16
ENDBRANCH  14  15
ENDBRANCH   9  14
TORSDOF 6
ENDMDL
MODEL 7
REMARK VINA RESULT:      -7.9      1.764      3.867
REMARK  Name = 
REMARK  8 active torsions:
REMARK  status: ('A' for Active; 'I' for Inactive)
REMARK    1  A    between atoms: C_1  and  O_2
REMARK    2  A    between atoms: O_2  and  C_3
REMARK    3  A    between atoms: C_8  and  C_9
REMARK    4  A    between atoms: C_11  and  O_12
REMARK    5  A    between atoms: O_12  and  C_13
REMARK    6  A    between atoms: C_13  and  C_14
REMARK    7  A    between atoms: N_16  and  C_17
REMARK    8  A    between atoms: C_17  and  C_18
REMARK                            x       y       z     vdW  Elec       q    Type
REMARK                         _______ _______ _______ _____ _____    ______ ____
ROOT
ATOM      1  C   UNL     1       5.244   6.023  17.258  0.00  0.00    +0.000 A 
ATOM      2  C   UNL     1       5.426   4.648  17.189  0.00  0.00    +0.000 A 
ATOM      3  C   UNL     1       4.633   3.801  17.965  0.00  0.00    +0.000 A 
ATOM      4  C   UNL     1       3.657   4.288  18.819  0.00  0.00    +0.000 A 
ATOM      5  N   UNL     1       2.940   3.400  19.523  0.00  0.00    +0.000 NA
ATOM      6  C   UNL     1       1.987   3.856  20.359  0.00  0.00    +0.000 A 
ATOM      7  C   UNL     1       1.220   2.823  21.130  0.00  0.00    +0.000 C 
ATOM      8  C   UNL     1       1.713   5.208  20.521  0.00  0.00    +0.000 A 
ATOM      9  C   UNL     1       2.455   6.135  19.792  0.00  0.00    +0.000 A 
ATOM     10  C   UNL     1       3.464   5.680  18.910  0.00  0.00    +0.000 A 
ATOM     11  C   UNL     1       4.279   6.535  18.126  0.00  0.00    +0.000 A 
ENDROOT
BRANCH   1  13
ATOM     12  C   UNL     1       7.184   7.365  17.180  0.00  0.00    +0.000 C 
ATOM     13  O   UNL     1       5.970   6.947  16.558  0.00  0.00    +0.000 OA
ENDBRANCH   1  13
BRANCH   9  14
ATOM     14  O   UNL     1       2.280   7.498  19.861  0.00  0.00    +0.000 OA
BRANCH  14  15
ATOM     15  C   UNL     1       1.404   7.996  20.869  0.00  0.00    +0.000 C 
BRANCH  15  16
ATOM     16  C   UNL     1       0.837   9.371  20.520  0.00  0.00    +0.000 C 
ATOM     17  O   UNL     1       0.475  10.151  21.401  0.00  0.00    +0.000 OA
ATOM     18  N   UNL     1       0.776   9.665  19.179  0.00  0.00    +0.000 N 
ATOM     19  H   UNL     1       1.082   8.957  18.522  0.00  0.00    +0.000 HD
BRANCH  18  20
ATOM     20  C   UNL     1       0.292  10.932  18.683  0.00  0.00    +0.000 C 
BRANCH  20  21
ATOM     21  C   UNL     1      -1.156  10.848  18.279  0.00  0.00    +0.000 A 
ATOM     22  C   UNL     1      -2.104  11.694  18.875  0.00  0.00    +0.000 A 
ATOM     23  C   UNL     1      -3.451  11.607  18.525  0.00  0.00    +0.000 A 
ATOM     24  C   UNL     1      -3.868  10.671  17.580  0.00  0.00    +0.000 A 
ATOM     25  C   UNL     1      -2.934   9.829  16.977  0.00  0.00    +0.000 A 
ATOM     26  C   UNL     1      -1.585   9.913  17.327  0.00  0.00    +0.000 A 
ENDBRANCH  20  21
ENDBRANCH  18  20
ENDBRANCH  15  16
ENDBRANCH  14  15
ENDBRANCH   9  14
TORSDOF 6
ENDMDL
MODEL 8
REMARK VINA RESULT:      -7.8      6.769      9.359
REMARK  Name = 
REMARK  8 active torsions:
REMARK  status: ('A' for Active; 'I' for Inactive)
REMARK    1  A    between atoms: C_1  and  O_2
REMARK    2  A    between atoms: O_2  and  C_3
REMARK    3  A    between atoms: C_8  and  C_9
REMARK    4  A    between atoms: C_11  and  O_12
REMARK    5  A    between atoms: O_12  and  C_13
REMARK    6  A    between atoms: C_13  and  C_14
REMARK    7  A    between atoms: N_16  and  C_17
REMARK    8  A    between atoms: C_17  and  C_18
REMARK                            x       y       z     vdW  Elec       q    Type
REMARK                         _______ _______ _______ _____ _____    ______ ____
ROOT
ATOM      1  C   UNL     1       8.702  11.959  22.441  0.00  0.00    +0.000 A 
ATOM      2  C   UNL     1       9.264  13.229  22.446  0.00  0.00    +0.000 A 
ATOM      3  C   UNL     1       9.927  13.701  21.311  0.00  0.00    +0.000 A 
ATOM      4  C   UNL     1      10.051  12.937  20.163  0.00  0.00    +0.000 A 
ATOM      5  N   UNL     1      10.702  13.475  19.120  0.00  0.00    +0.000 NA
ATOM      6  C   UNL     1      10.832  12.745  17.994  0.00  0.00    +0.000 A 
ATOM      7  C   UNL     1      11.575  13.387  16.861  0.00  0.00    +0.000 C 
ATOM      8  C   UNL     1      10.320  11.461  17.867  0.00  0.00    +0.000 A 
ATOM      9  C   UNL     1       9.644  10.898  18.948  0.00  0.00    +0.000 A 
ATOM     10  C   UNL     1       9.497  11.643  20.142  0.00  0.00    +0.000 A 
ATOM     11  C   UNL     1       8.833  11.166  21.300  0.00  0.00    +0.000 A 
ENDROOT
BRANCH   1  13
ATOM     12  C   UNL     1       6.683  11.781  23.649  0.00  0.00    +0.000 C 
ATOM     13  O   UNL     1       8.045  11.388  23.495  0.00  0.00    +0.000 OA
ENDBRANCH   1  13
BRANCH   9  14
ATOM     14  O   UNL     1       9.090   9.638  18.948  0.00  0.00    +0.000 OA
BRANCH  14  15
ATOM     15  C   UNL     1       8.293   9.274  17.824  0.00  0.00    +0.000 C 
BRANCH  15  16
ATOM     16  C   UNL     1       7.792   7.833  17.908  0.00  0.00    +0.000 C 
ATOM     17  O   UNL     1       8.252   7.047  18.738  0.00  0.00    +0.000 OA
ATOM     18  N   UNL     1       6.804   7.494  17.014  0.00  0.00    +0.000 N 
ATOM     19  H   UNL     1       6.495   8.200  16.357  0.00  0.00    +0.000 HD
BRANCH  18  20
ATOM     20  C   UNL     1       6.203   6.182  16.982  0.00  0.00    +0.000 C 
BRANCH  20  21
ATOM     21  C   UNL     1       4.940   6.135  17.799  0.00  0.00    +0.000 A 
ATOM     22  C   UNL     1       3.862   6.975  17.481  0.00  0.00    +0.000 A 
ATOM     23  C   UNL     1       2.697   6.956  18.249  0.00  0.00    +0.000 A 
ATOM     24  C   UNL     1       2.597   6.099  19.343  0.00  0.00    +0.000 A 
ATOM     25  C   UNL     1       3.659   5.255  19.666  0.00  0.00    +0.000 A 
ATOM     26  C   UNL     1       4.827   5.275  18.901  0.00  0.00    +0.000 A 
ENDBRANCH  20  21
ENDBRANCH  18  20
ENDBRANCH  15  16
ENDBRANCH  14  15
ENDBRANCH   9  14
TORSDOF 6
ENDMDL
MODEL 9
REMARK VINA RESULT:      -7.8      1.644      3.706
REMARK  Name = 
REMARK  8 active torsions:
REMARK  status: ('A' for Active; 'I' for Inactive)
REMARK    1  A    between atoms: C_1  and  O_2
REMARK    2  A    between atoms: O_2  and  C_3
REMARK    3  A    between atoms: C_8  and  C_9
REMARK    4  A    between atoms: C_11  and  O_12
REMARK    5  A    between atoms: O_12  and  C_13
REMARK    6  A    between atoms: C_13  and  C_14
REMARK    7  A    between atoms: N_16  and  C_17
REMARK    8  A    between atoms: C_17  and  C_18
REMARK                            x       y       z     vdW  Elec       q    Type
REMARK                         _______ _______ _______ _____ _____    ______ ____
ROOT
ATOM      1  C   UNL     1       4.595   5.459  16.900  0.00  0.00    +0.000 A 
ATOM      2  C   UNL     1       4.798   4.088  16.978  0.00  0.00    +0.000 A 
ATOM      3  C   UNL     1       4.164   3.346  17.977  0.00  0.00    +0.000 A 
ATOM      4  C   UNL     1       3.330   3.937  18.911  0.00  0.00    +0.000 A 
ATOM      5  N   UNL     1       2.761   3.145  19.832  0.00  0.00    +0.000 NA
ATOM      6  C   UNL     1       1.947   3.704  20.750  0.00  0.00    +0.000 A 
ATOM      7  C   UNL     1       1.342   2.777  21.763  0.00  0.00    +0.000 C 
ATOM      8  C   UNL     1       1.670   5.064  20.782  0.00  0.00    +0.000 A 
ATOM      9  C   UNL     1       2.259   5.891  19.827  0.00  0.00    +0.000 A 
ATOM     10  C   UNL     1       3.120   5.328  18.855  0.00  0.00    +0.000 A 
ATOM     11  C   UNL     1       3.774   6.077  17.844  0.00  0.00    +0.000 A 
ENDROOT
BRANCH   1  13
ATOM     12  C   UNL     1       5.734   5.632  14.840  0.00  0.00    +0.000 C 
ATOM     13  O   UNL     1       5.174   6.286  15.977  0.00  0.00    +0.000 OA
ENDBRANCH   1  13
BRANCH   9  14
ATOM     14  O   UNL     1       2.065   7.251  19.749  0.00  0.00    +0.000 OA
BRANCH  14  15
ATOM     15  C   UNL     1       1.500   7.897  20.887  0.00  0.00    +0.000 C 
BRANCH  15  16
ATOM     16  C   UNL     1       0.991   9.302  20.565  0.00  0.00    +0.000 C 
ATOM     17  O   UNL     1       0.822  10.136  21.455  0.00  0.00    +0.000 OA
ATOM     18  N   UNL     1       0.752   9.556  19.235  0.00  0.00    +0.000 N 
ATOM     19  H   UNL     1       0.904   8.806  18.573  0.00  0.00    +0.000 HD
BRANCH  18  20
ATOM     20  C   UNL     1       0.294  10.841  18.761  0.00  0.00    +0.000 C 
BRANCH  20  21
ATOM     21  C   UNL     1      -1.147  10.786  18.330  0.00  0.00    +0.000 A 
ATOM     22  C   UNL     1      -1.548   9.896  17.322  0.00  0.00    +0.000 A 
ATOM     23  C   UNL     1      -2.877   9.857  16.899  0.00  0.00    +0.000 A 
ATOM     24  C   UNL     1      -3.819  10.707  17.475  0.00  0.00    +0.000 A 
ATOM     25  C   UNL     1      -3.433  11.592  18.482  0.00  0.00    +0.000 A 
ATOM     26  C   UNL     1      -2.103  11.635  18.906  0.00  0.00    +0.000 A 
ENDBRANCH  20  21
ENDBRANCH  18  20
ENDBRANCH  15  16
ENDBRANCH  14  15
ENDBRANCH   9  14
TORSDOF 6
ENDMDL
