MODEL 1
REMARK VINA RESULT:      -8.2      0.000      0.000
REMARK  Name = 
REMARK  7 active torsions:
REMARK  status: ('A' for Active; 'I' for Inactive)
REMARK    1  A    between atoms: C_1  and  C_2
REMARK    2  A    between atoms: C_6  and  N_7
REMARK    3  A    between atoms: C_17  and  N_18
REMARK    4  A    between atoms: C_19  and  C_21
REMARK    5  A    between atoms: C_21  and  C_22
REMARK    6  A    between atoms: C_21  and  C_23
REMARK    7  A    between atoms: C_21  and  C_24
REMARK                            x       y       z     vdW  Elec       q    Type
REMARK                         _______ _______ _______ _____ _____    ______ ____
ROOT
ATOM      1  N   UNL     1       3.499   7.440  17.662  0.00  0.00    +0.000 N 
ATOM      2  C   UNL     1       4.341   6.569  18.312  0.00  0.00    +0.000 C 
ATOM      3  O   UNL     1       4.352   6.389  19.528  0.00  0.00    +0.000 OA
ATOM      4  N   UNL     1       5.198   5.841  17.474  0.00  0.00    +0.000 N 
ATOM      5  C   UNL     1       6.095   4.899  18.136  0.00  0.00    +0.000 C 
ATOM      6  C   UNL     1       7.381   4.672  17.334  0.00  0.00    +0.000 C 
ATOM      7  C   UNL     1       7.189   4.439  15.842  0.00  0.00    +0.000 C 
ATOM      8  C   UNL     1       6.023   5.209  15.236  0.00  0.00    +0.000 C 
ATOM      9  C   UNL     1       4.805   5.370  16.150  0.00  0.00    +0.000 C 
ATOM     10  C   UNL     1       3.948   4.107  16.287  0.00  0.00    +0.000 C 
ATOM     11  C   UNL     1       4.215   3.201  17.507  0.00  0.00    +0.000 C 
ATOM     12  C   UNL     1       5.343   3.605  18.475  0.00  0.00    +0.000 C 
ATOM     13  H   UNL     1       3.597   7.535  16.667  0.00  0.00    +0.000 HD
ENDROOT
BRANCH   1  19
ATOM     14  C   UNL     1       0.699   8.347  21.613  0.00  0.00    +0.000 C 
ATOM     15  C   UNL     1       1.113   8.685  20.216  0.00  0.00    +0.000 A 
ATOM     16  C   UNL     1       0.593   9.822  19.583  0.00  0.00    +0.000 A 
ATOM     17  C   UNL     1       1.011  10.163  18.301  0.00  0.00    +0.000 A 
ATOM     18  C   UNL     1       1.969   9.380  17.645  0.00  0.00    +0.000 A 
ATOM     19  C   UNL     1       2.506   8.255  18.259  0.00  0.00    +0.000 A 
ATOM     20  C   UNL     1       2.053   7.898  19.534  0.00  0.00    +0.000 A 
ENDBRANCH   1  19
BRANCH  11  21
ATOM     21  N   UNL     1       2.953   3.046  18.251  0.00  0.00    +0.000 N 
ATOM     22  C   UNL     1       2.885   3.129  19.628  0.00  0.00    +0.000 C 
ATOM     23  O   UNL     1       3.897   3.239  20.319  0.00  0.00    +0.000 OA
ATOM     24  H   UNL     1       2.101   3.240  17.737  0.00  0.00    +0.000 HD
BRANCH  22  25
ATOM     25  C   UNL     1       1.468   3.010  20.228  0.00  0.00    +0.000 C 
ATOM     26  C   UNL     1       1.547   2.352  21.614  0.00  0.00    +0.000 C 
ATOM     27  C   UNL     1       0.863   4.418  20.385  0.00  0.00    +0.000 C 
ATOM     28  C   UNL     1       0.545   2.185  19.317  0.00  0.00    +0.000 C 
ENDBRANCH  22  25
ENDBRANCH  11  21
TORSDOF 3
ENDMDL
MODEL 2
REMARK VINA RESULT:      -7.7      1.744      4.802
REMARK  Name = 
REMARK  7 active torsions:
REMARK  status: ('A' for Active; 'I' for Inactive)
REMARK    1  A    between atoms: C_1  and  C_2
REMARK    2  A    between atoms: C_6  and  N_7
REMARK    3  A    between atoms: C_17  and  N_18
REMARK    4  A    between atoms: C_19  and  C_21
REMARK    5  A    between atoms: C_21  and  C_22
REMARK    6  A    between atoms: C_21  and  C_23
REMARK    7  A    between atoms: C_21  and  C_24
REMARK                            x       y       z     vdW  Elec       q    Type
REMARK                         _______ _______ _______ _____ _____    ______ ____
ROOT
ATOM      1  N   UNL     1       1.734   7.084  19.787  0.00  0.00    +0.000 N 
ATOM      2  C   UNL     1       1.503   5.975  19.007  0.00  0.00    +0.000 C 
ATOM      3  O   UNL     1       1.170   6.012  17.826  0.00  0.00    +0.000 OA
ATOM      4  N   UNL     1       1.712   4.747  19.652  0.00  0.00    +0.000 N 
ATOM      5  C   UNL     1       1.487   3.551  18.846  0.00  0.00    +0.000 C 
ATOM      6  C   UNL     1       1.071   2.351  19.704  0.00  0.00    +0.000 C 
ATOM      7  C   UNL     1       1.895   2.132  20.965  0.00  0.00    +0.000 C 
ATOM      8  C   UNL     1       2.391   3.415  21.616  0.00  0.00    +0.000 C 
ATOM      9  C   UNL     1       2.764   4.538  20.642  0.00  0.00    +0.000 C 
ATOM     10  C   UNL     1       4.107   4.336  19.932  0.00  0.00    +0.000 C 
ATOM     11  C   UNL     1       4.074   3.701  18.526  0.00  0.00    +0.000 C 
ATOM     12  C   UNL     1       2.706   3.280  17.954  0.00  0.00    +0.000 C 
ATOM     13  H   UNL     1       1.970   6.940  20.753  0.00  0.00    +0.000 HD
ENDROOT
BRANCH   1  19
ATOM     14  C   UNL     1       0.175  11.643  20.816  0.00  0.00    +0.000 C 
ATOM     15  C   UNL     1       0.856  10.687  19.888  0.00  0.00    +0.000 A 
ATOM     16  C   UNL     1       1.455  11.155  18.711  0.00  0.00    +0.000 A 
ATOM     17  C   UNL     1       2.127  10.274  17.870  0.00  0.00    +0.000 A 
ATOM     18  C   UNL     1       2.223   8.919  18.206  0.00  0.00    +0.000 A 
ATOM     19  C   UNL     1       1.646   8.436  19.374  0.00  0.00    +0.000 A 
ATOM     20  C   UNL     1       0.940   9.321  20.197  0.00  0.00    +0.000 A 
ENDBRANCH   1  19
BRANCH  11  21
ATOM     21  N   UNL     1       4.743   4.620  17.590  0.00  0.00    +0.000 N 
ATOM     22  C   UNL     1       6.109   4.826  17.597  0.00  0.00    +0.000 C 
ATOM     23  O   UNL     1       6.834   4.325  18.455  0.00  0.00    +0.000 OA
ATOM     24  H   UNL     1       4.254   4.814  16.724  0.00  0.00    +0.000 HD
BRANCH  22  25
ATOM     25  C   UNL     1       6.639   5.773  16.499  0.00  0.00    +0.000 C 
ATOM     26  C   UNL     1       7.437   4.965  15.463  0.00  0.00    +0.000 C 
ATOM     27  C   UNL     1       5.448   6.442  15.788  0.00  0.00    +0.000 C 
ATOM     28  C   UNL     1       7.531   6.873  17.093  0.00  0.00    +0.000 C 
ENDBRANCH  22  25
ENDBRANCH  11  21
TORSDOF 3
ENDMDL
MODEL 3
REMARK VINA RESULT:      -7.6      5.041     10.105
REMARK  Name = 
REMARK  7 active torsions:
REMARK  status: ('A' for Active; 'I' for Inactive)
REMARK    1  A    between atoms: C_1  and  C_2
REMARK    2  A    between atoms: C_6  and  N_7
REMARK    3  A    between atoms: C_17  and  N_18
REMARK    4  A    between atoms: C_19  and  C_21
REMARK    5  A    between atoms: C_21  and  C_22
REMARK    6  A    between atoms: C_21  and  C_23
REMARK    7  A    between atoms: C_21  and  C_24
REMARK                            x       y       z     vdW  Elec       q    Type
REMARK                         _______ _______ _______ _____ _____    ______ ____
ROOT
ATOM      1  N   UNL     1       0.014  10.205  19.962  0.00  0.00    +0.000 N 
ATOM      2  C   UNL     1       0.196  11.026  21.050  0.00  0.00    +0.000 C 
ATOM      3  O   UNL     1       1.233  11.092  21.705  0.00  0.00    +0.000 OA
ATOM      4  N   UNL     1      -0.900  11.843  21.363  0.00  0.00    +0.000 N 
ATOM      5  C   UNL     1      -0.731  12.734  22.506  0.00  0.00    +0.000 C 
ATOM      6  C   UNL     1      -2.067  13.056  23.185  0.00  0.00    +0.000 C 
ATOM      7  C   UNL     1      -3.206  13.423  22.245  0.00  0.00    +0.000 C 
ATOM      8  C   UNL     1      -3.172  12.694  20.909  0.00  0.00    +0.000 C 
ATOM      9  C   UNL     1      -1.771  12.429  20.349  0.00  0.00    +0.000 C 
ATOM     10  C   UNL     1      -1.093  13.659  19.736  0.00  0.00    +0.000 C 
ATOM     11  C   UNL     1      -0.123  14.452  20.637  0.00  0.00    +0.000 C 
ATOM     12  C   UNL     1       0.066  13.978  22.091  0.00  0.00    +0.000 C 
ATOM     13  H   UNL     1      -0.888  10.205  19.518  0.00  0.00    +0.000 HD
ENDROOT
BRANCH   1  19
ATOM     14  C   UNL     1       2.429   5.927  20.340  0.00  0.00    +0.000 C 
ATOM     15  C   UNL     1       2.171   7.207  19.610  0.00  0.00    +0.000 A 
ATOM     16  C   UNL     1       2.794   7.453  18.379  0.00  0.00    +0.000 A 
ATOM     17  C   UNL     1       2.520   8.622  17.677  0.00  0.00    +0.000 A 
ATOM     18  C   UNL     1       1.606   9.550  18.190  0.00  0.00    +0.000 A 
ATOM     19  C   UNL     1       0.969   9.322  19.404  0.00  0.00    +0.000 A 
ATOM     20  C   UNL     1       1.277   8.160  20.122  0.00  0.00    +0.000 A 
ENDBRANCH   1  19
BRANCH  11  21
ATOM     21  N   UNL     1       1.185  14.515  19.961  0.00  0.00    +0.000 N 
ATOM     22  C   UNL     1       1.583  15.606  19.212  0.00  0.00    +0.000 C 
ATOM     23  O   UNL     1       0.825  16.547  18.985  0.00  0.00    +0.000 OA
ATOM     24  H   UNL     1       1.917  13.928  20.342  0.00  0.00    +0.000 HD
BRANCH  22  25
ATOM     25  C   UNL     1       3.013  15.523  18.635  0.00  0.00    +0.000 C 
ATOM     26  C   UNL     1       4.026  15.970  19.701  0.00  0.00    +0.000 C 
ATOM     27  C   UNL     1       3.320  14.064  18.247  0.00  0.00    +0.000 C 
ATOM     28  C   UNL     1       3.161  16.399  17.382  0.00  0.00    +0.000 C 
ENDBRANCH  22  25
ENDBRANCH  11  21
TORSDOF 3
ENDMDL
MODEL 4
REMARK VINA RESULT:      -7.5      6.804      9.790
REMARK  Name = 
REMARK  7 active torsions:
REMARK  status: ('A' for Active; 'I' for Inactive)
REMARK    1  A    between atoms: C_1  and  C_2
REMARK    2  A    between atoms: C_6  and  N_7
REMARK    3  A    between atoms: C_17  and  N_18
REMARK    4  A    between atoms: C_19  and  C_21
REMARK    5  A    between atoms: C_21  and  C_22
REMARK    6  A    between atoms: C_21  and  C_23
REMARK    7  A    between atoms: C_21  and  C_24
REMARK                            x       y       z     vdW  Elec       q    Type
REMARK                         _______ _______ _______ _____ _____    ______ ____
ROOT
ATOM      1  N   UNL     1      -0.917  13.619  21.958  0.00  0.00    +0.000 N 
ATOM      2  C   UNL     1      -1.009  12.321  21.515  0.00  0.00    +0.000 C 
ATOM      3  O   UNL     1      -1.794  11.488  21.961  0.00  0.00    +0.000 OA
ATOM      4  N   UNL     1      -0.146  11.995  20.458  0.00  0.00    +0.000 N 
ATOM      5  C   UNL     1      -0.230  10.626  19.959  0.00  0.00    +0.000 C 
ATOM      6  C   UNL     1       1.096  10.155  19.351  0.00  0.00    +0.000 C 
ATOM      7  C   UNL     1       1.772  11.144  18.411  0.00  0.00    +0.000 C 
ATOM      8  C   UNL     1       1.569  12.604  18.791  0.00  0.00    +0.000 C 
ATOM      9  C   UNL     1       0.201  12.935  19.397  0.00  0.00    +0.000 C 
ATOM     10  C   UNL     1      -0.940  13.004  18.376  0.00  0.00    +0.000 C 
ATOM     11  C   UNL     1      -1.800  11.735  18.192  0.00  0.00    +0.000 C 
ATOM     12  C   UNL     1      -1.429  10.484  19.011  0.00  0.00    +0.000 C 
ATOM     13  H   UNL     1      -0.215  14.209  21.545  0.00  0.00    +0.000 HD
ENDROOT
BRANCH   1  19
ATOM     14  C   UNL     1      -1.020  15.854  26.347  0.00  0.00    +0.000 C 
ATOM     15  C   UNL     1      -1.742  15.314  25.154  0.00  0.00    +0.000 A 
ATOM     16  C   UNL     1      -3.126  15.493  25.027  0.00  0.00    +0.000 A 
ATOM     17  C   UNL     1      -3.791  15.030  23.897  0.00  0.00    +0.000 A 
ATOM     18  C   UNL     1      -3.076  14.399  22.871  0.00  0.00    +0.000 A 
ATOM     19  C   UNL     1      -1.702  14.221  22.971  0.00  0.00    +0.000 A 
ATOM     20  C   UNL     1      -1.045  14.657  24.128  0.00  0.00    +0.000 A 
ENDBRANCH   1  19
BRANCH  11  21
ATOM     21  N   UNL     1      -3.207  12.092  18.439  0.00  0.00    +0.000 N 
ATOM     22  C   UNL     1      -4.251  11.558  17.708  0.00  0.00    +0.000 C 
ATOM     23  O   UNL     1      -4.053  10.826  16.740  0.00  0.00    +0.000 OA
ATOM     24  H   UNL     1      -3.427  12.441  19.365  0.00  0.00    +0.000 HD
BRANCH  22  25
ATOM     25  C   UNL     1      -5.662  11.998  18.155  0.00  0.00    +0.000 C 
ATOM     26  C   UNL     1      -6.530  10.757  18.417  0.00  0.00    +0.000 C 
ATOM     27  C   UNL     1      -5.551  12.806  19.461  0.00  0.00    +0.000 C 
ATOM     28  C   UNL     1      -6.333  12.882  17.092  0.00  0.00    +0.000 C 
ENDBRANCH  22  25
ENDBRANCH  11  21
TORSDOF 3
ENDMDL
MODEL 5
REMARK VINA RESULT:      -7.5      6.573      9.466
REMARK  Name = 
REMARK  7 active torsions:
REMARK  status: ('A' for Active; 'I' for Inactive)
REMARK    1  A    between atoms: C_1  and  C_2
REMARK    2  A    between atoms: C_6  and  N_7
REMARK    3  A    between atoms: C_17  and  N_18
REMARK    4  A    between atoms: C_19  and  C_21
REMARK    5  A    between atoms: C_21  and  C_22
REMARK    6  A    between atoms: C_21  and  C_23
REMARK    7  A    between atoms: C_21  and  C_24
REMARK                            x       y       z     vdW  Elec       q    Type
REMARK                         _______ _______ _______ _____ _____    ______ ____
ROOT
ATOM      1  N   UNL     1      -0.616  13.238  21.929  0.00  0.00    +0.000 N 
ATOM      2  C   UNL     1      -0.693  11.986  21.366  0.00  0.00    +0.000 C 
ATOM      3  O   UNL     1      -1.439  11.092  21.758  0.00  0.00    +0.000 OA
ATOM      4  N   UNL     1       0.137  11.788  20.253  0.00  0.00    +0.000 N 
ATOM      5  C   UNL     1       0.067  10.471  19.627  0.00  0.00    +0.000 C 
ATOM      6  C   UNL     1       1.380  10.098  18.929  0.00  0.00    +0.000 C 
ATOM      7  C   UNL     1       1.995  11.191  18.065  0.00  0.00    +0.000 C 
ATOM      8  C   UNL     1       1.771  12.602  18.592  0.00  0.00    +0.000 C 
ATOM      9  C   UNL     1       0.419  12.834  19.276  0.00  0.00    +0.000 C 
ATOM     10  C   UNL     1      -0.762  12.968  18.308  0.00  0.00    +0.000 C 
ATOM     11  C   UNL     1      -1.596  11.699  18.033  0.00  0.00    +0.000 C 
ATOM     12  C   UNL     1      -1.163  10.386  18.714  0.00  0.00    +0.000 C 
ATOM     13  H   UNL     1       0.055  13.884  21.551  0.00  0.00    +0.000 HD
ENDROOT
BRANCH   1  19
ATOM     14  C   UNL     1      -4.627  12.715  24.742  0.00  0.00    +0.000 C 
ATOM     15  C   UNL     1      -3.374  13.458  24.401  0.00  0.00    +0.000 A 
ATOM     16  C   UNL     1      -2.946  14.523  25.205  0.00  0.00    +0.000 A 
ATOM     17  C   UNL     1      -1.758  15.185  24.915  0.00  0.00    +0.000 A 
ATOM     18  C   UNL     1      -0.976  14.778  23.827  0.00  0.00    +0.000 A 
ATOM     19  C   UNL     1      -1.376  13.718  23.024  0.00  0.00    +0.000 A 
ATOM     20  C   UNL     1      -2.591  13.079  23.300  0.00  0.00    +0.000 A 
ENDBRANCH   1  19
BRANCH  11  21
ATOM     21  N   UNL     1      -3.001  11.991  18.364  0.00  0.00    +0.000 N 
ATOM     22  C   UNL     1      -4.054  11.584  17.568  0.00  0.00    +0.000 C 
ATOM     23  O   UNL     1      -3.870  11.037  16.482  0.00  0.00    +0.000 OA
ATOM     24  H   UNL     1      -3.206  12.167  19.341  0.00  0.00    +0.000 HD
BRANCH  22  25
ATOM     25  C   UNL     1      -5.460  11.921  18.110  0.00  0.00    +0.000 C 
ATOM     26  C   UNL     1      -6.227  10.622  18.399  0.00  0.00    +0.000 C 
ATOM     27  C   UNL     1      -5.320  12.713  19.424  0.00  0.00    +0.000 C 
ATOM     28  C   UNL     1      -6.253  12.777  17.109  0.00  0.00    +0.000 C 
ENDBRANCH  22  25
ENDBRANCH  11  21
TORSDOF 3
ENDMDL
MODEL 6
REMARK VINA RESULT:      -7.5      6.804      9.854
REMARK  Name = 
REMARK  7 active torsions:
REMARK  status: ('A' for Active; 'I' for Inactive)
REMARK    1  A    between atoms: C_1  and  C_2
REMARK    2  A    between atoms: C_6  and  N_7
REMARK    3  A    between atoms: C_17  and  N_18
REMARK    4  A    between atoms: C_19  and  C_21
REMARK    5  A    between atoms: C_21  and  C_22
REMARK    6  A    between atoms: C_21  and  C_23
REMARK    7  A    between atoms: C_21  and  C_24
REMARK                            x       y       z     vdW  Elec       q    Type
REMARK                         _______ _______ _______ _____ _____    ______ ____
ROOT
ATOM      1  N   UNL     1      -0.879  13.642  21.967  0.00  0.00    +0.000 N 
ATOM      2  C   UNL     1      -0.980  12.341  21.535  0.00  0.00    +0.000 C 
ATOM      3  O   UNL     1      -1.761  11.513  21.997  0.00  0.00    +0.000 OA
ATOM      4  N   UNL     1      -0.131  12.005  20.471  0.00  0.00    +0.000 N 
ATOM      5  C   UNL     1      -0.224  10.632  19.983  0.00  0.00    +0.000 C 
ATOM      6  C   UNL     1       1.093  10.153  19.362  0.00  0.00    +0.000 C 
ATOM      7  C   UNL     1       1.760  11.132  18.407  0.00  0.00    +0.000 C 
ATOM      8  C   UNL     1       1.565  12.596  18.778  0.00  0.00    +0.000 C 
ATOM      9  C   UNL     1       0.206  12.935  19.398  0.00  0.00    +0.000 C 
ATOM     10  C   UNL     1      -0.948  12.999  18.391  0.00  0.00    +0.000 C 
ATOM     11  C   UNL     1      -1.812  11.731  18.227  0.00  0.00    +0.000 C 
ATOM     12  C   UNL     1      -1.435  10.486  19.051  0.00  0.00    +0.000 C 
ATOM     13  H   UNL     1      -0.181  14.226  21.542  0.00  0.00    +0.000 HD
ENDROOT
BRANCH   1  19
ATOM     14  C   UNL     1      -5.334  15.084  23.498  0.00  0.00    +0.000 C 
ATOM     15  C   UNL     1      -3.860  14.977  23.726  0.00  0.00    +0.000 A 
ATOM     16  C   UNL     1      -3.305  15.389  24.946  0.00  0.00    +0.000 A 
ATOM     17  C   UNL     1      -1.941  15.249  25.176  0.00  0.00    +0.000 A 
ATOM     18  C   UNL     1      -1.119  14.678  24.197  0.00  0.00    +0.000 A 
ATOM     19  C   UNL     1      -1.650  14.254  22.985  0.00  0.00    +0.000 A 
ATOM     20  C   UNL     1      -3.018  14.432  22.746  0.00  0.00    +0.000 A 
ENDBRANCH   1  19
BRANCH  11  21
ATOM     21  N   UNL     1      -3.216  12.094  18.489  0.00  0.00    +0.000 N 
ATOM     22  C   UNL     1      -4.267  11.589  17.747  0.00  0.00    +0.000 C 
ATOM     23  O   UNL     1      -4.079  10.880  16.760  0.00  0.00    +0.000 OA
ATOM     24  H   UNL     1      -3.429  12.420  19.424  0.00  0.00    +0.000 HD
BRANCH  22  25
ATOM     25  C   UNL     1      -5.672  12.028  18.211  0.00  0.00    +0.000 C 
ATOM     26  C   UNL     1      -6.325  12.898  17.125  0.00  0.00    +0.000 C 
ATOM     27  C   UNL     1      -6.547  10.780  18.433  0.00  0.00    +0.000 C 
ATOM     28  C   UNL     1      -5.604  12.814  19.530  0.00  0.00    +0.000 C 
ENDBRANCH  22  25
ENDBRANCH  11  21
TORSDOF 3
ENDMDL
MODEL 7
REMARK VINA RESULT:      -7.4      8.141     11.184
REMARK  Name = 
REMARK  7 active torsions:
REMARK  status: ('A' for Active; 'I' for Inactive)
REMARK    1  A    between atoms: C_1  and  C_2
REMARK    2  A    between atoms: C_6  and  N_7
REMARK    3  A    between atoms: C_17  and  N_18
REMARK    4  A    between atoms: C_19  and  C_21
REMARK    5  A    between atoms: C_21  and  C_22
REMARK    6  A    between atoms: C_21  and  C_23
REMARK    7  A    between atoms: C_21  and  C_24
REMARK                            x       y       z     vdW  Elec       q    Type
REMARK                         _______ _______ _______ _____ _____    ______ ____
ROOT
ATOM      1  N   UNL     1       9.186  11.816  22.254  0.00  0.00    +0.000 N 
ATOM      2  C   UNL     1       9.008  13.039  22.857  0.00  0.00    +0.000 C 
ATOM      3  O   UNL     1       9.306  14.116  22.347  0.00  0.00    +0.000 OA
ATOM      4  N   UNL     1       8.412  12.990  24.126  0.00  0.00    +0.000 N 
ATOM      5  C   UNL     1       8.200  14.274  24.786  0.00  0.00    +0.000 C 
ATOM      6  C   UNL     1       8.207  14.142  26.313  0.00  0.00    +0.000 C 
ATOM      7  C   UNL     1       7.388  12.987  26.873  0.00  0.00    +0.000 C 
ATOM      8  C   UNL     1       7.371  11.748  25.988  0.00  0.00    +0.000 C 
ATOM      9  C   UNL     1       7.376  12.025  24.481  0.00  0.00    +0.000 C 
ATOM     10  C   UNL     1       6.027  12.489  23.921  0.00  0.00    +0.000 C 
ATOM     11  C   UNL     1       5.810  14.009  23.772  0.00  0.00    +0.000 C 
ATOM     12  C   UNL     1       6.940  14.951  24.230  0.00  0.00    +0.000 C 
ATOM     13  H   UNL     1       8.938  10.993  22.775  0.00  0.00    +0.000 HD
ENDROOT
BRANCH   1  19
ATOM     14  C   UNL     1       8.569   9.734  17.831  0.00  0.00    +0.000 C 
ATOM     15  C   UNL     1       9.405  10.535  18.779  0.00  0.00    +0.000 A 
ATOM     16  C   UNL     1      10.614  11.098  18.348  0.00  0.00    +0.000 A 
ATOM     17  C   UNL     1      11.370  11.880  19.215  0.00  0.00    +0.000 A 
ATOM     18  C   UNL     1      10.916  12.123  20.517  0.00  0.00    +0.000 A 
ATOM     19  C   UNL     1       9.715  11.584  20.961  0.00  0.00    +0.000 A 
ATOM     20  C   UNL     1       8.977  10.767  20.095  0.00  0.00    +0.000 A 
ENDBRANCH   1  19
BRANCH  11  21
ATOM     21  N   UNL     1       5.468  14.290  22.367  0.00  0.00    +0.000 N 
ATOM     22  C   UNL     1       4.220  14.739  21.979  0.00  0.00    +0.000 C 
ATOM     23  O   UNL     1       3.291  14.836  22.779  0.00  0.00    +0.000 OA
ATOM     24  H   UNL     1       6.243  14.499  21.748  0.00  0.00    +0.000 HD
BRANCH  22  25
ATOM     25  C   UNL     1       4.067  15.045  20.473  0.00  0.00    +0.000 C 
ATOM     26  C   UNL     1       3.427  16.430  20.290  0.00  0.00    +0.000 C 
ATOM     27  C   UNL     1       5.459  15.056  19.815  0.00  0.00    +0.000 C 
ATOM     28  C   UNL     1       3.207  13.982  19.773  0.00  0.00    +0.000 C 
ENDBRANCH  22  25
ENDBRANCH  11  21
TORSDOF 3
ENDMDL
MODEL 8
REMARK VINA RESULT:      -7.4      8.028     12.030
REMARK  Name = 
REMARK  7 active torsions:
REMARK  status: ('A' for Active; 'I' for Inactive)
REMARK    1  A    between atoms: C_1  and  C_2
REMARK    2  A    between atoms: C_6  and  N_7
REMARK    3  A    between atoms: C_17  and  N_18
REMARK    4  A    between atoms: C_19  and  C_21
REMARK    5  A    between atoms: C_21  and  C_22
REMARK    6  A    between atoms: C_21  and  C_23
REMARK    7  A    between atoms: C_21  and  C_24
REMARK                            x       y       z     vdW  Elec       q    Type
REMARK                         _______ _______ _______ _____ _____    ______ ____
ROOT
ATOM      1  N   UNL     1      -5.195  13.549  21.532  0.00  0.00    +0.000 N 
ATOM      2  C   UNL     1      -4.277  13.308  22.527  0.00  0.00    +0.000 C 
ATOM      3  O   UNL     1      -3.801  12.204  22.781  0.00  0.00    +0.000 OA
ATOM      4  N   UNL     1      -3.871  14.443  23.244  0.00  0.00    +0.000 N 
ATOM      5  C   UNL     1      -2.888  14.219  24.299  0.00  0.00    +0.000 C 
ATOM      6  C   UNL     1      -2.998  15.261  25.417  0.00  0.00    +0.000 C 
ATOM      7  C   UNL     1      -3.128  16.706  24.954  0.00  0.00    +0.000 C 
ATOM      8  C   UNL     1      -3.905  16.876  23.655  0.00  0.00    +0.000 C 
ATOM      9  C   UNL     1      -3.709  15.756  22.628  0.00  0.00    +0.000 C 
ATOM     10  C   UNL     1      -2.373  15.813  21.880  0.00  0.00    +0.000 C 
ATOM     11  C   UNL     1      -1.222  14.941  22.423  0.00  0.00    +0.000 C 
ATOM     12  C   UNL     1      -1.481  14.109  23.694  0.00  0.00    +0.000 C 
ATOM     13  H   UNL     1      -5.545  14.486  21.432  0.00  0.00    +0.000 HD
ENDROOT
BRANCH   1  19
ATOM     14  C   UNL     1      -4.855  11.340  17.142  0.00  0.00    +0.000 C 
ATOM     15  C   UNL     1      -5.561  11.521  18.448  0.00  0.00    +0.000 A 
ATOM     16  C   UNL     1      -6.651  10.703  18.778  0.00  0.00    +0.000 A 
ATOM     17  C   UNL     1      -7.280  10.839  20.011  0.00  0.00    +0.000 A 
ATOM     18  C   UNL     1      -6.816  11.784  20.934  0.00  0.00    +0.000 A 
ATOM     19  C   UNL     1      -5.731  12.597  20.632  0.00  0.00    +0.000 A 
ATOM     20  C   UNL     1      -5.126  12.479  19.375  0.00  0.00    +0.000 A 
ENDBRANCH   1  19
BRANCH  11  21
ATOM     21  N   UNL     1      -0.761  14.059  21.337  0.00  0.00    +0.000 N 
ATOM     22  C   UNL     1       0.549  13.632  21.229  0.00  0.00    +0.000 C 
ATOM     23  O   UNL     1       1.428  14.048  21.983  0.00  0.00    +0.000 OA
ATOM     24  H   UNL     1      -1.468  13.485  20.893  0.00  0.00    +0.000 HD
BRANCH  22  25
ATOM     25  C   UNL     1       0.832  12.657  20.066  0.00  0.00    +0.000 C 
ATOM     26  C   UNL     1       0.900  11.219  20.603  0.00  0.00    +0.000 C 
ATOM     27  C   UNL     1      -0.314  12.745  19.041  0.00  0.00    +0.000 C 
ATOM     28  C   UNL     1       2.148  13.005  19.354  0.00  0.00    +0.000 C 
ENDBRANCH  22  25
ENDBRANCH  11  21
TORSDOF 3
ENDMDL
MODEL 9
REMARK VINA RESULT:      -7.3      0.840      1.176
REMARK  Name = 
REMARK  7 active torsions:
REMARK  status: ('A' for Active; 'I' for Inactive)
REMARK    1  A    between atoms: C_1  and  C_2
REMARK    2  A    between atoms: C_6  and  N_7
REMARK    3  A    between atoms: C_17  and  N_18
REMARK    4  A    between atoms: C_19  and  C_21
REMARK    5  A    between atoms: C_21  and  C_22
REMARK    6  A    between atoms: C_21  and  C_23
REMARK    7  A    between atoms: C_21  and  C_24
REMARK                            x       y       z     vdW  Elec       q    Type
REMARK                         _______ _______ _______ _____ _____    ______ ____
ROOT
ATOM      1  N   UNL     1       3.427   7.343  17.468  0.00  0.00    +0.000 N 
ATOM      2  C   UNL     1       4.519   6.702  18.004  0.00  0.00    +0.000 C 
ATOM      3  O   UNL     1       4.837   6.742  19.190  0.00  0.00    +0.000 OA
ATOM      4  N   UNL     1       5.263   5.939  17.091  0.00  0.00    +0.000 N 
ATOM      5  C   UNL     1       6.422   5.237  17.634  0.00  0.00    +0.000 C 
ATOM      6  C   UNL     1       7.508   5.020  16.576  0.00  0.00    +0.000 C 
ATOM      7  C   UNL     1       7.017   4.506  15.230  0.00  0.00    +0.000 C 
ATOM      8  C   UNL     1       5.639   5.018  14.832  0.00  0.00    +0.000 C 
ATOM      9  C   UNL     1       4.653   5.199  15.991  0.00  0.00    +0.000 C 
ATOM     10  C   UNL     1       4.054   3.891  16.519  0.00  0.00    +0.000 C 
ATOM     11  C   UNL     1       4.730   3.252  17.750  0.00  0.00    +0.000 C 
ATOM     12  C   UNL     1       5.975   3.947  18.335  0.00  0.00    +0.000 C 
ATOM     13  H   UNL     1       3.279   7.270  16.476  0.00  0.00    +0.000 HD
ENDROOT
BRANCH   1  19
ATOM     14  C   UNL     1       1.006   8.140  21.684  0.00  0.00    +0.000 C 
ATOM     15  C   UNL     1       1.280   8.508  20.260  0.00  0.00    +0.000 A 
ATOM     16  C   UNL     1       0.685   9.646  19.700  0.00  0.00    +0.000 A 
ATOM     17  C   UNL     1       0.974  10.015  18.390  0.00  0.00    +0.000 A 
ATOM     18  C   UNL     1       1.876   9.258  17.632  0.00  0.00    +0.000 A 
ATOM     19  C   UNL     1       2.485   8.132  18.171  0.00  0.00    +0.000 A 
ATOM     20  C   UNL     1       2.161   7.747  19.477  0.00  0.00    +0.000 A 
ENDBRANCH   1  19
BRANCH  11  21
ATOM     21  N   UNL     1       3.712   3.089  18.802  0.00  0.00    +0.000 N 
ATOM     22  C   UNL     1       2.473   3.699  18.740  0.00  0.00    +0.000 C 
ATOM     23  O   UNL     1       2.188   4.493  17.846  0.00  0.00    +0.000 OA
ATOM     24  H   UNL     1       3.785   2.256  19.374  0.00  0.00    +0.000 HD
BRANCH  22  25
ATOM     25  C   UNL     1       1.512   3.358  19.899  0.00  0.00    +0.000 C 
ATOM     26  C   UNL     1       0.454   2.354  19.414  0.00  0.00    +0.000 C 
ATOM     27  C   UNL     1       2.310   2.714  21.048  0.00  0.00    +0.000 C 
ATOM     28  C   UNL     1       0.819   4.619  20.438  0.00  0.00    +0.000 C 
ENDBRANCH  22  25
ENDBRANCH  11  21
TORSDOF 3
ENDMDL
