MODEL 1
REMARK VINA RESULT:      -6.0      0.000      0.000
REMARK  Name = 
REMARK  6 active torsions:
REMARK  status: ('A' for Active; 'I' for Inactive)
REMARK    1  A    between atoms: C_1  and  C_2
REMARK    2  A    between atoms: C_3  and  C_4
REMARK    3  A    between atoms: C_11  and  C_12
REMARK    4  A    between atoms: C_22  and  S_23
REMARK    5  A    between atoms: S_23  and  C_24
REMARK    6  A    between atoms: N_28  and  C_29
REMARK                            x       y       z     vdW  Elec       q    Type
REMARK                         _______ _______ _______ _____ _____    ______ ____
ROOT
ATOM      1  C   UNL     1      -0.245  13.228  18.394  0.00  0.00    +0.000 C 
ATOM      2  C   UNL     1      -1.052  12.877  19.628  0.00  0.00    +0.000 C 
ATOM      3  C   UNL     1      -0.569  12.744  20.893  0.00  0.00    +0.000 C 
ATOM      4  N   UNL     1      -1.438  12.718  21.980  0.00  0.00    +0.000 N 
ATOM      5  C   UNL     1      -1.387  13.368  23.180  0.00  0.00    +0.000 C 
ATOM      6  O   UNL     1      -0.573  13.981  23.827  0.00  0.00    +0.000 OA
ATOM      7  C   UNL     1      -2.852  13.269  23.296  0.00  0.00    +0.000 C 
ATOM      8  C   UNL     1      -3.795  13.701  24.137  0.00  0.00    +0.000 C 
ATOM      9  C   UNL     1      -2.872  12.598  21.956  0.00  0.00    +0.000 C 
ATOM     10  S   UNL     1      -3.469  13.601  20.621  0.00  0.00    +0.000 S 
ATOM     11  O   UNL     1      -3.022  14.983  20.676  0.00  0.00    +0.000 OA
ATOM     12  O   UNL     1      -4.880  13.355  20.359  0.00  0.00    +0.000 OA
ATOM     13  C   UNL     1      -2.545  12.798  19.321  0.00  0.00    +0.000 C 
ENDROOT
BRANCH   8  14
ATOM     14  C   UNL     1      -5.235  13.512  23.911  0.00  0.00    +0.000 A 
ATOM     15  C   UNL     1      -6.037  14.582  23.534  0.00  0.00    +0.000 A 
ATOM     16  C   UNL     1      -7.400  14.364  23.343  0.00  0.00    +0.000 A 
ATOM     17  C   UNL     1      -7.916  13.091  23.530  0.00  0.00    +0.000 A 
ATOM     18  C   UNL     1      -7.043  12.074  23.883  0.00  0.00    +0.000 A 
ATOM     19  N   UNL     1      -5.715  12.252  24.075  0.00  0.00    +0.000 NA
ENDBRANCH   8  14
BRANCH   3  20
ATOM     20  C   UNL     1       1.006  12.563  21.231  0.00  0.00    +0.000 C 
ATOM     21  O   UNL     1       1.419  11.378  21.083  0.00  0.00    +0.000 OA
ATOM     22  O   UNL     1       1.655  13.622  21.435  0.00  0.00    +0.000 OA
ENDBRANCH   3  20
BRANCH  13  23
ATOM     23  S   UNL     1      -2.944  11.013  19.009  0.00  0.00    +0.000 S 
BRANCH  23  24
ATOM     24  C   UNL     1      -3.112  11.006  17.298  0.00  0.00    +0.000 A 
ATOM     25  N   UNL     1      -2.246  10.490  16.456  0.00  0.00    +0.000 NA
ATOM     26  N   UNL     1      -2.776  10.716  15.207  0.00  0.00    +0.000 NA
ATOM     27  N   UNL     1      -3.952  11.331  15.285  0.00  0.00    +0.000 NA
ATOM     28  N   UNL     1      -4.170  11.515  16.601  0.00  0.00    +0.000 N 
ATOM     29  C   UNL     1      -5.422  12.049  17.063  0.00  0.00    +0.000 C 
ENDBRANCH  23  24
ENDBRANCH  13  23
TORSDOF 4
ENDMDL
MODEL 2
REMARK VINA RESULT:      -6.0      2.716      6.416
REMARK  Name = 
REMARK  6 active torsions:
REMARK  status: ('A' for Active; 'I' for Inactive)
REMARK    1  A    between atoms: C_1  and  C_2
REMARK    2  A    between atoms: C_3  and  C_4
REMARK    3  A    between atoms: C_11  and  C_12
REMARK    4  A    between atoms: C_22  and  S_23
REMARK    5  A    between atoms: S_23  and  C_24
REMARK    6  A    between atoms: N_28  and  C_29
REMARK                            x       y       z     vdW  Elec       q    Type
REMARK                         _______ _______ _______ _____ _____    ______ ____
ROOT
ATOM      1  C   UNL     1      -2.538  14.793  25.840  0.00  0.00    +0.000 C 
ATOM      2  C   UNL     1      -2.154  14.716  24.376  0.00  0.00    +0.000 C 
ATOM      3  C   UNL     1      -1.164  15.423  23.767  0.00  0.00    +0.000 C 
ATOM      4  N   UNL     1      -0.708  15.054  22.505  0.00  0.00    +0.000 N 
ATOM      5  C   UNL     1       0.559  14.916  22.017  0.00  0.00    +0.000 C 
ATOM      6  O   UNL     1       1.679  15.229  22.344  0.00  0.00    +0.000 OA
ATOM      7  C   UNL     1       0.069  13.961  21.009  0.00  0.00    +0.000 C 
ATOM      8  C   UNL     1       0.601  13.181  20.064  0.00  0.00    +0.000 C 
ATOM      9  C   UNL     1      -1.301  14.104  21.599  0.00  0.00    +0.000 C 
ATOM     10  S   UNL     1      -1.853  12.722  22.564  0.00  0.00    +0.000 S 
ATOM     11  O   UNL     1      -0.819  12.133  23.396  0.00  0.00    +0.000 OA
ATOM     12  O   UNL     1      -2.685  11.822  21.777  0.00  0.00    +0.000 OA
ATOM     13  C   UNL     1      -2.944  13.636  23.642  0.00  0.00    +0.000 C 
ENDROOT
BRANCH   8  14
ATOM     14  C   UNL     1      -0.181  12.229  19.260  0.00  0.00    +0.000 A 
ATOM     15  C   UNL     1      -1.082  12.685  18.307  0.00  0.00    +0.000 A 
ATOM     16  C   UNL     1      -1.813  11.751  17.575  0.00  0.00    +0.000 A 
ATOM     17  C   UNL     1      -1.621  10.399  17.816  0.00  0.00    +0.000 A 
ATOM     18  C   UNL     1      -0.685  10.029  18.769  0.00  0.00    +0.000 A 
ATOM     19  N   UNL     1       0.042  10.911  19.495  0.00  0.00    +0.000 NA
ENDBRANCH   8  14
BRANCH   3  20
ATOM     20  C   UNL     1      -0.480  16.741  24.417  0.00  0.00    +0.000 C 
ATOM     21  O   UNL     1      -1.048  17.819  24.083  0.00  0.00    +0.000 OA
ATOM     22  O   UNL     1       0.408  16.535  25.286  0.00  0.00    +0.000 OA
ENDBRANCH   3  20
BRANCH  13  23
ATOM     23  S   UNL     1      -4.390  14.473  22.834  0.00  0.00    +0.000 S 
BRANCH  23  24
ATOM     24  C   UNL     1      -5.696  13.529  23.435  0.00  0.00    +0.000 A 
ATOM     25  N   UNL     1      -5.609  12.279  23.826  0.00  0.00    +0.000 NA
ATOM     26  N   UNL     1      -6.882  11.930  24.214  0.00  0.00    +0.000 NA
ATOM     27  N   UNL     1      -7.722  12.953  24.088  0.00  0.00    +0.000 NA
ATOM     28  N   UNL     1      -6.980  13.964  23.599  0.00  0.00    +0.000 N 
ATOM     29  C   UNL     1      -7.548  15.277  23.454  0.00  0.00    +0.000 C 
ENDBRANCH  23  24
ENDBRANCH  13  23
TORSDOF 4
ENDMDL
MODEL 3
REMARK VINA RESULT:      -5.8      3.576      4.536
REMARK  Name = 
REMARK  6 active torsions:
REMARK  status: ('A' for Active; 'I' for Inactive)
REMARK    1  A    between atoms: C_1  and  C_2
REMARK    2  A    between atoms: C_3  and  C_4
REMARK    3  A    between atoms: C_11  and  C_12
REMARK    4  A    between atoms: C_22  and  S_23
REMARK    5  A    between atoms: S_23  and  C_24
REMARK    6  A    between atoms: N_28  and  C_29
REMARK                            x       y       z     vdW  Elec       q    Type
REMARK                         _______ _______ _______ _____ _____    ______ ____
ROOT
ATOM      1  C   UNL     1       2.411  13.479  20.647  0.00  0.00    +0.000 C 
ATOM      2  C   UNL     1       0.915  13.418  20.886  0.00  0.00    +0.000 C 
ATOM      3  C   UNL     1       0.192  12.301  21.164  0.00  0.00    +0.000 C 
ATOM      4  N   UNL     1      -1.106  12.406  21.656  0.00  0.00    +0.000 N 
ATOM      5  C   UNL     1      -1.725  11.762  22.688  0.00  0.00    +0.000 C 
ATOM      6  O   UNL     1      -1.526  10.794  23.382  0.00  0.00    +0.000 OA
ATOM      7  C   UNL     1      -2.657  12.893  22.836  0.00  0.00    +0.000 C 
ATOM      8  C   UNL     1      -3.640  13.244  23.670  0.00  0.00    +0.000 C 
ATOM      9  C   UNL     1      -1.926  13.588  21.728  0.00  0.00    +0.000 C 
ATOM     10  S   UNL     1      -0.883  14.928  22.241  0.00  0.00    +0.000 S 
ATOM     11  O   UNL     1      -0.157  14.673  23.473  0.00  0.00    +0.000 OA
ATOM     12  O   UNL     1      -1.560  16.210  22.106  0.00  0.00    +0.000 OA
ATOM     13  C   UNL     1       0.290  14.811  20.900  0.00  0.00    +0.000 C 
ENDROOT
BRANCH   8  14
ATOM     14  C   UNL     1      -4.338  14.536  23.605  0.00  0.00    +0.000 A 
ATOM     15  C   UNL     1      -4.072  15.530  24.538  0.00  0.00    +0.000 A 
ATOM     16  C   UNL     1      -4.765  16.736  24.450  0.00  0.00    +0.000 A 
ATOM     17  C   UNL     1      -5.695  16.911  23.436  0.00  0.00    +0.000 A 
ATOM     18  C   UNL     1      -5.884  15.878  22.532  0.00  0.00    +0.000 A 
ATOM     19  N   UNL     1      -5.226  14.696  22.589  0.00  0.00    +0.000 NA
ENDBRANCH   8  14
BRANCH   3  20
ATOM     20  C   UNL     1       0.741  10.796  20.911  0.00  0.00    +0.000 C 
ATOM     21  O   UNL     1       1.335  10.304  21.911  0.00  0.00    +0.000 OA
ATOM     22  O   UNL     1       0.376  10.245  19.839  0.00  0.00    +0.000 OA
ENDBRANCH   3  20
BRANCH  13  23
ATOM     23  S   UNL     1      -0.371  15.128  19.196  0.00  0.00    +0.000 S 
BRANCH  23  24
ATOM     24  C   UNL     1       0.652  16.409  18.677  0.00  0.00    +0.000 A 
ATOM     25  N   UNL     1       1.961  16.345  18.597  0.00  0.00    +0.000 NA
ATOM     26  N   UNL     1       2.358  17.585  18.151  0.00  0.00    +0.000 NA
ATOM     27  N   UNL     1       1.313  18.378  17.937  0.00  0.00    +0.000 NA
ATOM     28  N   UNL     1       0.235  17.641  18.264  0.00  0.00    +0.000 N 
ATOM     29  C   UNL     1      -1.090  18.150  18.033  0.00  0.00    +0.000 C 
ENDBRANCH  23  24
ENDBRANCH  13  23
TORSDOF 4
ENDMDL
MODEL 4
REMARK VINA RESULT:      -5.7      4.504      7.667
REMARK  Name = 
REMARK  6 active torsions:
REMARK  status: ('A' for Active; 'I' for Inactive)
REMARK    1  A    between atoms: C_1  and  C_2
REMARK    2  A    between atoms: C_3  and  C_4
REMARK    3  A    between atoms: C_11  and  C_12
REMARK    4  A    between atoms: C_22  and  S_23
REMARK    5  A    between atoms: S_23  and  C_24
REMARK    6  A    between atoms: N_28  and  C_29
REMARK                            x       y       z     vdW  Elec       q    Type
REMARK                         _______ _______ _______ _____ _____    ______ ____
ROOT
ATOM      1  C   UNL     1       0.602  16.687  20.593  0.00  0.00    +0.000 C 
ATOM      2  C   UNL     1       0.730  15.203  20.874  0.00  0.00    +0.000 C 
ATOM      3  C   UNL     1      -0.004  14.490  21.770  0.00  0.00    +0.000 C 
ATOM      4  N   UNL     1      -0.009  13.098  21.727  0.00  0.00    +0.000 N 
ATOM      5  C   UNL     1      -1.039  12.205  21.795  0.00  0.00    +0.000 C 
ATOM      6  O   UNL     1      -2.206  12.214  22.107  0.00  0.00    +0.000 OA
ATOM      7  C   UNL     1      -0.234  11.218  21.057  0.00  0.00    +0.000 C 
ATOM      8  C   UNL     1      -0.414   9.996  20.550  0.00  0.00    +0.000 C 
ATOM      9  C   UNL     1       0.859  12.239  20.965  0.00  0.00    +0.000 C 
ATOM     10  S   UNL     1       1.065  12.977  19.365  0.00  0.00    +0.000 S 
ATOM     11  O   UNL     1      -0.184  13.262  18.681  0.00  0.00    +0.000 OA
ATOM     12  O   UNL     1       2.118  12.316  18.606  0.00  0.00    +0.000 OA
ATOM     13  C   UNL     1       1.727  14.535  19.932  0.00  0.00    +0.000 C 
ENDROOT
BRANCH   8  14
ATOM     14  C   UNL     1       0.597   9.291  19.748  0.00  0.00    +0.000 A 
ATOM     15  C   UNL     1       1.409   8.324  20.328  0.00  0.00    +0.000 A 
ATOM     16  C   UNL     1       2.364   7.689  19.537  0.00  0.00    +0.000 A 
ATOM     17  C   UNL     1       2.477   8.035  18.199  0.00  0.00    +0.000 A 
ATOM     18  C   UNL     1       1.612   8.993  17.694  0.00  0.00    +0.000 A 
ATOM     19  N   UNL     1       0.672   9.627  18.435  0.00  0.00    +0.000 NA
ENDBRANCH   8  14
BRANCH   3  20
ATOM     20  C   UNL     1      -0.875  15.172  22.956  0.00  0.00    +0.000 C 
ATOM     21  O   UNL     1      -2.019  15.554  22.583  0.00  0.00    +0.000 OA
ATOM     22  O   UNL     1      -0.390  15.092  24.116  0.00  0.00    +0.000 OA
ENDBRANCH   3  20
BRANCH  13  23
ATOM     23  S   UNL     1       3.354  14.465  20.820  0.00  0.00    +0.000 S 
BRANCH  23  24
ATOM     24  C   UNL     1       4.149  15.842  20.165  0.00  0.00    +0.000 A 
ATOM     25  N   UNL     1       4.306  16.989  20.784  0.00  0.00    +0.000 NA
ATOM     26  N   UNL     1       4.979  17.793  19.892  0.00  0.00    +0.000 NA
ATOM     27  N   UNL     1       5.251  17.142  18.766  0.00  0.00    +0.000 NA
ATOM     28  N   UNL     1       4.732  15.910  18.932  0.00  0.00    +0.000 N 
ATOM     29  C   UNL     1       4.953  14.889  17.945  0.00  0.00    +0.000 C 
ENDBRANCH  23  24
ENDBRANCH  13  23
TORSDOF 4
ENDMDL
MODEL 5
REMARK VINA RESULT:      -5.7      3.583      4.553
REMARK  Name = 
REMARK  6 active torsions:
REMARK  status: ('A' for Active; 'I' for Inactive)
REMARK    1  A    between atoms: C_1  and  C_2
REMARK    2  A    between atoms: C_3  and  C_4
REMARK    3  A    between atoms: C_11  and  C_12
REMARK    4  A    between atoms: C_22  and  S_23
REMARK    5  A    between atoms: S_23  and  C_24
REMARK    6  A    between atoms: N_28  and  C_29
REMARK                            x       y       z     vdW  Elec       q    Type
REMARK                         _______ _______ _______ _____ _____    ______ ____
ROOT
ATOM      1  C   UNL     1       2.422  13.563  20.767  0.00  0.00    +0.000 C 
ATOM      2  C   UNL     1       0.924  13.472  20.977  0.00  0.00    +0.000 C 
ATOM      3  C   UNL     1       0.215  12.337  21.222  0.00  0.00    +0.000 C 
ATOM      4  N   UNL     1      -1.092  12.411  21.693  0.00  0.00    +0.000 N 
ATOM      5  C   UNL     1      -1.718  11.737  22.702  0.00  0.00    +0.000 C 
ATOM      6  O   UNL     1      -1.514  10.761  23.382  0.00  0.00    +0.000 OA
ATOM      7  C   UNL     1      -2.672  12.849  22.853  0.00  0.00    +0.000 C 
ATOM      8  C   UNL     1      -3.677  13.168  23.674  0.00  0.00    +0.000 C 
ATOM      9  C   UNL     1      -1.934  13.576  21.771  0.00  0.00    +0.000 C 
ATOM     10  S   UNL     1      -0.925  14.925  22.326  0.00  0.00    +0.000 S 
ATOM     11  O   UNL     1      -0.216  14.661  23.566  0.00  0.00    +0.000 OA
ATOM     12  O   UNL     1      -1.622  16.198  22.201  0.00  0.00    +0.000 OA
ATOM     13  C   UNL     1       0.274  14.852  21.004  0.00  0.00    +0.000 C 
ENDROOT
BRANCH   8  14
ATOM     14  C   UNL     1      -4.396  14.449  23.620  0.00  0.00    +0.000 A 
ATOM     15  C   UNL     1      -5.390  14.659  22.672  0.00  0.00    +0.000 A 
ATOM     16  C   UNL     1      -6.039  15.893  22.645  0.00  0.00    +0.000 A 
ATOM     17  C   UNL     1      -5.679  16.869  23.560  0.00  0.00    +0.000 A 
ATOM     18  C   UNL     1      -4.693  16.569  24.487  0.00  0.00    +0.000 A 
ATOM     19  N   UNL     1      -4.046  15.382  24.541  0.00  0.00    +0.000 NA
ENDBRANCH   8  14
BRANCH   3  20
ATOM     20  C   UNL     1       0.795  10.847  20.953  0.00  0.00    +0.000 C 
ATOM     21  O   UNL     1       0.734  10.495  19.741  0.00  0.00    +0.000 OA
ATOM     22  O   UNL     1       1.377  10.294  21.924  0.00  0.00    +0.000 OA
ENDBRANCH   3  20
BRANCH  13  23
ATOM     23  S   UNL     1      -0.363  15.189  19.295  0.00  0.00    +0.000 S 
BRANCH  23  24
ATOM     24  C   UNL     1       0.703  16.438  18.784  0.00  0.00    +0.000 A 
ATOM     25  N   UNL     1       2.013  16.391  18.858  0.00  0.00    +0.000 NA
ATOM     26  N   UNL     1       2.448  17.594  18.353  0.00  0.00    +0.000 NA
ATOM     27  N   UNL     1       1.428  18.347  17.954  0.00  0.00    +0.000 NA
ATOM     28  N   UNL     1       0.325  17.623  18.221  0.00  0.00    +0.000 N 
ATOM     29  C   UNL     1      -0.968  18.087  17.800  0.00  0.00    +0.000 C 
ENDBRANCH  23  24
ENDBRANCH  13  23
TORSDOF 4
ENDMDL
MODEL 6
REMARK VINA RESULT:      -5.7      9.790     13.138
REMARK  Name = 
REMARK  6 active torsions:
REMARK  status: ('A' for Active; 'I' for Inactive)
REMARK    1  A    between atoms: C_1  and  C_2
REMARK    2  A    between atoms: C_3  and  C_4
REMARK    3  A    between atoms: C_11  and  C_12
REMARK    4  A    between atoms: C_22  and  S_23
REMARK    5  A    between atoms: S_23  and  C_24
REMARK    6  A    between atoms: N_28  and  C_29
REMARK                            x       y       z     vdW  Elec       q    Type
REMARK                         _______ _______ _______ _____ _____    ______ ____
ROOT
ATOM      1  C   UNL     1       5.642  16.863  23.636  0.00  0.00    +0.000 C 
ATOM      2  C   UNL     1       6.144  16.121  22.413  0.00  0.00    +0.000 C 
ATOM      3  C   UNL     1       5.874  16.434  21.118  0.00  0.00    +0.000 C 
ATOM      4  N   UNL     1       6.624  15.873  20.087  0.00  0.00    +0.000 N 
ATOM      5  C   UNL     1       7.192  16.442  18.984  0.00  0.00    +0.000 C 
ATOM      6  O   UNL     1       7.115  17.485  18.380  0.00  0.00    +0.000 OA
ATOM      7  C   UNL     1       8.189  15.359  18.938  0.00  0.00    +0.000 C 
ATOM      8  C   UNL     1       9.273  15.061  18.216  0.00  0.00    +0.000 C 
ATOM      9  C   UNL     1       7.565  14.788  20.175  0.00  0.00    +0.000 C 
ATOM     10  S   UNL     1       8.503  15.015  21.663  0.00  0.00    +0.000 S 
ATOM     11  O   UNL     1       9.137  16.318  21.768  0.00  0.00    +0.000 OA
ATOM     12  O   UNL     1       9.309  13.842  21.969  0.00  0.00    +0.000 OA
ATOM     13  C   UNL     1       7.118  15.008  22.791  0.00  0.00    +0.000 C 
ENDROOT
BRANCH   8  14
ATOM     14  C   UNL     1      10.144  13.910  18.496  0.00  0.00    +0.000 A 
ATOM     15  C   UNL     1       9.830  12.651  18.001  0.00  0.00    +0.000 A 
ATOM     16  C   UNL     1      10.676  11.584  18.301  0.00  0.00    +0.000 A 
ATOM     17  C   UNL     1      11.802  11.807  19.077  0.00  0.00    +0.000 A 
ATOM     18  C   UNL     1      12.055  13.099  19.510  0.00  0.00    +0.000 A 
ATOM     19  N   UNL     1      11.256  14.157  19.236  0.00  0.00    +0.000 NA
ENDBRANCH   8  14
BRANCH   3  20
ATOM     20  C   UNL     1       4.667  17.419  20.670  0.00  0.00    +0.000 C 
ATOM     21  O   UNL     1       5.013  18.631  20.583  0.00  0.00    +0.000 OA
ATOM     22  O   UNL     1       3.599  16.859  20.308  0.00  0.00    +0.000 OA
ENDBRANCH   3  20
BRANCH  13  23
ATOM     23  S   UNL     1       6.139  13.435  22.884  0.00  0.00    +0.000 S 
BRANCH  23  24
ATOM     24  C   UNL     1       6.184  13.116  24.573  0.00  0.00    +0.000 A 
ATOM     25  N   UNL     1       5.202  13.351  25.412  0.00  0.00    +0.000 NA
ATOM     26  N   UNL     1       5.675  12.957  26.643  0.00  0.00    +0.000 NA
ATOM     27  N   UNL     1       6.908  12.468  26.552  0.00  0.00    +0.000 NA
ATOM     28  N   UNL     1       7.233  12.564  25.250  0.00  0.00    +0.000 N 
ATOM     29  C   UNL     1       8.467  12.006  24.766  0.00  0.00    +0.000 C 
ENDBRANCH  23  24
ENDBRANCH  13  23
TORSDOF 4
ENDMDL
MODEL 7
REMARK VINA RESULT:      -5.7      3.019      5.083
REMARK  Name = 
REMARK  6 active torsions:
REMARK  status: ('A' for Active; 'I' for Inactive)
REMARK    1  A    between atoms: C_1  and  C_2
REMARK    2  A    between atoms: C_3  and  C_4
REMARK    3  A    between atoms: C_11  and  C_12
REMARK    4  A    between atoms: C_22  and  S_23
REMARK    5  A    between atoms: S_23  and  C_24
REMARK    6  A    between atoms: N_28  and  C_29
REMARK                            x       y       z     vdW  Elec       q    Type
REMARK                         _______ _______ _______ _____ _____    ______ ____
ROOT
ATOM      1  C   UNL     1      -1.084  15.878  22.923  0.00  0.00    +0.000 C 
ATOM      2  C   UNL     1      -2.246  14.905  22.895  0.00  0.00    +0.000 C 
ATOM      3  C   UNL     1      -3.300  14.888  23.754  0.00  0.00    +0.000 C 
ATOM      4  N   UNL     1      -4.443  14.152  23.452  0.00  0.00    +0.000 N 
ATOM      5  C   UNL     1      -5.765  14.483  23.529  0.00  0.00    +0.000 C 
ATOM      6  O   UNL     1      -6.439  15.349  24.034  0.00  0.00    +0.000 OA
ATOM      7  C   UNL     1      -6.075  13.487  22.490  0.00  0.00    +0.000 C 
ATOM      8  C   UNL     1      -7.152  13.099  21.801  0.00  0.00    +0.000 C 
ATOM      9  C   UNL     1      -4.611  13.181  22.403  0.00  0.00    +0.000 C 
ATOM     10  S   UNL     1      -3.796  13.810  20.959  0.00  0.00    +0.000 S 
ATOM     11  O   UNL     1      -4.232  15.140  20.568  0.00  0.00    +0.000 OA
ATOM     12  O   UNL     1      -3.697  12.796  19.919  0.00  0.00    +0.000 OA
ATOM     13  C   UNL     1      -2.174  13.976  21.685  0.00  0.00    +0.000 C 
ENDROOT
BRANCH   8  14
ATOM     14  C   UNL     1      -7.111  12.105  20.719  0.00  0.00    +0.000 A 
ATOM     15  C   UNL     1      -7.235  10.750  21.000  0.00  0.00    +0.000 A 
ATOM     16  C   UNL     1      -7.177   9.839  19.946  0.00  0.00    +0.000 A 
ATOM     17  C   UNL     1      -6.999  10.307  18.654  0.00  0.00    +0.000 A 
ATOM     18  C   UNL     1      -6.907  11.676  18.458  0.00  0.00    +0.000 A 
ATOM     19  N   UNL     1      -6.962  12.587  19.458  0.00  0.00    +0.000 NA
ENDBRANCH   8  14
BRANCH   3  20
ATOM     20  C   UNL     1      -3.303  15.660  25.179  0.00  0.00    +0.000 C 
ATOM     21  O   UNL     1      -2.700  15.031  26.093  0.00  0.00    +0.000 OA
ATOM     22  O   UNL     1      -3.745  16.840  25.170  0.00  0.00    +0.000 OA
ENDBRANCH   3  20
BRANCH  13  23
ATOM     23  S   UNL     1      -1.359  12.408  22.249  0.00  0.00    +0.000 S 
BRANCH  23  24
ATOM     24  C   UNL     1       0.098  12.445  21.335  0.00  0.00    +0.000 A 
ATOM     25  N   UNL     1       1.160  13.157  21.634  0.00  0.00    +0.000 NA
ATOM     26  N   UNL     1       2.069  12.890  20.637  0.00  0.00    +0.000 NA
ATOM     27  N   UNL     1       1.583  12.013  19.764  0.00  0.00    +0.000 NA
ATOM     28  N   UNL     1       0.342  11.727  20.200  0.00  0.00    +0.000 N 
ATOM     29  C   UNL     1      -0.438  10.707  19.555  0.00  0.00    +0.000 C 
ENDBRANCH  23  24
ENDBRANCH  13  23
TORSDOF 4
ENDMDL
MODEL 8
REMARK VINA RESULT:      -5.6      2.732      6.231
REMARK  Name = 
REMARK  6 active torsions:
REMARK  status: ('A' for Active; 'I' for Inactive)
REMARK    1  A    between atoms: C_1  and  C_2
REMARK    2  A    between atoms: C_3  and  C_4
REMARK    3  A    between atoms: C_11  and  C_12
REMARK    4  A    between atoms: C_22  and  S_23
REMARK    5  A    between atoms: S_23  and  C_24
REMARK    6  A    between atoms: N_28  and  C_29
REMARK                            x       y       z     vdW  Elec       q    Type
REMARK                         _______ _______ _______ _____ _____    ______ ____
ROOT
ATOM      1  C   UNL     1      -1.856  15.063  25.561  0.00  0.00    +0.000 C 
ATOM      2  C   UNL     1      -1.591  14.916  24.077  0.00  0.00    +0.000 C 
ATOM      3  C   UNL     1      -0.651  15.587  23.359  0.00  0.00    +0.000 C 
ATOM      4  N   UNL     1      -0.300  15.157  22.082  0.00  0.00    +0.000 N 
ATOM      5  C   UNL     1       0.924  14.988  21.502  0.00  0.00    +0.000 C 
ATOM      6  O   UNL     1       2.067  15.308  21.724  0.00  0.00    +0.000 OA
ATOM      7  C   UNL     1       0.352  13.990  20.582  0.00  0.00    +0.000 C 
ATOM      8  C   UNL     1       0.804  13.164  19.635  0.00  0.00    +0.000 C 
ATOM      9  C   UNL     1      -0.966  14.171  21.272  0.00  0.00    +0.000 C 
ATOM     10  S   UNL     1      -1.443  12.838  22.341  0.00  0.00    +0.000 S 
ATOM     11  O   UNL     1      -0.347  12.281  23.115  0.00  0.00    +0.000 OA
ATOM     12  O   UNL     1      -2.338  11.909  21.667  0.00  0.00    +0.000 OA
ATOM     13  C   UNL     1      -2.442  13.809  23.459  0.00  0.00    +0.000 C 
ENDROOT
BRANCH   8  14
ATOM     14  C   UNL     1      -0.043  12.182  18.942  0.00  0.00    +0.000 A 
ATOM     15  C   UNL     1      -1.146  12.596  18.206  0.00  0.00    +0.000 A 
ATOM     16  C   UNL     1      -1.931  11.632  17.575  0.00  0.00    +0.000 A 
ATOM     17  C   UNL     1      -1.589  10.294  17.696  0.00  0.00    +0.000 A 
ATOM     18  C   UNL     1      -0.459   9.968  18.429  0.00  0.00    +0.000 A 
ATOM     19  N   UNL     1       0.324  10.879  19.052  0.00  0.00    +0.000 NA
ENDBRANCH   8  14
BRANCH   3  20
ATOM     20  C   UNL     1       0.087  16.930  23.889  0.00  0.00    +0.000 C 
ATOM     21  O   UNL     1       1.096  16.696  24.613  0.00  0.00    +0.000 OA
ATOM     22  O   UNL     1      -0.317  18.017  23.397  0.00  0.00    +0.000 OA
ENDBRANCH   3  20
BRANCH  13  23
ATOM     23  S   UNL     1      -3.945  14.617  22.732  0.00  0.00    +0.000 S 
BRANCH  23  24
ATOM     24  C   UNL     1      -5.167  13.482  23.151  0.00  0.00    +0.000 A 
ATOM     25  N   UNL     1      -5.114  12.656  24.171  0.00  0.00    +0.000 NA
ATOM     26  N   UNL     1      -6.285  11.937  24.117  0.00  0.00    +0.000 NA
ATOM     27  N   UNL     1      -7.049  12.334  23.104  0.00  0.00    +0.000 NA
ATOM     28  N   UNL     1      -6.350  13.309  22.492  0.00  0.00    +0.000 N 
ATOM     29  C   UNL     1      -6.937  14.058  21.415  0.00  0.00    +0.000 C 
ENDBRANCH  23  24
ENDBRANCH  13  23
TORSDOF 4
ENDMDL
MODEL 9
REMARK VINA RESULT:      -5.6      2.850      6.075
REMARK  Name = 
REMARK  6 active torsions:
REMARK  status: ('A' for Active; 'I' for Inactive)
REMARK    1  A    between atoms: C_1  and  C_2
REMARK    2  A    between atoms: C_3  and  C_4
REMARK    3  A    between atoms: C_11  and  C_12
REMARK    4  A    between atoms: C_22  and  S_23
REMARK    5  A    between atoms: S_23  and  C_24
REMARK    6  A    between atoms: N_28  and  C_29
REMARK                            x       y       z     vdW  Elec       q    Type
REMARK                         _______ _______ _______ _____ _____    ______ ____
ROOT
ATOM      1  C   UNL     1      -6.582  13.739  23.885  0.00  0.00    +0.000 C 
ATOM      2  C   UNL     1      -5.411  14.213  23.049  0.00  0.00    +0.000 C 
ATOM      3  C   UNL     1      -4.838  15.446  23.095  0.00  0.00    +0.000 C 
ATOM      4  N   UNL     1      -3.595  15.668  22.508  0.00  0.00    +0.000 N 
ATOM      5  C   UNL     1      -2.489  16.316  22.977  0.00  0.00    +0.000 C 
ATOM      6  O   UNL     1      -2.213  17.070  23.879  0.00  0.00    +0.000 OA
ATOM      7  C   UNL     1      -1.638  15.509  22.086  0.00  0.00    +0.000 C 
ATOM      8  C   UNL     1      -0.330  15.356  21.861  0.00  0.00    +0.000 C 
ATOM      9  C   UNL     1      -2.870  14.790  21.627  0.00  0.00    +0.000 C 
ATOM     10  S   UNL     1      -3.053  13.140  22.250  0.00  0.00    +0.000 S 
ATOM     11  O   UNL     1      -2.661  12.987  23.641  0.00  0.00    +0.000 OA
ATOM     12  O   UNL     1      -2.566  12.153  21.296  0.00  0.00    +0.000 OA
ATOM     13  C   UNL     1      -4.837  13.087  22.193  0.00  0.00    +0.000 C 
ENDROOT
BRANCH   8  14
ATOM     14  C   UNL     1       0.224  14.357  20.936  0.00  0.00    +0.000 A 
ATOM     15  C   UNL     1       0.252  14.601  19.568  0.00  0.00    +0.000 A 
ATOM     16  C   UNL     1       0.774  13.621  18.724  0.00  0.00    +0.000 A 
ATOM     17  C   UNL     1       1.250  12.439  19.269  0.00  0.00    +0.000 A 
ATOM     18  C   UNL     1       1.206  12.286  20.645  0.00  0.00    +0.000 A 
ATOM     19  N   UNL     1       0.708  13.217  21.492  0.00  0.00    +0.000 NA
ENDBRANCH   8  14
BRANCH   3  20
ATOM     20  C   UNL     1      -5.548  16.735  23.775  0.00  0.00    +0.000 C 
ATOM     21  O   UNL     1      -6.370  17.317  23.013  0.00  0.00    +0.000 OA
ATOM     22  O   UNL     1      -5.331  16.904  25.004  0.00  0.00    +0.000 OA
ENDBRANCH   3  20
BRANCH  13  23
ATOM     23  S   UNL     1      -5.613  13.228  20.514  0.00  0.00    +0.000 S 
BRANCH  23  24
ATOM     24  C   UNL     1      -6.363  11.687  20.366  0.00  0.00    +0.000 A 
ATOM     25  N   UNL     1      -7.062  11.093  21.305  0.00  0.00    +0.000 NA
ATOM     26  N   UNL     1      -7.457   9.894  20.759  0.00  0.00    +0.000 NA
ATOM     27  N   UNL     1      -7.032   9.770  19.506  0.00  0.00    +0.000 NA
ATOM     28  N   UNL     1      -6.343  10.899  19.251  0.00  0.00    +0.000 N 
ATOM     29  C   UNL     1      -5.841  11.161  17.930  0.00  0.00    +0.000 C 
ENDBRANCH  23  24
ENDBRANCH  13  23
TORSDOF 4
ENDMDL
