MODEL 1
REMARK VINA RESULT:      -6.6      0.000      0.000
REMARK  Name = 
REMARK  5 active torsions:
REMARK  status: ('A' for Active; 'I' for Inactive)
REMARK    1  A    between atoms: C_1  and  C_2
REMARK    2  A    between atoms: C_12  and  C_13
REMARK    3  A    between atoms: C_14  and  O_15
REMARK    4  A    between atoms: C_16  and  C_17
REMARK    5  A    between atoms: C_16  and  C_18
REMARK                            x       y       z     vdW  Elec       q    Type
REMARK                         _______ _______ _______ _____ _____    ______ ____
ROOT
ATOM      1  C   UNL     1       1.398   1.809  19.508  0.00  0.00    +0.000 C 
ATOM      2  C   UNL     1       2.083   2.734  18.538  0.00  0.00    +0.000 A 
ATOM      3  C   UNL     1       2.917   2.191  17.557  0.00  0.00    +0.000 A 
ATOM      4  C   UNL     1       3.799   3.011  16.836  0.00  0.00    +0.000 A 
ATOM      5  C   UNL     1       3.807   4.388  17.078  0.00  0.00    +0.000 A 
ATOM      6  C   UNL     1       2.841   4.986  17.904  0.00  0.00    +0.000 A 
ATOM      7  C   UNL     1       2.041   4.140  18.692  0.00  0.00    +0.000 A 
ATOM      8  C   UNL     1       1.540   4.715  19.958  0.00  0.00    +0.000 C 
ATOM      9  O   UNL     1       0.524   4.401  20.535  0.00  0.00    +0.000 OA
ATOM     10  O   UNL     1       2.564   5.429  20.505  0.00  0.00    +0.000 OA
ATOM     11  C   UNL     1       2.862   6.628  19.770  0.00  0.00    +0.000 C 
ATOM     12  C   UNL     1       3.106   6.444  18.237  0.00  0.00    +0.000 C 
ATOM     13  C   UNL     1       2.216   7.564  17.607  0.00  0.00    +0.000 C 
ATOM     14  C   UNL     1       4.568   6.595  17.612  0.00  0.00    +0.000 C 
ATOM     15  C   UNL     1       5.072   5.235  16.982  0.00  0.00    +0.000 C 
ATOM     16  C   UNL     1       5.713   5.338  15.573  0.00  0.00    +0.000 C 
ATOM     17  C   UNL     1       6.144   4.543  17.867  0.00  0.00    +0.000 C 
ENDROOT
BRANCH  14  18
ATOM     18  O   UNL     1       4.535   7.569  16.547  0.00  0.00    +0.000 OA
ATOM     19  H   UNL     1       4.714   8.454  16.926  0.00  0.00    +0.000 HD
ENDBRANCH  14  18
TORSDOF 1
ENDMDL
MODEL 2
REMARK VINA RESULT:      -6.2      2.154      3.602
REMARK  Name = 
REMARK  5 active torsions:
REMARK  status: ('A' for Active; 'I' for Inactive)
REMARK    1  A    between atoms: C_1  and  C_2
REMARK    2  A    between atoms: C_12  and  C_13
REMARK    3  A    between atoms: C_14  and  O_15
REMARK    4  A    between atoms: C_16  and  C_17
REMARK    5  A    between atoms: C_16  and  C_18
REMARK                            x       y       z     vdW  Elec       q    Type
REMARK                         _______ _______ _______ _____ _____    ______ ____
ROOT
ATOM      1  C   UNL     1       2.295   2.525  21.632  0.00  0.00    +0.000 C 
ATOM      2  C   UNL     1       2.652   3.842  20.999  0.00  0.00    +0.000 A 
ATOM      3  C   UNL     1       1.786   4.928  21.157  0.00  0.00    +0.000 A 
ATOM      4  C   UNL     1       1.918   6.069  20.352  0.00  0.00    +0.000 A 
ATOM      5  C   UNL     1       2.954   6.131  19.415  0.00  0.00    +0.000 A 
ATOM      6  C   UNL     1       3.959   5.150  19.377  0.00  0.00    +0.000 A 
ATOM      7  C   UNL     1       3.749   3.972  20.115  0.00  0.00    +0.000 A 
ATOM      8  C   UNL     1       4.406   2.755  19.594  0.00  0.00    +0.000 C 
ATOM      9  O   UNL     1       4.761   1.797  20.243  0.00  0.00    +0.000 OA
ATOM     10  O   UNL     1       4.264   2.773  18.238  0.00  0.00    +0.000 OA
ATOM     11  C   UNL     1       5.058   3.793  17.608  0.00  0.00    +0.000 C 
ATOM     12  C   UNL     1       4.887   5.238  18.178  0.00  0.00    +0.000 C 
ATOM     13  C   UNL     1       6.363   5.715  18.366  0.00  0.00    +0.000 C 
ATOM     14  C   UNL     1       4.129   6.369  17.341  0.00  0.00    +0.000 C 
ATOM     15  C   UNL     1       2.813   6.849  18.076  0.00  0.00    +0.000 C 
ATOM     16  C   UNL     1       2.602   8.385  18.150  0.00  0.00    +0.000 C 
ATOM     17  C   UNL     1       1.531   6.294  17.400  0.00  0.00    +0.000 C 
ENDROOT
BRANCH  14  18
ATOM     18  O   UNL     1       4.986   7.522  17.208  0.00  0.00    +0.000 OA
ATOM     19  H   UNL     1       4.426   8.319  17.108  0.00  0.00    +0.000 HD
ENDBRANCH  14  18
TORSDOF 1
ENDMDL
MODEL 3
REMARK VINA RESULT:      -6.1      1.853      5.069
REMARK  Name = 
REMARK  5 active torsions:
REMARK  status: ('A' for Active; 'I' for Inactive)
REMARK    1  A    between atoms: C_1  and  C_2
REMARK    2  A    between atoms: C_12  and  C_13
REMARK    3  A    between atoms: C_14  and  O_15
REMARK    4  A    between atoms: C_16  and  C_17
REMARK    5  A    between atoms: C_16  and  C_18
REMARK                            x       y       z     vdW  Elec       q    Type
REMARK                         _______ _______ _______ _____ _____    ______ ____
ROOT
ATOM      1  C   UNL     1       5.625   7.273  16.998  0.00  0.00    +0.000 C 
ATOM      2  C   UNL     1       4.463   6.413  17.416  0.00  0.00    +0.000 A 
ATOM      3  C   UNL     1       3.232   7.019  17.681  0.00  0.00    +0.000 A 
ATOM      4  C   UNL     1       2.221   6.315  18.353  0.00  0.00    +0.000 A 
ATOM      5  C   UNL     1       2.440   4.984  18.721  0.00  0.00    +0.000 A 
ATOM      6  C   UNL     1       3.581   4.289  18.288  0.00  0.00    +0.000 A 
ATOM      7  C   UNL     1       4.622   5.038  17.710  0.00  0.00    +0.000 A 
ATOM      8  C   UNL     1       5.982   4.483  17.862  0.00  0.00    +0.000 C 
ATOM      9  O   UNL     1       6.915   4.654  17.111  0.00  0.00    +0.000 OA
ATOM     10  O   UNL     1       6.079   4.005  19.136  0.00  0.00    +0.000 OA
ATOM     11  C   UNL     1       5.285   2.825  19.351  0.00  0.00    +0.000 C 
ATOM     12  C   UNL     1       3.782   2.932  18.938  0.00  0.00    +0.000 C 
ATOM     13  C   UNL     1       3.557   1.627  18.107  0.00  0.00    +0.000 C 
ATOM     14  C   UNL     1       2.628   2.995  20.040  0.00  0.00    +0.000 C 
ATOM     15  C   UNL     1       1.850   4.370  19.987  0.00  0.00    +0.000 C 
ATOM     16  C   UNL     1       0.302   4.275  20.035  0.00  0.00    +0.000 C 
ATOM     17  C   UNL     1       2.237   5.307  21.163  0.00  0.00    +0.000 C 
ENDROOT
BRANCH  14  18
ATOM     18  O   UNL     1       1.664   1.952  19.785  0.00  0.00    +0.000 OA
ATOM     19  H   UNL     1       1.216   2.139  18.936  0.00  0.00    +0.000 HD
ENDBRANCH  14  18
TORSDOF 1
ENDMDL
MODEL 4
REMARK VINA RESULT:      -5.7      9.325     12.137
REMARK  Name = 
REMARK  5 active torsions:
REMARK  status: ('A' for Active; 'I' for Inactive)
REMARK    1  A    between atoms: C_1  and  C_2
REMARK    2  A    between atoms: C_12  and  C_13
REMARK    3  A    between atoms: C_14  and  O_15
REMARK    4  A    between atoms: C_16  and  C_17
REMARK    5  A    between atoms: C_16  and  C_18
REMARK                            x       y       z     vdW  Elec       q    Type
REMARK                         _______ _______ _______ _____ _____    ______ ____
ROOT
ATOM      1  C   UNL     1      10.997  16.019  17.040  0.00  0.00    +0.000 C 
ATOM      2  C   UNL     1      10.122  15.248  17.992  0.00  0.00    +0.000 A 
ATOM      3  C   UNL     1       9.101  15.920  18.670  0.00  0.00    +0.000 A 
ATOM      4  C   UNL     1       8.465  15.327  19.772  0.00  0.00    +0.000 A 
ATOM      5  C   UNL     1       8.834  14.036  20.162  0.00  0.00    +0.000 A 
ATOM      6  C   UNL     1       9.705  13.261  19.379  0.00  0.00    +0.000 A 
ATOM      7  C   UNL     1      10.405  13.908  18.346  0.00  0.00    +0.000 A 
ATOM      8  C   UNL     1      11.715  13.326  17.987  0.00  0.00    +0.000 C 
ATOM      9  O   UNL     1      12.254  13.384  16.905  0.00  0.00    +0.000 OA
ATOM     10  O   UNL     1      12.333  12.984  19.153  0.00  0.00    +0.000 OA
ATOM     11  C   UNL     1      11.714  11.861  19.804  0.00  0.00    +0.000 C 
ATOM     12  C   UNL     1      10.173  11.974  20.036  0.00  0.00    +0.000 C 
ATOM     13  C   UNL     1       9.643  10.596  19.522  0.00  0.00    +0.000 C 
ATOM     14  C   UNL     1       9.575  12.193  21.501  0.00  0.00    +0.000 C 
ATOM     15  C   UNL     1       8.825  13.581  21.619  0.00  0.00    +0.000 C 
ATOM     16  C   UNL     1       7.436  13.544  22.308  0.00  0.00    +0.000 C 
ATOM     17  C   UNL     1       9.650  14.624  22.420  0.00  0.00    +0.000 C 
ENDROOT
BRANCH  14  18
ATOM     18  O   UNL     1       8.605  11.162  21.782  0.00  0.00    +0.000 OA
ATOM     19  H   UNL     1       8.804  10.383  21.224  0.00  0.00    +0.000 HD
ENDBRANCH  14  18
TORSDOF 1
ENDMDL
MODEL 5
REMARK VINA RESULT:      -5.7      9.943     12.233
REMARK  Name = 
REMARK  5 active torsions:
REMARK  status: ('A' for Active; 'I' for Inactive)
REMARK    1  A    between atoms: C_1  and  C_2
REMARK    2  A    between atoms: C_12  and  C_13
REMARK    3  A    between atoms: C_14  and  O_15
REMARK    4  A    between atoms: C_16  and  C_17
REMARK    5  A    between atoms: C_16  and  C_18
REMARK                            x       y       z     vdW  Elec       q    Type
REMARK                         _______ _______ _______ _____ _____    ______ ____
ROOT
ATOM      1  C   UNL     1       9.040  12.584  22.455  0.00  0.00    +0.000 C 
ATOM      2  C   UNL     1       9.843  13.477  21.548  0.00  0.00    +0.000 A 
ATOM      3  C   UNL     1      10.100  14.792  21.944  0.00  0.00    +0.000 A 
ATOM      4  C   UNL     1      10.574  15.736  21.021  0.00  0.00    +0.000 A 
ATOM      5  C   UNL     1      10.827  15.339  19.704  0.00  0.00    +0.000 A 
ATOM      6  C   UNL     1      10.776  13.986  19.330  0.00  0.00    +0.000 A 
ATOM      7  C   UNL     1      10.201  13.079  20.238  0.00  0.00    +0.000 A 
ATOM      8  C   UNL     1       9.568  11.882  19.646  0.00  0.00    +0.000 C 
ATOM      9  O   UNL     1       9.442  10.802  20.175  0.00  0.00    +0.000 OA
ATOM     10  O   UNL     1       8.891  12.296  18.537  0.00  0.00    +0.000 OA
ATOM     11  C   UNL     1       9.765  12.691  17.465  0.00  0.00    +0.000 C 
ATOM     12  C   UNL     1      10.865  13.738  17.835  0.00  0.00    +0.000 C 
ATOM     13  C   UNL     1      12.160  13.111  17.223  0.00  0.00    +0.000 C 
ATOM     14  C   UNL     1      10.777  15.244  17.311  0.00  0.00    +0.000 C 
ATOM     15  C   UNL     1      10.620  16.265  18.509  0.00  0.00    +0.000 C 
ATOM     16  C   UNL     1      11.534  17.517  18.455  0.00  0.00    +0.000 C 
ATOM     17  C   UNL     1       9.174  16.821  18.618  0.00  0.00    +0.000 C 
ENDROOT
BRANCH  14  18
ATOM     18  O   UNL     1      11.997  15.584  16.621  0.00  0.00    +0.000 OA
ATOM     19  H   UNL     1      12.590  14.805  16.629  0.00  0.00    +0.000 HD
ENDBRANCH  14  18
TORSDOF 1
ENDMDL
MODEL 6
REMARK VINA RESULT:      -5.5      1.941      4.292
REMARK  Name = 
REMARK  5 active torsions:
REMARK  status: ('A' for Active; 'I' for Inactive)
REMARK    1  A    between atoms: C_1  and  C_2
REMARK    2  A    between atoms: C_12  and  C_13
REMARK    3  A    between atoms: C_14  and  O_15
REMARK    4  A    between atoms: C_16  and  C_17
REMARK    5  A    between atoms: C_16  and  C_18
REMARK                            x       y       z     vdW  Elec       q    Type
REMARK                         _______ _______ _______ _____ _____    ______ ____
ROOT
ATOM      1  C   UNL     1       4.879   6.815  16.406  0.00  0.00    +0.000 C 
ATOM      2  C   UNL     1       4.897   5.860  17.568  0.00  0.00    +0.000 A 
ATOM      3  C   UNL     1       5.956   4.956  17.687  0.00  0.00    +0.000 A 
ATOM      4  C   UNL     1       5.867   3.864  18.564  0.00  0.00    +0.000 A 
ATOM      5  C   UNL     1       4.724   3.711  19.354  0.00  0.00    +0.000 A 
ATOM      6  C   UNL     1       3.739   4.711  19.408  0.00  0.00    +0.000 A 
ATOM      7  C   UNL     1       3.796   5.738  18.449  0.00  0.00    +0.000 A 
ATOM      8  C   UNL     1       2.506   6.360  18.087  0.00  0.00    +0.000 C 
ATOM      9  O   UNL     1       2.342   7.490  17.688  0.00  0.00    +0.000 OA
ATOM     10  O   UNL     1       1.591   5.354  17.990  0.00  0.00    +0.000 OA
ATOM     11  C   UNL     1       1.258   4.778  19.265  0.00  0.00    +0.000 C 
ATOM     12  C   UNL     1       2.468   4.311  20.137  0.00  0.00    +0.000 C 
ATOM     13  C   UNL     1       2.144   4.925  21.538  0.00  0.00    +0.000 C 
ATOM     14  C   UNL     1       2.770   2.759  20.361  0.00  0.00    +0.000 C 
ATOM     15  C   UNL     1       4.165   2.345  19.740  0.00  0.00    +0.000 C 
ATOM     16  C   UNL     1       5.075   1.472  20.643  0.00  0.00    +0.000 C 
ATOM     17  C   UNL     1       4.002   1.538  18.424  0.00  0.00    +0.000 C 
ENDROOT
BRANCH  14  18
ATOM     18  O   UNL     1       2.837   2.482  21.776  0.00  0.00    +0.000 OA
ATOM     19  H   UNL     1       3.777   2.403  22.036  0.00  0.00    +0.000 HD
ENDBRANCH  14  18
TORSDOF 1
ENDMDL
MODEL 7
REMARK VINA RESULT:      -5.5      2.019      4.716
REMARK  Name = 
REMARK  5 active torsions:
REMARK  status: ('A' for Active; 'I' for Inactive)
REMARK    1  A    between atoms: C_1  and  C_2
REMARK    2  A    between atoms: C_12  and  C_13
REMARK    3  A    between atoms: C_14  and  O_15
REMARK    4  A    between atoms: C_16  and  C_17
REMARK    5  A    between atoms: C_16  and  C_18
REMARK                            x       y       z     vdW  Elec       q    Type
REMARK                         _______ _______ _______ _____ _____    ______ ____
ROOT
ATOM      1  C   UNL     1       3.207   8.589  17.779  0.00  0.00    +0.000 C 
ATOM      2  C   UNL     1       2.970   7.104  17.712  0.00  0.00    +0.000 A 
ATOM      3  C   UNL     1       1.736   6.594  18.124  0.00  0.00    +0.000 A 
ATOM      4  C   UNL     1       1.575   5.221  18.363  0.00  0.00    +0.000 A 
ATOM      5  C   UNL     1       2.651   4.356  18.144  0.00  0.00    +0.000 A 
ATOM      6  C   UNL     1       3.834   4.808  17.536  0.00  0.00    +0.000 A 
ATOM      7  C   UNL     1       4.012   6.197  17.404  0.00  0.00    +0.000 A 
ATOM      8  C   UNL     1       5.410   6.674  17.399  0.00  0.00    +0.000 C 
ATOM      9  O   UNL     1       5.824   7.674  16.858  0.00  0.00    +0.000 OA
ATOM     10  O   UNL     1       6.078   5.964  18.352  0.00  0.00    +0.000 OA
ATOM     11  C   UNL     1       6.268   4.586  17.990  0.00  0.00    +0.000 C 
ATOM     12  C   UNL     1       4.980   3.812  17.560  0.00  0.00    +0.000 C 
ATOM     13  C   UNL     1       5.427   3.103  16.240  0.00  0.00    +0.000 C 
ATOM     14  C   UNL     1       4.338   2.694  18.502  0.00  0.00    +0.000 C 
ATOM     15  C   UNL     1       2.889   3.106  18.985  0.00  0.00    +0.000 C 
ATOM     16  C   UNL     1       1.803   2.003  18.882  0.00  0.00    +0.000 C 
ATOM     17  C   UNL     1       2.874   3.555  20.471  0.00  0.00    +0.000 C 
ENDROOT
BRANCH  14  18
ATOM     18  O   UNL     1       4.205   1.462  17.763  0.00  0.00    +0.000 OA
ATOM     19  H   UNL     1       3.565   0.885  18.227  0.00  0.00    +0.000 HD
ENDBRANCH  14  18
TORSDOF 1
ENDMDL
MODEL 8
REMARK VINA RESULT:      -5.5      9.841     11.101
REMARK  Name = 
REMARK  5 active torsions:
REMARK  status: ('A' for Active; 'I' for Inactive)
REMARK    1  A    between atoms: C_1  and  C_2
REMARK    2  A    between atoms: C_12  and  C_13
REMARK    3  A    between atoms: C_14  and  O_15
REMARK    4  A    between atoms: C_16  and  C_17
REMARK    5  A    between atoms: C_16  and  C_18
REMARK                            x       y       z     vdW  Elec       q    Type
REMARK                         _______ _______ _______ _____ _____    ______ ____
ROOT
ATOM      1  C   UNL     1       8.454  11.637  22.828  0.00  0.00    +0.000 C 
ATOM      2  C   UNL     1       8.802  12.025  21.417  0.00  0.00    +0.000 A 
ATOM      3  C   UNL     1       9.536  11.134  20.629  0.00  0.00    +0.000 A 
ATOM      4  C   UNL     1      10.134  11.563  19.435  0.00  0.00    +0.000 A 
ATOM      5  C   UNL     1       9.954  12.885  19.014  0.00  0.00    +0.000 A 
ATOM      6  C   UNL     1       9.056  13.741  19.673  0.00  0.00    +0.000 A 
ATOM      7  C   UNL     1       8.553  13.326  20.919  0.00  0.00    +0.000 A 
ATOM      8  C   UNL     1       8.185  14.404  21.861  0.00  0.00    +0.000 C 
ATOM      9  O   UNL     1       7.348  14.340  22.732  0.00  0.00    +0.000 OA
ATOM     10  O   UNL     1       9.155  15.359  21.773  0.00  0.00    +0.000 OA
ATOM     11  C   UNL     1       9.121  16.075  20.526  0.00  0.00    +0.000 C 
ATOM     12  C   UNL     1       9.129  15.193  19.235  0.00  0.00    +0.000 C 
ATOM     13  C   UNL     1       7.971  15.812  18.386  0.00  0.00    +0.000 C 
ATOM     14  C   UNL     1      10.418  15.122  18.295  0.00  0.00    +0.000 C 
ATOM     15  C   UNL     1      11.027  13.662  18.257  0.00  0.00    +0.000 C 
ATOM     16  C   UNL     1      11.393  13.118  16.851  0.00  0.00    +0.000 C 
ATOM     17  C   UNL     1      12.333  13.553  19.090  0.00  0.00    +0.000 C 
ENDROOT
BRANCH  14  18
ATOM     18  O   UNL     1      10.044  15.460  16.943  0.00  0.00    +0.000 OA
ATOM     19  H   UNL     1       9.162  15.079  16.756  0.00  0.00    +0.000 HD
ENDBRANCH  14  18
TORSDOF 1
ENDMDL
MODEL 9
REMARK VINA RESULT:      -5.4      9.984     11.251
REMARK  Name = 
REMARK  5 active torsions:
REMARK  status: ('A' for Active; 'I' for Inactive)
REMARK    1  A    between atoms: C_1  and  C_2
REMARK    2  A    between atoms: C_12  and  C_13
REMARK    3  A    between atoms: C_14  and  O_15
REMARK    4  A    between atoms: C_16  and  C_17
REMARK    5  A    between atoms: C_16  and  C_18
REMARK                            x       y       z     vdW  Elec       q    Type
REMARK                         _______ _______ _______ _____ _____    ______ ____
ROOT
ATOM      1  C   UNL     1       8.227  13.058  23.926  0.00  0.00    +0.000 C 
ATOM      2  C   UNL     1       8.497  12.827  22.464  0.00  0.00    +0.000 A 
ATOM      3  C   UNL     1       8.747  11.526  22.017  0.00  0.00    +0.000 A 
ATOM      4  C   UNL     1       9.291  11.301  20.744  0.00  0.00    +0.000 A 
ATOM      5  C   UNL     1       9.545  12.391  19.904  0.00  0.00    +0.000 A 
ATOM      6  C   UNL     1       9.114  13.684  20.243  0.00  0.00    +0.000 A 
ATOM      7  C   UNL     1       8.669  13.901  21.559  0.00  0.00    +0.000 A 
ATOM      8  C   UNL     1       8.846  15.270  22.086  0.00  0.00    +0.000 C 
ATOM      9  O   UNL     1       8.169  15.806  22.933  0.00  0.00    +0.000 OA
ATOM     10  O   UNL     1      10.073  15.701  21.675  0.00  0.00    +0.000 OA
ATOM     11  C   UNL     1      10.131  15.952  20.260  0.00  0.00    +0.000 C 
ATOM     12  C   UNL     1       9.645  14.785  19.341  0.00  0.00    +0.000 C 
ATOM     13  C   UNL     1       8.685  15.507  18.342  0.00  0.00    +0.000 C 
ATOM     14  C   UNL     1      10.681  13.937  18.471  0.00  0.00    +0.000 C 
ATOM     15  C   UNL     1      10.712  12.421  18.923  0.00  0.00    +0.000 C 
ATOM     16  C   UNL     1      10.663  11.373  17.779  0.00  0.00    +0.000 C 
ATOM     17  C   UNL     1      11.991  12.079  19.734  0.00  0.00    +0.000 C 
ENDROOT
BRANCH  14  18
ATOM     18  O   UNL     1      10.276  13.959  17.087  0.00  0.00    +0.000 OA
ATOM     19  H   UNL     1      11.042  13.711  16.531  0.00  0.00    +0.000 HD
ENDBRANCH  14  18
TORSDOF 1
ENDMDL
