MODEL 1
REMARK VINA RESULT:      -8.4      0.000      0.000
REMARK  Name = 
REMARK  10 active torsions:
REMARK  status: ('A' for Active; 'I' for Inactive)
REMARK    1  A    between atoms: C_1  and  O_2
REMARK    2  A    between atoms: O_2  and  C_3
REMARK    3  A    between atoms: C_6  and  O_7
REMARK    4  A    between atoms: O_7  and  C_8
REMARK    5  A    between atoms: C_9  and  C_10
REMARK    6  A    between atoms: C_10  and  C_11
REMARK    7  A    between atoms: C_11  and  N_12
REMARK    8  A    between atoms: C_18  and  C_19
REMARK    9  A    between atoms: C_24  and  O_25
REMARK   10  A    between atoms: O_25  and  C_26
REMARK                            x       y       z     vdW  Elec       q    Type
REMARK                         _______ _______ _______ _____ _____    ______ ____
ROOT
ATOM      1  N   UNL     1       1.521   8.850  19.119  0.00  0.00    +0.000 N 
ATOM      2  C   UNL     1       1.802   8.097  20.239  0.00  0.00    +0.000 A 
ATOM      3  N   UNL     1       1.152   8.130  21.353  0.00  0.00    +0.000 NA
ATOM      4  C   UNL     1       0.216   9.155  21.500  0.00  0.00    +0.000 A 
ATOM      5  C   UNL     1      -0.375   9.317  22.739  0.00  0.00    +0.000 A 
ATOM      6  C   UNL     1      -0.986  10.526  23.047  0.00  0.00    +0.000 A 
ATOM      7  C   UNL     1      -0.935  11.639  22.174  0.00  0.00    +0.000 A 
ATOM      8  C   UNL     1      -0.497  11.389  20.857  0.00  0.00    +0.000 A 
ATOM      9  C   UNL     1       0.015  10.121  20.519  0.00  0.00    +0.000 A 
ATOM     10  C   UNL     1       0.439   9.720  19.153  0.00  0.00    +0.000 A 
ATOM     11  O   UNL     1      -0.230  10.077  18.186  0.00  0.00    +0.000 OA
ENDROOT
BRANCH   7  12
ATOM     12  C   UNL     1      -1.229  12.977  22.776  0.00  0.00    +0.000 A 
ATOM     13  C   UNL     1      -2.475  13.087  23.464  0.00  0.00    +0.000 A 
ATOM     14  C   UNL     1      -2.974  14.288  23.970  0.00  0.00    +0.000 A 
ATOM     15  C   UNL     1      -2.229  15.431  23.844  0.00  0.00    +0.000 A 
ATOM     16  C   UNL     1      -0.960  15.354  23.269  0.00  0.00    +0.000 A 
ATOM     17  C   UNL     1      -0.450  14.147  22.745  0.00  0.00    +0.000 A 
BRANCH  17  18
ATOM     18  O   UNL     1       0.862  14.232  22.361  0.00  0.00    +0.000 OA
ATOM     19  C   UNL     1       1.102  14.847  21.104  0.00  0.00    +0.000 C 
ENDBRANCH  17  18
ENDBRANCH   7  12
BRANCH   1  20
ATOM     20  C   UNL     1       2.115   8.328  17.893  0.00  0.00    +0.000 C 
BRANCH  20  21
ATOM     21  C   UNL     1       3.416   7.529  17.909  0.00  0.00    +0.000 C 
BRANCH  21  26
ATOM     22  C   UNL     1       2.107   3.978  17.715  0.00  0.00    +0.000 A 
ATOM     23  C   UNL     1       3.190   3.276  17.204  0.00  0.00    +0.000 A 
ATOM     24  C   UNL     1       4.397   3.935  16.948  0.00  0.00    +0.000 A 
ATOM     25  C   UNL     1       4.547   5.306  17.195  0.00  0.00    +0.000 A 
ATOM     26  C   UNL     1       3.433   6.044  17.625  0.00  0.00    +0.000 A 
ATOM     27  C   UNL     1       2.226   5.358  17.910  0.00  0.00    +0.000 A 
BRANCH  22  29
ATOM     28  C   UNL     1       0.952   2.569  19.229  0.00  0.00    +0.000 C 
ATOM     29  O   UNL     1       1.005   3.224  17.971  0.00  0.00    +0.000 OA
ENDBRANCH  22  29
BRANCH  25  30
ATOM     30  O   UNL     1       5.731   5.975  17.024  0.00  0.00    +0.000 OA
ATOM     31  C   UNL     1       6.907   5.165  17.000  0.00  0.00    +0.000 C 
ENDBRANCH  25  30
ENDBRANCH  21  26
ENDBRANCH  20  21
ENDBRANCH   1  20
TORSDOF 7
ENDMDL
MODEL 2
REMARK VINA RESULT:      -8.3      1.101      1.745
REMARK  Name = 
REMARK  10 active torsions:
REMARK  status: ('A' for Active; 'I' for Inactive)
REMARK    1  A    between atoms: C_1  and  O_2
REMARK    2  A    between atoms: O_2  and  C_3
REMARK    3  A    between atoms: C_6  and  O_7
REMARK    4  A    between atoms: O_7  and  C_8
REMARK    5  A    between atoms: C_9  and  C_10
REMARK    6  A    between atoms: C_10  and  C_11
REMARK    7  A    between atoms: C_11  and  N_12
REMARK    8  A    between atoms: C_18  and  C_19
REMARK    9  A    between atoms: C_24  and  O_25
REMARK   10  A    between atoms: O_25  and  C_26
REMARK                            x       y       z     vdW  Elec       q    Type
REMARK                         _______ _______ _______ _____ _____    ______ ____
ROOT
ATOM      1  N   UNL     1       1.415   8.971  19.151  0.00  0.00    +0.000 N 
ATOM      2  C   UNL     1       1.818   8.267  20.266  0.00  0.00    +0.000 A 
ATOM      3  N   UNL     1       1.212   8.247  21.405  0.00  0.00    +0.000 NA
ATOM      4  C   UNL     1       0.179   9.170  21.580  0.00  0.00    +0.000 A 
ATOM      5  C   UNL     1      -0.376   9.286  22.840  0.00  0.00    +0.000 A 
ATOM      6  C   UNL     1      -1.098  10.428  23.162  0.00  0.00    +0.000 A 
ATOM      7  C   UNL     1      -1.199  11.528  22.277  0.00  0.00    +0.000 A 
ATOM      8  C   UNL     1      -0.789  11.308  20.945  0.00  0.00    +0.000 A 
ATOM      9  C   UNL     1      -0.160  10.096  20.599  0.00  0.00    +0.000 A 
ATOM     10  C   UNL     1       0.250   9.724  19.221  0.00  0.00    +0.000 A 
ATOM     11  O   UNL     1      -0.490   9.996  18.279  0.00  0.00    +0.000 OA
ENDROOT
BRANCH   7  12
ATOM     12  C   UNL     1      -1.608  12.836  22.878  0.00  0.00    +0.000 A 
ATOM     13  C   UNL     1      -0.621  13.868  22.849  0.00  0.00    +0.000 A 
ATOM     14  C   UNL     1      -0.777  15.102  23.478  0.00  0.00    +0.000 A 
ATOM     15  C   UNL     1      -1.946  15.378  24.136  0.00  0.00    +0.000 A 
ATOM     16  C   UNL     1      -2.979  14.441  24.107  0.00  0.00    +0.000 A 
ATOM     17  C   UNL     1      -2.829  13.185  23.482  0.00  0.00    +0.000 A 
BRANCH  17  18
ATOM     18  O   UNL     1      -3.992  12.464  23.424  0.00  0.00    +0.000 OA
ATOM     19  C   UNL     1      -4.854  12.761  22.336  0.00  0.00    +0.000 C 
ENDBRANCH  17  18
ENDBRANCH   7  12
BRANCH   1  20
ATOM     20  C   UNL     1       2.012   8.498  17.907  0.00  0.00    +0.000 C 
BRANCH  20  21
ATOM     21  C   UNL     1       3.351   7.764  17.888  0.00  0.00    +0.000 C 
BRANCH  21  26
ATOM     22  C   UNL     1       2.176   4.166  17.692  0.00  0.00    +0.000 A 
ATOM     23  C   UNL     1       3.303   3.497  17.234  0.00  0.00    +0.000 A 
ATOM     24  C   UNL     1       4.495   4.196  17.016  0.00  0.00    +0.000 A 
ATOM     25  C   UNL     1       4.587   5.574  17.251  0.00  0.00    +0.000 A 
ATOM     26  C   UNL     1       3.431   6.277  17.626  0.00  0.00    +0.000 A 
ATOM     27  C   UNL     1       2.239   5.552  17.872  0.00  0.00    +0.000 A 
BRANCH  22  29
ATOM     28  C   UNL     1       1.261   2.292  18.814  0.00  0.00    +0.000 C 
ATOM     29  O   UNL     1       1.092   3.376  17.915  0.00  0.00    +0.000 OA
ENDBRANCH  22  29
BRANCH  25  30
ATOM     30  O   UNL     1       5.753   6.283  17.118  0.00  0.00    +0.000 OA
ATOM     31  C   UNL     1       6.821   5.606  16.455  0.00  0.00    +0.000 C 
ENDBRANCH  25  30
ENDBRANCH  21  26
ENDBRANCH  20  21
ENDBRANCH   1  20
TORSDOF 7
ENDMDL
MODEL 3
REMARK VINA RESULT:      -8.0      1.003      2.696
REMARK  Name = 
REMARK  10 active torsions:
REMARK  status: ('A' for Active; 'I' for Inactive)
REMARK    1  A    between atoms: C_1  and  O_2
REMARK    2  A    between atoms: O_2  and  C_3
REMARK    3  A    between atoms: C_6  and  O_7
REMARK    4  A    between atoms: O_7  and  C_8
REMARK    5  A    between atoms: C_9  and  C_10
REMARK    6  A    between atoms: C_10  and  C_11
REMARK    7  A    between atoms: C_11  and  N_12
REMARK    8  A    between atoms: C_18  and  C_19
REMARK    9  A    between atoms: C_24  and  O_25
REMARK   10  A    between atoms: O_25  and  C_26
REMARK                            x       y       z     vdW  Elec       q    Type
REMARK                         _______ _______ _______ _____ _____    ______ ____
ROOT
ATOM      1  N   UNL     1       1.589   8.773  19.223  0.00  0.00    +0.000 N 
ATOM      2  C   UNL     1       1.833   8.030  20.359  0.00  0.00    +0.000 A 
ATOM      3  N   UNL     1       1.155   8.085  21.455  0.00  0.00    +0.000 NA
ATOM      4  C   UNL     1       0.227   9.122  21.566  0.00  0.00    +0.000 A 
ATOM      5  C   UNL     1      -0.393   9.306  22.787  0.00  0.00    +0.000 A 
ATOM      6  C   UNL     1      -0.997  10.525  23.066  0.00  0.00    +0.000 A 
ATOM      7  C   UNL     1      -0.911  11.627  22.181  0.00  0.00    +0.000 A 
ATOM      8  C   UNL     1      -0.442  11.356  20.878  0.00  0.00    +0.000 A 
ATOM      9  C   UNL     1       0.063  10.078  20.568  0.00  0.00    +0.000 A 
ATOM     10  C   UNL     1       0.517   9.656  19.220  0.00  0.00    +0.000 A 
ATOM     11  O   UNL     1      -0.122  10.009  18.231  0.00  0.00    +0.000 OA
ENDROOT
BRANCH   7  12
ATOM     12  C   UNL     1      -1.203  12.976  22.759  0.00  0.00    +0.000 A 
ATOM     13  C   UNL     1      -2.450  13.099  23.445  0.00  0.00    +0.000 A 
ATOM     14  C   UNL     1      -2.948  14.308  23.929  0.00  0.00    +0.000 A 
ATOM     15  C   UNL     1      -2.202  15.449  23.783  0.00  0.00    +0.000 A 
ATOM     16  C   UNL     1      -0.933  15.361  23.210  0.00  0.00    +0.000 A 
ATOM     17  C   UNL     1      -0.423  14.144  22.708  0.00  0.00    +0.000 A 
BRANCH  17  18
ATOM     18  O   UNL     1       0.889  14.222  22.323  0.00  0.00    +0.000 OA
ATOM     19  C   UNL     1       1.124  14.736  21.020  0.00  0.00    +0.000 C 
ENDBRANCH  17  18
ENDBRANCH   7  12
BRANCH   1  20
ATOM     20  C   UNL     1       2.208   8.229  18.019  0.00  0.00    +0.000 C 
BRANCH  20  21
ATOM     21  C   UNL     1       2.412   6.728  17.830  0.00  0.00    +0.000 C 
BRANCH  21  26
ATOM     22  C   UNL     1       6.141   6.516  17.187  0.00  0.00    +0.000 A 
ATOM     23  C   UNL     1       6.458   5.235  17.617  0.00  0.00    +0.000 A 
ATOM     24  C   UNL     1       5.452   4.384  18.090  0.00  0.00    +0.000 A 
ATOM     25  C   UNL     1       4.114   4.794  18.144  0.00  0.00    +0.000 A 
ATOM     26  C   UNL     1       3.795   6.118  17.799  0.00  0.00    +0.000 A 
ATOM     27  C   UNL     1       4.818   6.958  17.293  0.00  0.00    +0.000 A 
BRANCH  22  29
ATOM     28  C   UNL     1       7.831   8.123  17.602  0.00  0.00    +0.000 C 
ATOM     29  O   UNL     1       7.190   7.232  16.702  0.00  0.00    +0.000 OA
ENDBRANCH  22  29
BRANCH  25  30
ATOM     30  O   UNL     1       3.090   3.971  18.534  0.00  0.00    +0.000 OA
ATOM     31  C   UNL     1       3.018   2.709  17.870  0.00  0.00    +0.000 C 
ENDBRANCH  25  30
ENDBRANCH  21  26
ENDBRANCH  20  21
ENDBRANCH   1  20
TORSDOF 7
ENDMDL
MODEL 4
REMARK VINA RESULT:      -8.0      1.679      3.085
REMARK  Name = 
REMARK  10 active torsions:
REMARK  status: ('A' for Active; 'I' for Inactive)
REMARK    1  A    between atoms: C_1  and  O_2
REMARK    2  A    between atoms: O_2  and  C_3
REMARK    3  A    between atoms: C_6  and  O_7
REMARK    4  A    between atoms: O_7  and  C_8
REMARK    5  A    between atoms: C_9  and  C_10
REMARK    6  A    between atoms: C_10  and  C_11
REMARK    7  A    between atoms: C_11  and  N_12
REMARK    8  A    between atoms: C_18  and  C_19
REMARK    9  A    between atoms: C_24  and  O_25
REMARK   10  A    between atoms: O_25  and  C_26
REMARK                            x       y       z     vdW  Elec       q    Type
REMARK                         _______ _______ _______ _____ _____    ______ ____
ROOT
ATOM      1  N   UNL     1       1.535   8.927  19.280  0.00  0.00    +0.000 N 
ATOM      2  C   UNL     1       1.844   8.221  20.422  0.00  0.00    +0.000 A 
ATOM      3  N   UNL     1       1.165   8.226  21.519  0.00  0.00    +0.000 NA
ATOM      4  C   UNL     1       0.150   9.178  21.621  0.00  0.00    +0.000 A 
ATOM      5  C   UNL     1      -0.483   9.319  22.842  0.00  0.00    +0.000 A 
ATOM      6  C   UNL     1      -1.192  10.483  23.110  0.00  0.00    +0.000 A 
ATOM      7  C   UNL     1      -1.204  11.579  22.214  0.00  0.00    +0.000 A 
ATOM      8  C   UNL     1      -0.714  11.338  20.913  0.00  0.00    +0.000 A 
ATOM      9  C   UNL     1      -0.099  10.106  20.615  0.00  0.00    +0.000 A 
ATOM     10  C   UNL     1       0.390   9.712  19.269  0.00  0.00    +0.000 A 
ATOM     11  O   UNL     1      -0.279   9.998  18.279  0.00  0.00    +0.000 OA
ENDROOT
BRANCH   7  12
ATOM     12  C   UNL     1      -1.614  12.902  22.780  0.00  0.00    +0.000 A 
ATOM     13  C   UNL     1      -0.610  13.918  22.772  0.00  0.00    +0.000 A 
ATOM     14  C   UNL     1      -0.769  15.165  23.376  0.00  0.00    +0.000 A 
ATOM     15  C   UNL     1      -1.957  15.469  23.986  0.00  0.00    +0.000 A 
ATOM     16  C   UNL     1      -3.003  14.547  23.933  0.00  0.00    +0.000 A 
ATOM     17  C   UNL     1      -2.850  13.279  23.333  0.00  0.00    +0.000 A 
BRANCH  17  18
ATOM     18  O   UNL     1      -4.022  12.575  23.243  0.00  0.00    +0.000 OA
ATOM     19  C   UNL     1      -4.752  12.736  22.037  0.00  0.00    +0.000 C 
ENDBRANCH  17  18
ENDBRANCH   7  12
BRANCH   1  20
ATOM     20  C   UNL     1       2.198   8.428  18.080  0.00  0.00    +0.000 C 
BRANCH  20  21
ATOM     21  C   UNL     1       2.424   6.936  17.850  0.00  0.00    +0.000 C 
BRANCH  21  26
ATOM     22  C   UNL     1       5.938   5.959  16.816  0.00  0.00    +0.000 A 
ATOM     23  C   UNL     1       6.404   5.264  17.924  0.00  0.00    +0.000 A 
ATOM     24  C   UNL     1       5.568   5.055  19.026  0.00  0.00    +0.000 A 
ATOM     25  C   UNL     1       4.252   5.536  19.046  0.00  0.00    +0.000 A 
ATOM     26  C   UNL     1       3.799   6.319  17.972  0.00  0.00    +0.000 A 
ATOM     27  C   UNL     1       4.646   6.496  16.849  0.00  0.00    +0.000 A 
BRANCH  22  29
ATOM     28  C   UNL     1       7.069   4.876  15.040  0.00  0.00    +0.000 C 
ATOM     29  O   UNL     1       6.820   6.056  15.788  0.00  0.00    +0.000 OA
ENDBRANCH  22  29
BRANCH  25  30
ATOM     30  O   UNL     1       3.379   5.293  20.074  0.00  0.00    +0.000 OA
ATOM     31  C   UNL     1       2.835   3.975  20.132  0.00  0.00    +0.000 C 
ENDBRANCH  25  30
ENDBRANCH  21  26
ENDBRANCH  20  21
ENDBRANCH   1  20
TORSDOF 7
ENDMDL
MODEL 5
REMARK VINA RESULT:      -8.0      1.237      2.557
REMARK  Name = 
REMARK  10 active torsions:
REMARK  status: ('A' for Active; 'I' for Inactive)
REMARK    1  A    between atoms: C_1  and  O_2
REMARK    2  A    between atoms: O_2  and  C_3
REMARK    3  A    between atoms: C_6  and  O_7
REMARK    4  A    between atoms: O_7  and  C_8
REMARK    5  A    between atoms: C_9  and  C_10
REMARK    6  A    between atoms: C_10  and  C_11
REMARK    7  A    between atoms: C_11  and  N_12
REMARK    8  A    between atoms: C_18  and  C_19
REMARK    9  A    between atoms: C_24  and  O_25
REMARK   10  A    between atoms: O_25  and  C_26
REMARK                            x       y       z     vdW  Elec       q    Type
REMARK                         _______ _______ _______ _____ _____    ______ ____
ROOT
ATOM      1  N   UNL     1       1.649   8.739  19.334  0.00  0.00    +0.000 N 
ATOM      2  C   UNL     1       1.802   7.987  20.479  0.00  0.00    +0.000 A 
ATOM      3  N   UNL     1       1.077   8.077  21.543  0.00  0.00    +0.000 NA
ATOM      4  C   UNL     1       0.199   9.160  21.611  0.00  0.00    +0.000 A 
ATOM      5  C   UNL     1      -0.467   9.377  22.803  0.00  0.00    +0.000 A 
ATOM      6  C   UNL     1      -1.021  10.625  23.054  0.00  0.00    +0.000 A 
ATOM      7  C   UNL     1      -0.838  11.720  22.175  0.00  0.00    +0.000 A 
ATOM      8  C   UNL     1      -0.324  11.424  20.895  0.00  0.00    +0.000 A 
ATOM      9  C   UNL     1       0.130  10.121  20.608  0.00  0.00    +0.000 A 
ATOM     10  C   UNL     1       0.624   9.675  19.282  0.00  0.00    +0.000 A 
ATOM     11  O   UNL     1       0.050  10.058  18.265  0.00  0.00    +0.000 OA
ENDROOT
BRANCH   7  12
ATOM     12  C   UNL     1      -1.089  13.082  22.741  0.00  0.00    +0.000 A 
ATOM     13  C   UNL     1      -2.302  13.233  23.480  0.00  0.00    +0.000 A 
ATOM     14  C   UNL     1      -2.763  14.457  23.963  0.00  0.00    +0.000 A 
ATOM     15  C   UNL     1      -2.012  15.586  23.762  0.00  0.00    +0.000 A 
ATOM     16  C   UNL     1      -0.772  15.472  23.133  0.00  0.00    +0.000 A 
ATOM     17  C   UNL     1      -0.300  14.241  22.631  0.00  0.00    +0.000 A 
BRANCH  17  18
ATOM     18  O   UNL     1       0.994  14.295  22.185  0.00  0.00    +0.000 OA
ATOM     19  C   UNL     1       1.569  15.591  22.106  0.00  0.00    +0.000 C 
ENDBRANCH  17  18
ENDBRANCH   7  12
BRANCH   1  20
ATOM     20  C   UNL     1       2.294   8.163  18.159  0.00  0.00    +0.000 C 
BRANCH  20  21
ATOM     21  C   UNL     1       2.422   6.653  17.973  0.00  0.00    +0.000 C 
BRANCH  21  26
ATOM     22  C   UNL     1       5.932   5.671  16.933  0.00  0.00    +0.000 A 
ATOM     23  C   UNL     1       6.321   4.799  17.942  0.00  0.00    +0.000 A 
ATOM     24  C   UNL     1       5.431   4.472  18.970  0.00  0.00    +0.000 A 
ATOM     25  C   UNL     1       4.136   5.007  19.014  0.00  0.00    +0.000 A 
ATOM     26  C   UNL     1       3.763   5.959  18.052  0.00  0.00    +0.000 A 
ATOM     27  C   UNL     1       4.664   6.258  16.999  0.00  0.00    +0.000 A 
BRANCH  22  29
ATOM     28  C   UNL     1       6.951   4.892  14.943  0.00  0.00    +0.000 C 
ATOM     29  O   UNL     1       6.861   5.874  15.963  0.00  0.00    +0.000 OA
ENDBRANCH  22  29
BRANCH  25  30
ATOM     30  O   UNL     1       3.211   4.659  19.963  0.00  0.00    +0.000 OA
ATOM     31  C   UNL     1       3.104   3.264  20.248  0.00  0.00    +0.000 C 
ENDBRANCH  25  30
ENDBRANCH  21  26
ENDBRANCH  20  21
ENDBRANCH   1  20
TORSDOF 7
ENDMDL
MODEL 6
REMARK VINA RESULT:      -7.9      1.378      3.194
REMARK  Name = 
REMARK  10 active torsions:
REMARK  status: ('A' for Active; 'I' for Inactive)
REMARK    1  A    between atoms: C_1  and  O_2
REMARK    2  A    between atoms: O_2  and  C_3
REMARK    3  A    between atoms: C_6  and  O_7
REMARK    4  A    between atoms: O_7  and  C_8
REMARK    5  A    between atoms: C_9  and  C_10
REMARK    6  A    between atoms: C_10  and  C_11
REMARK    7  A    between atoms: C_11  and  N_12
REMARK    8  A    between atoms: C_18  and  C_19
REMARK    9  A    between atoms: C_24  and  O_25
REMARK   10  A    between atoms: O_25  and  C_26
REMARK                            x       y       z     vdW  Elec       q    Type
REMARK                         _______ _______ _______ _____ _____    ______ ____
ROOT
ATOM      1  N   UNL     1       1.615   8.772  19.236  0.00  0.00    +0.000 N 
ATOM      2  C   UNL     1       1.842   8.029  20.375  0.00  0.00    +0.000 A 
ATOM      3  N   UNL     1       1.151   8.085  21.462  0.00  0.00    +0.000 NA
ATOM      4  C   UNL     1       0.225   9.124  21.562  0.00  0.00    +0.000 A 
ATOM      5  C   UNL     1      -0.409   9.310  22.776  0.00  0.00    +0.000 A 
ATOM      6  C   UNL     1      -1.013  10.531  23.047  0.00  0.00    +0.000 A 
ATOM      7  C   UNL     1      -0.913  11.633  22.163  0.00  0.00    +0.000 A 
ATOM      8  C   UNL     1      -0.429  11.361  20.866  0.00  0.00    +0.000 A 
ATOM      9  C   UNL     1       0.076  10.081  20.563  0.00  0.00    +0.000 A 
ATOM     10  C   UNL     1       0.546   9.658  19.219  0.00  0.00    +0.000 A 
ATOM     11  O   UNL     1      -0.080  10.013  18.223  0.00  0.00    +0.000 OA
ENDROOT
BRANCH   7  12
ATOM     12  C   UNL     1      -1.209  12.982  22.738  0.00  0.00    +0.000 A 
ATOM     13  C   UNL     1      -0.273  14.011  22.418  0.00  0.00    +0.000 A 
ATOM     14  C   UNL     1      -0.314  15.291  22.971  0.00  0.00    +0.000 A 
ATOM     15  C   UNL     1      -1.319  15.614  23.844  0.00  0.00    +0.000 A 
ATOM     16  C   UNL     1      -2.315  14.673  24.110  0.00  0.00    +0.000 A 
ATOM     17  C   UNL     1      -2.278  13.373  23.564  0.00  0.00    +0.000 A 
BRANCH  17  18
ATOM     18  O   UNL     1      -3.411  12.645  23.814  0.00  0.00    +0.000 OA
ATOM     19  C   UNL     1      -4.586  13.396  24.081  0.00  0.00    +0.000 C 
ENDBRANCH  17  18
ENDBRANCH   7  12
BRANCH   1  20
ATOM     20  C   UNL     1       2.247   8.226  18.039  0.00  0.00    +0.000 C 
BRANCH  20  21
ATOM     21  C   UNL     1       2.429   6.723  17.842  0.00  0.00    +0.000 C 
BRANCH  21  26
ATOM     22  C   UNL     1       6.159   6.450  17.229  0.00  0.00    +0.000 A 
ATOM     23  C   UNL     1       6.450   5.163  17.662  0.00  0.00    +0.000 A 
ATOM     24  C   UNL     1       5.427   4.330  18.127  0.00  0.00    +0.000 A 
ATOM     25  C   UNL     1       4.095   4.762  18.171  0.00  0.00    +0.000 A 
ATOM     26  C   UNL     1       3.802   6.090  17.822  0.00  0.00    +0.000 A 
ATOM     27  C   UNL     1       4.842   6.914  17.324  0.00  0.00    +0.000 A 
BRANCH  22  29
ATOM     28  C   UNL     1       7.818   8.091  17.629  0.00  0.00    +0.000 C 
ATOM     29  O   UNL     1       7.223   7.148  16.752  0.00  0.00    +0.000 OA
ENDBRANCH  22  29
BRANCH  25  30
ATOM     30  O   UNL     1       3.055   3.956  18.553  0.00  0.00    +0.000 OA
ATOM     31  C   UNL     1       2.607   3.012  17.579  0.00  0.00    +0.000 C 
ENDBRANCH  25  30
ENDBRANCH  21  26
ENDBRANCH  20  21
ENDBRANCH   1  20
TORSDOF 7
ENDMDL
MODEL 7
REMARK VINA RESULT:      -7.9      2.394      4.214
REMARK  Name = 
REMARK  10 active torsions:
REMARK  status: ('A' for Active; 'I' for Inactive)
REMARK    1  A    between atoms: C_1  and  O_2
REMARK    2  A    between atoms: O_2  and  C_3
REMARK    3  A    between atoms: C_6  and  O_7
REMARK    4  A    between atoms: O_7  and  C_8
REMARK    5  A    between atoms: C_9  and  C_10
REMARK    6  A    between atoms: C_10  and  C_11
REMARK    7  A    between atoms: C_11  and  N_12
REMARK    8  A    between atoms: C_18  and  C_19
REMARK    9  A    between atoms: C_24  and  O_25
REMARK   10  A    between atoms: O_25  and  C_26
REMARK                            x       y       z     vdW  Elec       q    Type
REMARK                         _______ _______ _______ _____ _____    ______ ____
ROOT
ATOM      1  N   UNL     1       2.028   8.099  18.998  0.00  0.00    +0.000 N 
ATOM      2  C   UNL     1       2.417   8.873  17.926  0.00  0.00    +0.000 A 
ATOM      3  N   UNL     1       2.178  10.132  17.778  0.00  0.00    +0.000 NA
ATOM      4  C   UNL     1       1.282  10.708  18.680  0.00  0.00    +0.000 A 
ATOM      5  C   UNL     1       0.879  12.009  18.448  0.00  0.00    +0.000 A 
ATOM      6  C   UNL     1      -0.278  12.481  19.054  0.00  0.00    +0.000 A 
ATOM      7  C   UNL     1      -1.120  11.642  19.823  0.00  0.00    +0.000 A 
ATOM      8  C   UNL     1      -0.593  10.387  20.195  0.00  0.00    +0.000 A 
ATOM      9  C   UNL     1       0.642   9.963  19.666  0.00  0.00    +0.000 A 
ATOM     10  C   UNL     1       1.328   8.700  20.036  0.00  0.00    +0.000 A 
ATOM     11  O   UNL     1       1.328   8.336  21.210  0.00  0.00    +0.000 OA
ENDROOT
BRANCH   7  12
ATOM     12  C   UNL     1      -2.519  12.122  20.050  0.00  0.00    +0.000 A 
ATOM     13  C   UNL     1      -2.777  12.699  21.330  0.00  0.00    +0.000 A 
ATOM     14  C   UNL     1      -4.047  13.077  21.764  0.00  0.00    +0.000 A 
ATOM     15  C   UNL     1      -5.117  12.929  20.921  0.00  0.00    +0.000 A 
ATOM     16  C   UNL     1      -4.900  12.463  19.623  0.00  0.00    +0.000 A 
ATOM     17  C   UNL     1      -3.620  12.069  19.177  0.00  0.00    +0.000 A 
BRANCH  17  18
ATOM     18  O   UNL     1      -3.575  11.784  17.838  0.00  0.00    +0.000 OA
ATOM     19  C   UNL     1      -4.804  11.391  17.245  0.00  0.00    +0.000 C 
ENDBRANCH  17  18
ENDBRANCH   7  12
BRANCH   1  20
ATOM     20  C   UNL     1       2.772   6.850  19.125  0.00  0.00    +0.000 C 
BRANCH  20  21
ATOM     21  C   UNL     1       2.755   5.791  18.025  0.00  0.00    +0.000 C 
BRANCH  21  26
ATOM     22  C   UNL     1       6.323   5.849  16.749  0.00  0.00    +0.000 A 
ATOM     23  C   UNL     1       6.523   4.541  16.329  0.00  0.00    +0.000 A 
ATOM     24  C   UNL     1       5.481   3.610  16.409  0.00  0.00    +0.000 A 
ATOM     25  C   UNL     1       4.222   3.964  16.911  0.00  0.00    +0.000 A 
ATOM     26  C   UNL     1       4.036   5.258  17.424  0.00  0.00    +0.000 A 
ATOM     27  C   UNL     1       5.089   6.199  17.308  0.00  0.00    +0.000 A 
BRANCH  22  29
ATOM     28  C   UNL     1       7.516   7.758  17.484  0.00  0.00    +0.000 C 
ATOM     29  O   UNL     1       7.388   6.675  16.576  0.00  0.00    +0.000 OA
ENDBRANCH  22  29
BRANCH  25  30
ATOM     30  O   UNL     1       3.156   3.103  16.942  0.00  0.00    +0.000 OA
ATOM     31  C   UNL     1       3.230   2.056  17.909  0.00  0.00    +0.000 C 
ENDBRANCH  25  30
ENDBRANCH  21  26
ENDBRANCH  20  21
ENDBRANCH   1  20
TORSDOF 7
ENDMDL
MODEL 8
REMARK VINA RESULT:      -7.9      2.513      9.752
REMARK  Name = 
REMARK  10 active torsions:
REMARK  status: ('A' for Active; 'I' for Inactive)
REMARK    1  A    between atoms: C_1  and  O_2
REMARK    2  A    between atoms: O_2  and  C_3
REMARK    3  A    between atoms: C_6  and  O_7
REMARK    4  A    between atoms: O_7  and  C_8
REMARK    5  A    between atoms: C_9  and  C_10
REMARK    6  A    between atoms: C_10  and  C_11
REMARK    7  A    between atoms: C_11  and  N_12
REMARK    8  A    between atoms: C_18  and  C_19
REMARK    9  A    between atoms: C_24  and  O_25
REMARK   10  A    between atoms: O_25  and  C_26
REMARK                            x       y       z     vdW  Elec       q    Type
REMARK                         _______ _______ _______ _____ _____    ______ ____
ROOT
ATOM      1  N   UNL     1       0.134  10.361  21.778  0.00  0.00    +0.000 N 
ATOM      2  C   UNL     1       0.549  11.321  20.880  0.00  0.00    +0.000 A 
ATOM      3  N   UNL     1       0.946  11.103  19.672  0.00  0.00    +0.000 NA
ATOM      4  C   UNL     1       1.162   9.771  19.316  0.00  0.00    +0.000 A 
ATOM      5  C   UNL     1       1.744   9.516  18.088  0.00  0.00    +0.000 A 
ATOM      6  C   UNL     1       2.335   8.281  17.860  0.00  0.00    +0.000 A 
ATOM      7  C   UNL     1       2.455   7.304  18.878  0.00  0.00    +0.000 A 
ATOM      8  C   UNL     1       1.696   7.514  20.048  0.00  0.00    +0.000 A 
ATOM      9  C   UNL     1       1.001   8.727  20.222  0.00  0.00    +0.000 A 
ATOM     10  C   UNL     1       0.115   9.033  21.374  0.00  0.00    +0.000 A 
ATOM     11  O   UNL     1      -0.629   8.158  21.810  0.00  0.00    +0.000 OA
ENDROOT
BRANCH   7  12
ATOM     12  C   UNL     1       3.469   6.226  18.656  0.00  0.00    +0.000 A 
ATOM     13  C   UNL     1       4.461   6.502  17.666  0.00  0.00    +0.000 A 
ATOM     14  C   UNL     1       5.400   5.566  17.233  0.00  0.00    +0.000 A 
ATOM     15  C   UNL     1       5.415   4.319  17.799  0.00  0.00    +0.000 A 
ATOM     16  C   UNL     1       4.532   4.035  18.841  0.00  0.00    +0.000 A 
ATOM     17  C   UNL     1       3.571   4.971  19.280  0.00  0.00    +0.000 A 
BRANCH  17  18
ATOM     18  O   UNL     1       2.898   4.572  20.405  0.00  0.00    +0.000 OA
ATOM     19  C   UNL     1       2.795   3.170  20.603  0.00  0.00    +0.000 C 
ENDBRANCH  17  18
ENDBRANCH   7  12
BRANCH   1  20
ATOM     20  C   UNL     1      -0.648  10.892  22.890  0.00  0.00    +0.000 C 
BRANCH  20  21
ATOM     21  C   UNL     1      -1.214  12.310  22.868  0.00  0.00    +0.000 C 
BRANCH  21  26
ATOM     22  C   UNL     1      -4.939  12.916  23.213  0.00  0.00    +0.000 A 
ATOM     23  C   UNL     1      -5.349  13.080  21.897  0.00  0.00    +0.000 A 
ATOM     24  C   UNL     1      -4.426  12.953  20.852  0.00  0.00    +0.000 A 
ATOM     25  C   UNL     1      -3.078  12.662  21.099  0.00  0.00    +0.000 A 
ATOM     26  C   UNL     1      -2.634  12.585  22.429  0.00  0.00    +0.000 A 
ATOM     27  C   UNL     1      -3.584  12.685  23.476  0.00  0.00    +0.000 A 
BRANCH  22  29
ATOM     28  C   UNL     1      -7.155  12.361  23.836  0.00  0.00    +0.000 C 
ATOM     29  O   UNL     1      -5.930  13.012  24.137  0.00  0.00    +0.000 OA
ENDBRANCH  22  29
BRANCH  25  30
ATOM     30  O   UNL     1      -2.158  12.461  20.104  0.00  0.00    +0.000 OA
ATOM     31  C   UNL     1      -2.645  11.820  18.925  0.00  0.00    +0.000 C 
ENDBRANCH  25  30
ENDBRANCH  21  26
ENDBRANCH  20  21
ENDBRANCH   1  20
TORSDOF 7
ENDMDL
MODEL 9
REMARK VINA RESULT:      -7.9      2.964      9.328
REMARK  Name = 
REMARK  10 active torsions:
REMARK  status: ('A' for Active; 'I' for Inactive)
REMARK    1  A    between atoms: C_1  and  O_2
REMARK    2  A    between atoms: O_2  and  C_3
REMARK    3  A    between atoms: C_6  and  O_7
REMARK    4  A    between atoms: O_7  and  C_8
REMARK    5  A    between atoms: C_9  and  C_10
REMARK    6  A    between atoms: C_10  and  C_11
REMARK    7  A    between atoms: C_11  and  N_12
REMARK    8  A    between atoms: C_18  and  C_19
REMARK    9  A    between atoms: C_24  and  O_25
REMARK   10  A    between atoms: O_25  and  C_26
REMARK                            x       y       z     vdW  Elec       q    Type
REMARK                         _______ _______ _______ _____ _____    ______ ____
ROOT
ATOM      1  N   UNL     1       0.190  10.760  19.075  0.00  0.00    +0.000 N 
ATOM      2  C   UNL     1      -0.348  10.244  20.236  0.00  0.00    +0.000 A 
ATOM      3  N   UNL     1       0.137   9.265  20.921  0.00  0.00    +0.000 NA
ATOM      4  C   UNL     1       1.175   8.542  20.330  0.00  0.00    +0.000 A 
ATOM      5  C   UNL     1       1.601   7.389  20.963  0.00  0.00    +0.000 A 
ATOM      6  C   UNL     1       2.321   6.445  20.243  0.00  0.00    +0.000 A 
ATOM      7  C   UNL     1       2.547   6.573  18.851  0.00  0.00    +0.000 A 
ATOM      8  C   UNL     1       2.270   7.832  18.278  0.00  0.00    +0.000 A 
ATOM      9  C   UNL     1       1.642   8.828  19.051  0.00  0.00    +0.000 A 
ATOM     10  C   UNL     1       1.364  10.209  18.581  0.00  0.00    +0.000 A 
ATOM     11  O   UNL     1       2.205  10.795  17.903  0.00  0.00    +0.000 OA
ENDROOT
BRANCH   7  12
ATOM     12  C   UNL     1       2.933   5.327  18.118  0.00  0.00    +0.000 A 
ATOM     13  C   UNL     1       1.978   4.266  18.153  0.00  0.00    +0.000 A 
ATOM     14  C   UNL     1       2.221   2.991  17.642  0.00  0.00    +0.000 A 
ATOM     15  C   UNL     1       3.421   2.728  17.036  0.00  0.00    +0.000 A 
ATOM     16  C   UNL     1       4.348   3.761  16.887  0.00  0.00    +0.000 A 
ATOM     17  C   UNL     1       4.116   5.052  17.409  0.00  0.00    +0.000 A 
BRANCH  17  18
ATOM     18  O   UNL     1       5.064   5.967  17.037  0.00  0.00    +0.000 OA
ATOM     19  C   UNL     1       5.331   6.054  15.645  0.00  0.00    +0.000 C 
ENDBRANCH  17  18
ENDBRANCH   7  12
BRANCH   1  20
ATOM     20  C   UNL     1      -0.291  12.098  18.746  0.00  0.00    +0.000 C 
BRANCH  20  21
ATOM     21  C   UNL     1      -1.610  12.635  19.298  0.00  0.00    +0.000 C 
BRANCH  21  26
ATOM     22  C   UNL     1      -4.075  11.089  16.869  0.00  0.00    +0.000 A 
ATOM     23  C   UNL     1      -5.276  11.156  17.563  0.00  0.00    +0.000 A 
ATOM     24  C   UNL     1      -5.324  11.749  18.829  0.00  0.00    +0.000 A 
ATOM     25  C   UNL     1      -4.177  12.286  19.429  0.00  0.00    +0.000 A 
ATOM     26  C   UNL     1      -2.941  12.142  18.778  0.00  0.00    +0.000 A 
ATOM     27  C   UNL     1      -2.912  11.567  17.483  0.00  0.00    +0.000 A 
BRANCH  22  29
ATOM     28  C   UNL     1      -2.941  10.339  14.930  0.00  0.00    +0.000 C 
ATOM     29  O   UNL     1      -4.160  10.538  15.630  0.00  0.00    +0.000 OA
ENDBRANCH  22  29
BRANCH  25  30
ATOM     30  O   UNL     1      -4.194  12.936  20.635  0.00  0.00    +0.000 OA
ATOM     31  C   UNL     1      -5.412  13.603  20.967  0.00  0.00    +0.000 C 
ENDBRANCH  25  30
ENDBRANCH  21  26
ENDBRANCH  20  21
ENDBRANCH   1  20
TORSDOF 7
ENDMDL
