MODEL 1
REMARK VINA RESULT:      -9.1      0.000      0.000
REMARK  Name = 
REMARK  5 active torsions:
REMARK  status: ('A' for Active; 'I' for Inactive)
REMARK    1  A    between atoms: C_2  and  C_3
REMARK    2  A    between atoms: C_3  and  N_4
REMARK    3  A    between atoms: C_5  and  C_7
REMARK    4  A    between atoms: N_13  and  N_14
REMARK    5  A    between atoms: C_19  and  C_20
REMARK                            x       y       z     vdW  Elec       q    Type
REMARK                         _______ _______ _______ _____ _____    ______ ____
ROOT
ATOM      1  O   UNL     1       6.249   5.753  19.644  0.00  0.00    +0.000 OA
ATOM      2  C   UNL     1       6.438   4.776  18.923  0.00  0.00    +0.000 C 
ATOM      3  N   UNL     1       5.522   3.758  18.707  0.00  0.00    +0.000 N 
ATOM      4  H   UNL     1       5.892   2.860  18.367  0.00  0.00    +0.000 HD
ENDROOT
BRANCH   3   5
ATOM      5  N   UNL     1       4.318   3.670  19.471  0.00  0.00    +0.000 N 
ATOM      6  C   UNL     1       4.171   2.486  20.199  0.00  0.00    +0.000 C 
ATOM      7  O   UNL     1       5.100   1.755  20.533  0.00  0.00    +0.000 OA
ATOM      8  C   UNL     1       2.724   2.158  20.497  0.00  0.00    +0.000 C 
ATOM      9  S   UNL     1       1.703   3.357  19.630  0.00  0.00    +0.000 S 
ATOM     10  C   UNL     1       3.121   4.120  18.780  0.00  0.00    +0.000 C 
BRANCH  10  11
ATOM     11  C   UNL     1       2.928   5.618  18.679  0.00  0.00    +0.000 A 
ATOM     12  C   UNL     1       2.270   6.352  19.685  0.00  0.00    +0.000 A 
ATOM     13  C   UNL     1       2.010   7.715  19.520  0.00  0.00    +0.000 A 
ATOM     14  C   UNL     1       2.411   8.360  18.354  0.00  0.00    +0.000 A 
ATOM     15 CL   UNL     1       2.046  10.027  18.127  0.00  0.00    +0.000 Cl
ATOM     16  C   UNL     1       3.093   7.661  17.361  0.00  0.00    +0.000 A 
ATOM     17  C   UNL     1       3.351   6.298  17.522  0.00  0.00    +0.000 A 
ENDBRANCH  10  11
ENDBRANCH   3   5
BRANCH   2  18
ATOM     18  C   UNL     1       7.714   4.642  18.075  0.00  0.00    +0.000 C 
BRANCH  18  19
ATOM     19  N   UNL     1       7.482   4.262  16.690  0.00  0.00    +0.000 N 
ATOM     20  C   UNL     1       7.016   5.188  15.779  0.00  0.00    +0.000 C 
ATOM     21  O   UNL     1       6.717   6.329  16.118  0.00  0.00    +0.000 OA
ATOM     22  H   UNL     1       7.582   3.294  16.425  0.00  0.00    +0.000 HD
BRANCH  20  23
ATOM     23  C   UNL     1       6.813   4.746  14.381  0.00  0.00    +0.000 A 
ATOM     24  C   UNL     1       7.693   5.243  13.415  0.00  0.00    +0.000 A 
ATOM     25  C   UNL     1       7.607   4.802  12.093  0.00  0.00    +0.000 A 
ATOM     26  C   UNL     1       6.647   3.856  11.740  0.00  0.00    +0.000 A 
ATOM     27  C   UNL     1       5.764   3.361  12.703  0.00  0.00    +0.000 A 
ATOM     28  C   UNL     1       5.840   3.806  14.028  0.00  0.00    +0.000 A 
ENDBRANCH  20  23
ENDBRANCH  18  19
ENDBRANCH   2  18
TORSDOF 5
ENDMDL
MODEL 2
REMARK VINA RESULT:      -8.6      0.160      1.350
REMARK  Name = 
REMARK  5 active torsions:
REMARK  status: ('A' for Active; 'I' for Inactive)
REMARK    1  A    between atoms: C_2  and  C_3
REMARK    2  A    between atoms: C_3  and  N_4
REMARK    3  A    between atoms: C_5  and  C_7
REMARK    4  A    between atoms: N_13  and  N_14
REMARK    5  A    between atoms: C_19  and  C_20
REMARK                            x       y       z     vdW  Elec       q    Type
REMARK                         _______ _______ _______ _____ _____    ______ ____
ROOT
ATOM      1  O   UNL     1       6.069   5.870  19.609  0.00  0.00    +0.000 OA
ATOM      2  C   UNL     1       6.358   4.877  18.945  0.00  0.00    +0.000 C 
ATOM      3  N   UNL     1       5.532   3.781  18.753  0.00  0.00    +0.000 N 
ATOM      4  H   UNL     1       5.982   2.900  18.471  0.00  0.00    +0.000 HD
ENDROOT
BRANCH   3   5
ATOM      5  N   UNL     1       4.313   3.635  19.483  0.00  0.00    +0.000 N 
ATOM      6  C   UNL     1       4.223   2.468  20.247  0.00  0.00    +0.000 C 
ATOM      7  O   UNL     1       5.188   1.815  20.635  0.00  0.00    +0.000 OA
ATOM      8  C   UNL     1       2.793   2.050  20.512  0.00  0.00    +0.000 C 
ATOM      9  S   UNL     1       1.721   3.146  19.573  0.00  0.00    +0.000 S 
ATOM     10  C   UNL     1       3.111   3.978  18.740  0.00  0.00    +0.000 C 
BRANCH  10  11
ATOM     11  C   UNL     1       2.820   5.455  18.581  0.00  0.00    +0.000 A 
ATOM     12  C   UNL     1       3.207   6.169  17.432  0.00  0.00    +0.000 A 
ATOM     13  C   UNL     1       3.023   7.552  17.354  0.00  0.00    +0.000 A 
ATOM     14  C   UNL     1       2.443   8.234  18.420  0.00  0.00    +0.000 A 
ATOM     15 CL   UNL     1       2.262   9.944  18.347  0.00  0.00    +0.000 Cl
ATOM     16  C   UNL     1       2.023   7.543  19.553  0.00  0.00    +0.000 A 
ATOM     17  C   UNL     1       2.209   6.160  19.634  0.00  0.00    +0.000 A 
ENDBRANCH  10  11
ENDBRANCH   3   5
BRANCH   2  18
ATOM     18  C   UNL     1       7.670   4.804  18.145  0.00  0.00    +0.000 C 
BRANCH  18  19
ATOM     19  N   UNL     1       7.513   4.367  16.766  0.00  0.00    +0.000 N 
ATOM     20  C   UNL     1       7.067   5.245  15.800  0.00  0.00    +0.000 C 
ATOM     21  O   UNL     1       6.723   6.390  16.082  0.00  0.00    +0.000 OA
ATOM     22  H   UNL     1       7.650   3.392  16.544  0.00  0.00    +0.000 HD
BRANCH  20  23
ATOM     23  C   UNL     1       6.941   4.746  14.413  0.00  0.00    +0.000 A 
ATOM     24  C   UNL     1       5.888   3.869  14.137  0.00  0.00    +0.000 A 
ATOM     25  C   UNL     1       5.665   3.427  12.832  0.00  0.00    +0.000 A 
ATOM     26  C   UNL     1       6.490   3.872  11.800  0.00  0.00    +0.000 A 
ATOM     27  C   UNL     1       7.545   4.746  12.074  0.00  0.00    +0.000 A 
ATOM     28  C   UNL     1       7.778   5.185  13.382  0.00  0.00    +0.000 A 
ENDBRANCH  20  23
ENDBRANCH  18  19
ENDBRANCH   2  18
TORSDOF 5
ENDMDL
MODEL 3
REMARK VINA RESULT:      -8.2      0.696      1.172
REMARK  Name = 
REMARK  5 active torsions:
REMARK  status: ('A' for Active; 'I' for Inactive)
REMARK    1  A    between atoms: C_2  and  C_3
REMARK    2  A    between atoms: C_3  and  N_4
REMARK    3  A    between atoms: C_5  and  C_7
REMARK    4  A    between atoms: N_13  and  N_14
REMARK    5  A    between atoms: C_19  and  C_20
REMARK                            x       y       z     vdW  Elec       q    Type
REMARK                         _______ _______ _______ _____ _____    ______ ____
ROOT
ATOM      1  O   UNL     1       6.438   5.099  20.155  0.00  0.00    +0.000 OA
ATOM      2  C   UNL     1       6.213   4.625  19.044  0.00  0.00    +0.000 C 
ATOM      3  N   UNL     1       4.992   4.119  18.627  0.00  0.00    +0.000 N 
ATOM      4  H   UNL     1       5.002   3.469  17.829  0.00  0.00    +0.000 HD
ENDROOT
BRANCH   3   5
ATOM      5  N   UNL     1       3.913   3.938  19.546  0.00  0.00    +0.000 N 
ATOM      6  C   UNL     1       3.945   2.738  20.259  0.00  0.00    +0.000 C 
ATOM      7  O   UNL     1       4.958   2.068  20.448  0.00  0.00    +0.000 OA
ATOM      8  C   UNL     1       2.578   2.306  20.744  0.00  0.00    +0.000 C 
ATOM      9  S   UNL     1       1.370   3.443  20.050  0.00  0.00    +0.000 S 
ATOM     10  C   UNL     1       2.605   4.314  19.033  0.00  0.00    +0.000 C 
BRANCH  10  11
ATOM     11  C   UNL     1       2.301   5.796  18.994  0.00  0.00    +0.000 A 
ATOM     12  C   UNL     1       2.382   6.540  17.801  0.00  0.00    +0.000 A 
ATOM     13  C   UNL     1       2.202   7.925  17.810  0.00  0.00    +0.000 A 
ATOM     14  C   UNL     1       1.930   8.581  19.007  0.00  0.00    +0.000 A 
ATOM     15 CL   UNL     1       1.758  10.293  19.027  0.00  0.00    +0.000 Cl
ATOM     16  C   UNL     1       1.813   7.861  20.193  0.00  0.00    +0.000 A 
ATOM     17  C   UNL     1       1.996   6.476  20.187  0.00  0.00    +0.000 A 
ENDBRANCH  10  11
ENDBRANCH   3   5
BRANCH   2  18
ATOM     18  C   UNL     1       7.278   4.650  17.934  0.00  0.00    +0.000 C 
BRANCH  18  19
ATOM     19  N   UNL     1       6.799   4.220  16.629  0.00  0.00    +0.000 N 
ATOM     20  C   UNL     1       7.073   4.967  15.502  0.00  0.00    +0.000 C 
ATOM     21  O   UNL     1       7.661   6.043  15.571  0.00  0.00    +0.000 OA
ATOM     22  H   UNL     1       6.190   3.417  16.572  0.00  0.00    +0.000 HD
BRANCH  20  23
ATOM     23  C   UNL     1       6.572   4.472  14.201  0.00  0.00    +0.000 A 
ATOM     24  C   UNL     1       7.447   4.528  13.111  0.00  0.00    +0.000 A 
ATOM     25  C   UNL     1       7.064   4.001  11.876  0.00  0.00    +0.000 A 
ATOM     26  C   UNL     1       5.810   3.409  11.734  0.00  0.00    +0.000 A 
ATOM     27  C   UNL     1       4.933   3.357  12.820  0.00  0.00    +0.000 A 
ATOM     28  C   UNL     1       5.308   3.890  14.058  0.00  0.00    +0.000 A 
ENDBRANCH  20  23
ENDBRANCH  18  19
ENDBRANCH   2  18
TORSDOF 5
ENDMDL
MODEL 4
REMARK VINA RESULT:      -8.1      0.867      1.343
REMARK  Name = 
REMARK  5 active torsions:
REMARK  status: ('A' for Active; 'I' for Inactive)
REMARK    1  A    between atoms: C_2  and  C_3
REMARK    2  A    between atoms: C_3  and  N_4
REMARK    3  A    between atoms: C_5  and  C_7
REMARK    4  A    between atoms: N_13  and  N_14
REMARK    5  A    between atoms: C_19  and  C_20
REMARK                            x       y       z     vdW  Elec       q    Type
REMARK                         _______ _______ _______ _____ _____    ______ ____
ROOT
ATOM      1  O   UNL     1       6.649   5.055  20.114  0.00  0.00    +0.000 OA
ATOM      2  C   UNL     1       6.455   5.094  18.901  0.00  0.00    +0.000 C 
ATOM      3  N   UNL     1       5.223   4.935  18.287  0.00  0.00    +0.000 N 
ATOM      4  H   UNL     1       5.226   4.663  17.294  0.00  0.00    +0.000 HD
ENDROOT
BRANCH   3   5
ATOM      5  N   UNL     1       4.073   4.522  19.028  0.00  0.00    +0.000 N 
ATOM      6  C   UNL     1       4.073   3.178  19.409  0.00  0.00    +0.000 C 
ATOM      7  O   UNL     1       5.083   2.484  19.510  0.00  0.00    +0.000 OA
ATOM      8  C   UNL     1       2.681   2.635  19.643  0.00  0.00    +0.000 C 
ATOM      9  S   UNL     1       1.510   3.911  19.160  0.00  0.00    +0.000 S 
ATOM     10  C   UNL     1       2.806   5.016  18.515  0.00  0.00    +0.000 C 
BRANCH  10  11
ATOM     11  C   UNL     1       2.470   6.458  18.830  0.00  0.00    +0.000 A 
ATOM     12  C   UNL     1       1.900   6.837  20.060  0.00  0.00    +0.000 A 
ATOM     13  C   UNL     1       1.501   8.156  20.286  0.00  0.00    +0.000 A 
ATOM     14  C   UNL     1       1.675   9.112  19.290  0.00  0.00    +0.000 A 
ATOM     15 CL   UNL     1       1.137  10.727  19.547  0.00  0.00    +0.000 Cl
ATOM     16  C   UNL     1       2.267   8.767  18.078  0.00  0.00    +0.000 A 
ATOM     17  C   UNL     1       2.663   7.447  17.848  0.00  0.00    +0.000 A 
ENDBRANCH  10  11
ENDBRANCH   3   5
BRANCH   2  18
ATOM     18  C   UNL     1       7.588   5.443  17.921  0.00  0.00    +0.000 C 
BRANCH  18  19
ATOM     19  N   UNL     1       7.473   4.811  16.615  0.00  0.00    +0.000 N 
ATOM     20  C   UNL     1       6.674   5.365  15.637  0.00  0.00    +0.000 C 
ATOM     21  O   UNL     1       5.984   6.357  15.856  0.00  0.00    +0.000 OA
ATOM     22  H   UNL     1       7.916   3.917  16.465  0.00  0.00    +0.000 HD
BRANCH  20  23
ATOM     23  C   UNL     1       6.608   4.685  14.324  0.00  0.00    +0.000 A 
ATOM     24  C   UNL     1       5.529   3.826  14.098  0.00  0.00    +0.000 A 
ATOM     25  C   UNL     1       5.365   3.217  12.852  0.00  0.00    +0.000 A 
ATOM     26  C   UNL     1       6.275   3.477  11.829  0.00  0.00    +0.000 A 
ATOM     27  C   UNL     1       7.357   4.333  12.055  0.00  0.00    +0.000 A 
ATOM     28  C   UNL     1       7.531   4.939  13.304  0.00  0.00    +0.000 A 
ENDBRANCH  20  23
ENDBRANCH  18  19
ENDBRANCH   2  18
TORSDOF 5
ENDMDL
MODEL 5
REMARK VINA RESULT:      -7.9      1.392      1.591
REMARK  Name = 
REMARK  5 active torsions:
REMARK  status: ('A' for Active; 'I' for Inactive)
REMARK    1  A    between atoms: C_2  and  C_3
REMARK    2  A    between atoms: C_3  and  N_4
REMARK    3  A    between atoms: C_5  and  C_7
REMARK    4  A    between atoms: N_13  and  N_14
REMARK    5  A    between atoms: C_19  and  C_20
REMARK                            x       y       z     vdW  Elec       q    Type
REMARK                         _______ _______ _______ _____ _____    ______ ____
ROOT
ATOM      1  O   UNL     1       6.818   5.616  19.944  0.00  0.00    +0.000 OA
ATOM      2  C   UNL     1       6.445   5.888  18.806  0.00  0.00    +0.000 C 
ATOM      3  N   UNL     1       5.147   5.751  18.340  0.00  0.00    +0.000 N 
ATOM      4  H   UNL     1       5.020   5.692  17.320  0.00  0.00    +0.000 HD
ENDROOT
BRANCH   3   5
ATOM      5  N   UNL     1       4.146   5.092  19.117  0.00  0.00    +0.000 N 
ATOM      6  C   UNL     1       4.372   3.730  19.330  0.00  0.00    +0.000 C 
ATOM      7  O   UNL     1       5.473   3.188  19.260  0.00  0.00    +0.000 OA
ATOM      8  C   UNL     1       3.099   2.961  19.610  0.00  0.00    +0.000 C 
ATOM      9  S   UNL     1       1.719   4.092  19.386  0.00  0.00    +0.000 S 
ATOM     10  C   UNL     1       2.777   5.443  18.776  0.00  0.00    +0.000 C 
BRANCH  10  11
ATOM     11  C   UNL     1       2.278   6.775  19.292  0.00  0.00    +0.000 A 
ATOM     12  C   UNL     1       1.844   6.942  20.621  0.00  0.00    +0.000 A 
ATOM     13  C   UNL     1       1.287   8.151  21.045  0.00  0.00    +0.000 A 
ATOM     14  C   UNL     1       1.166   9.209  20.148  0.00  0.00    +0.000 A 
ATOM     15 CL   UNL     1       0.433  10.682  20.654  0.00  0.00    +0.000 Cl
ATOM     16  C   UNL     1       1.618   9.077  18.838  0.00  0.00    +0.000 A 
ATOM     17  C   UNL     1       2.172   7.867  18.411  0.00  0.00    +0.000 A 
ENDBRANCH  10  11
ENDBRANCH   3   5
BRANCH   2  18
ATOM     18  C   UNL     1       7.398   6.534  17.785  0.00  0.00    +0.000 C 
BRANCH  18  19
ATOM     19  N   UNL     1       7.112   6.201  16.398  0.00  0.00    +0.000 N 
ATOM     20  C   UNL     1       7.389   4.942  15.908  0.00  0.00    +0.000 C 
ATOM     21  O   UNL     1       7.946   4.092  16.598  0.00  0.00    +0.000 OA
ATOM     22  H   UNL     1       6.791   6.930  15.777  0.00  0.00    +0.000 HD
BRANCH  20  23
ATOM     23  C   UNL     1       7.062   4.659  14.492  0.00  0.00    +0.000 A 
ATOM     24  C   UNL     1       7.845   5.282  13.515  0.00  0.00    +0.000 A 
ATOM     25  C   UNL     1       7.642   4.993  12.164  0.00  0.00    +0.000 A 
ATOM     26  C   UNL     1       6.663   4.074  11.792  0.00  0.00    +0.000 A 
ATOM     27  C   UNL     1       5.877   3.454  12.767  0.00  0.00    +0.000 A 
ATOM     28  C   UNL     1       6.071   3.745  14.122  0.00  0.00    +0.000 A 
ENDBRANCH  20  23
ENDBRANCH  18  19
ENDBRANCH   2  18
TORSDOF 5
ENDMDL
MODEL 6
REMARK VINA RESULT:      -7.7      1.256      1.671
REMARK  Name = 
REMARK  5 active torsions:
REMARK  status: ('A' for Active; 'I' for Inactive)
REMARK    1  A    between atoms: C_2  and  C_3
REMARK    2  A    between atoms: C_3  and  N_4
REMARK    3  A    between atoms: C_5  and  C_7
REMARK    4  A    between atoms: N_13  and  N_14
REMARK    5  A    between atoms: C_19  and  C_20
REMARK                            x       y       z     vdW  Elec       q    Type
REMARK                         _______ _______ _______ _____ _____    ______ ____
ROOT
ATOM      1  O   UNL     1       4.243   3.279  17.730  0.00  0.00    +0.000 OA
ATOM      2  C   UNL     1       4.984   3.988  18.407  0.00  0.00    +0.000 C 
ATOM      3  N   UNL     1       4.710   4.425  19.693  0.00  0.00    +0.000 N 
ATOM      4  H   UNL     1       5.224   5.253  20.026  0.00  0.00    +0.000 HD
ENDROOT
BRANCH   3   5
ATOM      5  N   UNL     1       3.425   4.228  20.285  0.00  0.00    +0.000 N 
ATOM      6  C   UNL     1       3.223   2.962  20.841  0.00  0.00    +0.000 C 
ATOM      7  O   UNL     1       4.126   2.208  21.199  0.00  0.00    +0.000 OA
ATOM      8  C   UNL     1       1.761   2.581  20.915  0.00  0.00    +0.000 C 
ATOM      9  S   UNL     1       0.820   3.864  20.077  0.00  0.00    +0.000 S 
ATOM     10  C   UNL     1       2.310   4.744  19.509  0.00  0.00    +0.000 C 
BRANCH  10  11
ATOM     11  C   UNL     1       2.088   6.241  19.566  0.00  0.00    +0.000 A 
ATOM     12  C   UNL     1       1.565   6.871  20.710  0.00  0.00    +0.000 A 
ATOM     13  C   UNL     1       1.269   8.237  20.701  0.00  0.00    +0.000 A 
ATOM     14  C   UNL     1       1.501   8.988  19.553  0.00  0.00    +0.000 A 
ATOM     15 CL   UNL     1       1.090  10.659  19.523  0.00  0.00    +0.000 Cl
ATOM     16  C   UNL     1       2.049   8.391  18.421  0.00  0.00    +0.000 A 
ATOM     17  C   UNL     1       2.342   7.025  18.426  0.00  0.00    +0.000 A 
ENDBRANCH  10  11
ENDBRANCH   3   5
BRANCH   2  18
ATOM     18  C   UNL     1       6.386   4.382  17.911  0.00  0.00    +0.000 C 
BRANCH  18  19
ATOM     19  N   UNL     1       6.637   4.083  16.509  0.00  0.00    +0.000 N 
ATOM     20  C   UNL     1       6.435   5.045  15.541  0.00  0.00    +0.000 C 
ATOM     21  O   UNL     1       5.974   6.148  15.818  0.00  0.00    +0.000 OA
ATOM     22  H   UNL     1       6.876   3.138  16.246  0.00  0.00    +0.000 HD
BRANCH  20  23
ATOM     23  C   UNL     1       6.721   4.686  14.134  0.00  0.00    +0.000 A 
ATOM     24  C   UNL     1       5.935   3.686  13.553  0.00  0.00    +0.000 A 
ATOM     25  C   UNL     1       6.100   3.358  12.205  0.00  0.00    +0.000 A 
ATOM     26  C   UNL     1       7.043   4.038  11.437  0.00  0.00    +0.000 A 
ATOM     27  C   UNL     1       7.832   5.035  12.018  0.00  0.00    +0.000 A 
ATOM     28  C   UNL     1       7.677   5.362  13.370  0.00  0.00    +0.000 A 
ENDBRANCH  20  23
ENDBRANCH  18  19
ENDBRANCH   2  18
TORSDOF 5
ENDMDL
MODEL 7
REMARK VINA RESULT:      -7.6      3.983      8.199
REMARK  Name = 
REMARK  5 active torsions:
REMARK  status: ('A' for Active; 'I' for Inactive)
REMARK    1  A    between atoms: C_2  and  C_3
REMARK    2  A    between atoms: C_3  and  N_4
REMARK    3  A    between atoms: C_5  and  C_7
REMARK    4  A    between atoms: N_13  and  N_14
REMARK    5  A    between atoms: C_19  and  C_20
REMARK                            x       y       z     vdW  Elec       q    Type
REMARK                         _______ _______ _______ _____ _____    ______ ____
ROOT
ATOM      1  O   UNL     1       3.015   6.881  19.493  0.00  0.00    +0.000 OA
ATOM      2  C   UNL     1       2.986   7.474  18.417  0.00  0.00    +0.000 C 
ATOM      3  N   UNL     1       3.665   7.081  17.274  0.00  0.00    +0.000 N 
ATOM      4  H   UNL     1       3.832   7.801  16.559  0.00  0.00    +0.000 HD
ENDROOT
BRANCH   3   5
ATOM      5  N   UNL     1       4.625   6.023  17.309  0.00  0.00    +0.000 N 
ATOM      6  C   UNL     1       5.839   6.313  16.682  0.00  0.00    +0.000 C 
ATOM      7  O   UNL     1       6.265   7.448  16.482  0.00  0.00    +0.000 OA
ATOM      8  C   UNL     1       6.570   5.072  16.219  0.00  0.00    +0.000 C 
ATOM      9  S   UNL     1       5.489   3.664  16.504  0.00  0.00    +0.000 S 
ATOM     10  C   UNL     1       4.088   4.702  17.030  0.00  0.00    +0.000 C 
BRANCH  10  11
ATOM     11  C   UNL     1       3.333   4.032  18.158  0.00  0.00    +0.000 A 
ATOM     12  C   UNL     1       1.933   3.892  18.135  0.00  0.00    +0.000 A 
ATOM     13  C   UNL     1       1.249   3.368  19.235  0.00  0.00    +0.000 A 
ATOM     14  C   UNL     1       1.958   2.970  20.365  0.00  0.00    +0.000 A 
ATOM     15 CL   UNL     1       1.114   2.371  21.740  0.00  0.00    +0.000 Cl
ATOM     16  C   UNL     1       3.346   3.068  20.396  0.00  0.00    +0.000 A 
ATOM     17  C   UNL     1       4.031   3.596  19.299  0.00  0.00    +0.000 A 
ENDBRANCH  10  11
ENDBRANCH   3   5
BRANCH   2  18
ATOM     18  C   UNL     1       2.073   8.692  18.200  0.00  0.00    +0.000 C 
BRANCH  18  19
ATOM     19  N   UNL     1       1.439   9.195  19.409  0.00  0.00    +0.000 N 
ATOM     20  C   UNL     1       0.221   9.839  19.344  0.00  0.00    +0.000 C 
ATOM     21  O   UNL     1      -0.328  10.071  18.271  0.00  0.00    +0.000 OA
ATOM     22  H   UNL     1       1.943   9.144  20.282  0.00  0.00    +0.000 HD
BRANCH  20  23
ATOM     23  C   UNL     1      -0.381  10.316  20.610  0.00  0.00    +0.000 A 
ATOM     24  C   UNL     1      -0.203   9.520  21.746  0.00  0.00    +0.000 A 
ATOM     25  C   UNL     1      -0.676   9.954  22.987  0.00  0.00    +0.000 A 
ATOM     26  C   UNL     1      -1.317  11.187  23.092  0.00  0.00    +0.000 A 
ATOM     27  C   UNL     1      -1.499  11.980  21.957  0.00  0.00    +0.000 A 
ATOM     28  C   UNL     1      -1.035  11.548  20.709  0.00  0.00    +0.000 A 
ENDBRANCH  20  23
ENDBRANCH  18  19
ENDBRANCH   2  18
TORSDOF 5
ENDMDL
MODEL 8
REMARK VINA RESULT:      -7.6      3.894      7.347
REMARK  Name = 
REMARK  5 active torsions:
REMARK  status: ('A' for Active; 'I' for Inactive)
REMARK    1  A    between atoms: C_2  and  C_3
REMARK    2  A    between atoms: C_3  and  N_4
REMARK    3  A    between atoms: C_5  and  C_7
REMARK    4  A    between atoms: N_13  and  N_14
REMARK    5  A    between atoms: C_19  and  C_20
REMARK                            x       y       z     vdW  Elec       q    Type
REMARK                         _______ _______ _______ _____ _____    ______ ____
ROOT
ATOM      1  O   UNL     1       2.156   6.577  17.877  0.00  0.00    +0.000 OA
ATOM      2  C   UNL     1       2.457   6.852  19.036  0.00  0.00    +0.000 C 
ATOM      3  N   UNL     1       2.993   5.961  19.951  0.00  0.00    +0.000 N 
ATOM      4  H   UNL     1       2.899   6.200  20.948  0.00  0.00    +0.000 HD
ENDROOT
BRANCH   3   5
ATOM      5  N   UNL     1       3.073   4.564  19.666  0.00  0.00    +0.000 N 
ATOM      6  C   UNL     1       2.221   3.760  20.427  0.00  0.00    +0.000 C 
ATOM      7  O   UNL     1       1.199   4.160  20.982  0.00  0.00    +0.000 OA
ATOM      8  C   UNL     1       2.711   2.334  20.546  0.00  0.00    +0.000 C 
ATOM      9  S   UNL     1       4.339   2.252  19.788  0.00  0.00    +0.000 S 
ATOM     10  C   UNL     1       4.423   4.049  19.505  0.00  0.00    +0.000 C 
BRANCH  10  11
ATOM     11  C   UNL     1       5.100   4.341  18.183  0.00  0.00    +0.000 A 
ATOM     12  C   UNL     1       4.445   4.142  16.953  0.00  0.00    +0.000 A 
ATOM     13  C   UNL     1       5.125   4.316  15.745  0.00  0.00    +0.000 A 
ATOM     14  C   UNL     1       6.463   4.698  15.753  0.00  0.00    +0.000 A 
ATOM     15 CL   UNL     1       7.317   4.863  14.268  0.00  0.00    +0.000 Cl
ATOM     16  C   UNL     1       7.122   4.932  16.958  0.00  0.00    +0.000 A 
ATOM     17  C   UNL     1       6.444   4.755  18.167  0.00  0.00    +0.000 A 
ENDBRANCH  10  11
ENDBRANCH   3   5
BRANCH   2  18
ATOM     18  C   UNL     1       2.364   8.294  19.565  0.00  0.00    +0.000 C 
BRANCH  18  19
ATOM     19  N   UNL     1       1.045   8.897  19.448  0.00  0.00    +0.000 N 
ATOM     20  C   UNL     1       0.738   9.704  18.372  0.00  0.00    +0.000 C 
ATOM     21  O   UNL     1       1.578   9.995  17.526  0.00  0.00    +0.000 OA
ATOM     22  H   UNL     1       0.389   8.788  20.207  0.00  0.00    +0.000 HD
BRANCH  20  23
ATOM     23  C   UNL     1      -0.625  10.277  18.300  0.00  0.00    +0.000 A 
ATOM     24  C   UNL     1      -0.950  11.279  19.220  0.00  0.00    +0.000 A 
ATOM     25  C   UNL     1      -2.190  11.918  19.153  0.00  0.00    +0.000 A 
ATOM     26  C   UNL     1      -3.100  11.561  18.159  0.00  0.00    +0.000 A 
ATOM     27  C   UNL     1      -2.778  10.558  17.242  0.00  0.00    +0.000 A 
ATOM     28  C   UNL     1      -1.540   9.908  17.309  0.00  0.00    +0.000 A 
ENDBRANCH  20  23
ENDBRANCH  18  19
ENDBRANCH   2  18
TORSDOF 5
ENDMDL
MODEL 9
REMARK VINA RESULT:      -7.5      3.967      8.022
REMARK  Name = 
REMARK  5 active torsions:
REMARK  status: ('A' for Active; 'I' for Inactive)
REMARK    1  A    between atoms: C_2  and  C_3
REMARK    2  A    between atoms: C_3  and  N_4
REMARK    3  A    between atoms: C_5  and  C_7
REMARK    4  A    between atoms: N_13  and  N_14
REMARK    5  A    between atoms: C_19  and  C_20
REMARK                            x       y       z     vdW  Elec       q    Type
REMARK                         _______ _______ _______ _____ _____    ______ ____
ROOT
ATOM      1  O   UNL     1       1.769   6.337  17.467  0.00  0.00    +0.000 OA
ATOM      2  C   UNL     1       2.306   6.860  18.440  0.00  0.00    +0.000 C 
ATOM      3  N   UNL     1       3.069   6.190  19.384  0.00  0.00    +0.000 N 
ATOM      4  H   UNL     1       3.186   6.645  20.299  0.00  0.00    +0.000 HD
ENDROOT
BRANCH   3   5
ATOM      5  N   UNL     1       3.144   4.763  19.399  0.00  0.00    +0.000 N 
ATOM      6  C   UNL     1       2.269   4.139  20.291  0.00  0.00    +0.000 C 
ATOM      7  O   UNL     1       1.239   4.650  20.727  0.00  0.00    +0.000 OA
ATOM      8  C   UNL     1       2.745   2.769  20.718  0.00  0.00    +0.000 C 
ATOM      9  S   UNL     1       4.388   2.524  20.031  0.00  0.00    +0.000 S 
ATOM     10  C   UNL     1       4.493   4.222  19.380  0.00  0.00    +0.000 C 
BRANCH  10  11
ATOM     11  C   UNL     1       5.201   4.229  18.042  0.00  0.00    +0.000 A 
ATOM     12  C   UNL     1       6.561   4.571  17.923  0.00  0.00    +0.000 A 
ATOM     13  C   UNL     1       7.164   4.674  16.666  0.00  0.00    +0.000 A 
ATOM     14  C   UNL     1       6.417   4.428  15.518  0.00  0.00    +0.000 A 
ATOM     15 CL   UNL     1       7.144   4.605  13.968  0.00  0.00    +0.000 Cl
ATOM     16  C   UNL     1       5.079   4.057  15.614  0.00  0.00    +0.000 A 
ATOM     17  C   UNL     1       4.473   3.956  16.869  0.00  0.00    +0.000 A 
ENDBRANCH  10  11
ENDBRANCH   3   5
BRANCH   2  18
ATOM     18  C   UNL     1       2.271   8.383  18.650  0.00  0.00    +0.000 C 
BRANCH  18  19
ATOM     19  N   UNL     1       1.450   8.820  19.770  0.00  0.00    +0.000 N 
ATOM     20  C   UNL     1       0.766  10.016  19.711  0.00  0.00    +0.000 C 
ATOM     21  O   UNL     1       0.882  10.777  18.755  0.00  0.00    +0.000 OA
ATOM     22  H   UNL     1       1.458   8.279  20.621  0.00  0.00    +0.000 HD
BRANCH  20  23
ATOM     23  C   UNL     1      -0.065  10.399  20.875  0.00  0.00    +0.000 A 
ATOM     24  C   UNL     1      -0.005   9.579  22.006  0.00  0.00    +0.000 A 
ATOM     25  C   UNL     1      -0.700   9.930  23.165  0.00  0.00    +0.000 A 
ATOM     26  C   UNL     1      -1.446  11.107  23.196  0.00  0.00    +0.000 A 
ATOM     27  C   UNL     1      -1.510  11.925  22.066  0.00  0.00    +0.000 A 
ATOM     28  C   UNL     1      -0.822  11.575  20.898  0.00  0.00    +0.000 A 
ENDBRANCH  20  23
ENDBRANCH  18  19
ENDBRANCH   2  18
TORSDOF 5
ENDMDL
