MODEL 1
REMARK VINA RESULT:      -6.7      0.000      0.000
REMARK  Name = 
REMARK  10 active torsions:
REMARK  status: ('A' for Active; 'I' for Inactive)
REMARK    1  A    between atoms: C_1  and  O_2
REMARK    2  A    between atoms: O_2  and  C_3
REMARK    3  A    between atoms: C_6  and  N_7
REMARK    4  A    between atoms: C_8  and  C_10
REMARK    5  A    between atoms: C_11  and  N_12
REMARK    6  A    between atoms: N_12  and  C_13
REMARK    7  A    between atoms: C_13  and  C_14
REMARK    8  A    between atoms: C_18  and  C_19
REMARK    9  A    between atoms: C_28  and  O_29
REMARK   10  A    between atoms: O_29  and  C_30
REMARK                            x       y       z     vdW  Elec       q    Type
REMARK                         _______ _______ _______ _____ _____    ______ ____
ROOT
ATOM      1  C   UNL     1       0.067  11.034  19.830  0.00  0.00    +0.000 A 
ATOM      2  C   UNL     1      -0.238  11.073  21.189  0.00  0.00    +0.000 A 
ATOM      3  S   UNL     1       0.403   9.708  21.998  0.00  0.00    +0.000 S 
ATOM      4  C   UNL     1       1.054   9.048  20.571  0.00  0.00    +0.000 A 
ATOM      5  C   UNL     1       0.682   9.769  19.447  0.00  0.00    +0.000 A 
ATOM      6  C   UNL     1       0.990   9.369  18.023  0.00  0.00    +0.000 C 
ATOM      7  C   UNL     1       2.384   8.781  17.830  0.00  0.00    +0.000 C 
ATOM      8  C   UNL     1       2.520   7.312  18.240  0.00  0.00    +0.000 C 
ATOM      9  C   UNL     1       1.787   6.880  19.511  0.00  0.00    +0.000 C 
ATOM     10  C   UNL     1       1.951   7.846  20.677  0.00  0.00    +0.000 C 
ENDROOT
BRANCH   1  12
ATOM     11  N   UNL     1      -1.364  12.499  18.415  0.00  0.00    +0.000 N 
ATOM     12  C   UNL     1      -0.107  12.157  18.902  0.00  0.00    +0.000 C 
ATOM     13  O   UNL     1       0.862  12.820  18.512  0.00  0.00    +0.000 OA
ATOM     14  H   UNL     1      -1.315  13.113  17.609  0.00  0.00    +0.000 HD
BRANCH  11  18
ATOM     15  C   UNL     1      -5.329  11.169  18.536  0.00  0.00    +0.000 A 
ATOM     16  C   UNL     1      -4.399  10.488  17.763  0.00  0.00    +0.000 A 
ATOM     17  C   UNL     1      -3.045  10.783  17.870  0.00  0.00    +0.000 A 
ATOM     18  C   UNL     1      -2.625  11.878  18.615  0.00  0.00    +0.000 A 
ATOM     19  C   UNL     1      -3.534  12.488  19.505  0.00  0.00    +0.000 A 
ATOM     20  C   UNL     1      -4.890  12.124  19.458  0.00  0.00    +0.000 A 
BRANCH  15  22
ATOM     21  C   UNL     1      -7.187   9.800  19.093  0.00  0.00    +0.000 C 
ATOM     22  O   UNL     1      -6.623  10.816  18.280  0.00  0.00    +0.000 OA
ENDBRANCH  15  22
BRANCH  19  23
ATOM     23  O   UNL     1      -3.009  13.470  20.313  0.00  0.00    +0.000 OA
ATOM     24  C   UNL     1      -3.910  14.457  20.802  0.00  0.00    +0.000 C 
ENDBRANCH  19  23
ENDBRANCH  11  18
ENDBRANCH   1  12
BRANCH   2  25
ATOM     25  N   UNL     1      -0.796  12.039  21.957  0.00  0.00    +0.000 N 
ATOM     26  H   UNL     1      -0.514  13.004  21.810  0.00  0.00    +0.000 HD
BRANCH  25  27
ATOM     27  C   UNL     1      -1.698  11.839  23.068  0.00  0.00    +0.000 C 
BRANCH  27  28
ATOM     28  C   UNL     1      -2.148  13.153  23.630  0.00  0.00    +0.000 A 
ATOM     29  S   UNL     1      -1.138  14.528  23.523  0.00  0.00    +0.000 S 
ATOM     30  C   UNL     1      -2.229  15.465  24.442  0.00  0.00    +0.000 A 
ATOM     31  C   UNL     1      -3.350  14.750  24.799  0.00  0.00    +0.000 A 
ATOM     32  C   UNL     1      -3.317  13.400  24.331  0.00  0.00    +0.000 A 
ATOM     33  C   UNL     1      -4.373  12.363  24.592  0.00  0.00    +0.000 C 
ENDBRANCH  27  28
ENDBRANCH  25  27
ENDBRANCH   2  25
TORSDOF 7
ENDMDL
MODEL 2
REMARK VINA RESULT:      -6.3      3.014      5.657
REMARK  Name = 
REMARK  10 active torsions:
REMARK  status: ('A' for Active; 'I' for Inactive)
REMARK    1  A    between atoms: C_1  and  O_2
REMARK    2  A    between atoms: O_2  and  C_3
REMARK    3  A    between atoms: C_6  and  N_7
REMARK    4  A    between atoms: C_8  and  C_10
REMARK    5  A    between atoms: C_11  and  N_12
REMARK    6  A    between atoms: N_12  and  C_13
REMARK    7  A    between atoms: C_13  and  C_14
REMARK    8  A    between atoms: C_18  and  C_19
REMARK    9  A    between atoms: C_28  and  O_29
REMARK   10  A    between atoms: O_29  and  C_30
REMARK                            x       y       z     vdW  Elec       q    Type
REMARK                         _______ _______ _______ _____ _____    ______ ____
ROOT
ATOM      1  C   UNL     1      -1.655  12.094  19.750  0.00  0.00    +0.000 A 
ATOM      2  C   UNL     1      -2.602  12.839  20.449  0.00  0.00    +0.000 A 
ATOM      3  S   UNL     1      -2.584  12.443  22.113  0.00  0.00    +0.000 S 
ATOM      4  C   UNL     1      -1.361  11.276  21.921  0.00  0.00    +0.000 A 
ATOM      5  C   UNL     1      -1.046  11.068  20.587  0.00  0.00    +0.000 A 
ATOM      6  C   UNL     1      -0.095  10.009  20.079  0.00  0.00    +0.000 C 
ATOM      7  C   UNL     1       1.145   9.819  20.946  0.00  0.00    +0.000 C 
ATOM      8  C   UNL     1       0.924   8.974  22.203  0.00  0.00    +0.000 C 
ATOM      9  C   UNL     1      -0.388   9.194  22.959  0.00  0.00    +0.000 C 
ATOM     10  C   UNL     1      -0.753  10.660  23.150  0.00  0.00    +0.000 C 
ENDROOT
BRANCH   1  12
ATOM     11  N   UNL     1      -0.064  13.065  18.101  0.00  0.00    +0.000 N 
ATOM     12  C   UNL     1      -1.233  12.361  18.370  0.00  0.00    +0.000 C 
ATOM     13  O   UNL     1      -1.915  11.987  17.409  0.00  0.00    +0.000 OA
ATOM     14  H   UNL     1      -0.020  13.394  17.142  0.00  0.00    +0.000 HD
BRANCH  11  18
ATOM     15  C   UNL     1       2.218  14.644  21.231  0.00  0.00    +0.000 A 
ATOM     16  C   UNL     1       2.609  13.458  20.626  0.00  0.00    +0.000 A 
ATOM     17  C   UNL     1       1.990  13.027  19.459  0.00  0.00    +0.000 A 
ATOM     18  C   UNL     1       0.860  13.682  18.984  0.00  0.00    +0.000 A 
ATOM     19  C   UNL     1       0.538  14.953  19.504  0.00  0.00    +0.000 A 
ATOM     20  C   UNL     1       1.227  15.428  20.632  0.00  0.00    +0.000 A 
BRANCH  15  22
ATOM     21  C   UNL     1       4.287  14.833  22.381  0.00  0.00    +0.000 C 
ATOM     22  O   UNL     1       2.871  14.908  22.401  0.00  0.00    +0.000 OA
ENDBRANCH  15  22
BRANCH  19  23
ATOM     23  O   UNL     1      -0.506  15.603  18.886  0.00  0.00    +0.000 OA
ATOM     24  C   UNL     1      -0.247  16.907  18.380  0.00  0.00    +0.000 C 
ENDBRANCH  19  23
ENDBRANCH  11  18
ENDBRANCH   1  12
BRANCH   2  25
ATOM     25  N   UNL     1      -3.383  13.880  20.071  0.00  0.00    +0.000 N 
ATOM     26  H   UNL     1      -3.013  14.555  19.409  0.00  0.00    +0.000 HD
BRANCH  25  27
ATOM     27  C   UNL     1      -4.689  14.208  20.596  0.00  0.00    +0.000 C 
BRANCH  27  28
ATOM     28  C   UNL     1      -5.690  13.157  20.225  0.00  0.00    +0.000 A 
ATOM     29  S   UNL     1      -5.917  12.722  18.588  0.00  0.00    +0.000 S 
ATOM     30  C   UNL     1      -7.205  11.678  18.989  0.00  0.00    +0.000 A 
ATOM     31  C   UNL     1      -7.438  11.643  20.346  0.00  0.00    +0.000 A 
ATOM     32  C   UNL     1      -6.561  12.501  21.079  0.00  0.00    +0.000 A 
ATOM     33  C   UNL     1      -6.593  12.711  22.567  0.00  0.00    +0.000 C 
ENDBRANCH  27  28
ENDBRANCH  25  27
ENDBRANCH   2  25
TORSDOF 7
ENDMDL
MODEL 3
REMARK VINA RESULT:      -6.3      2.376      4.476
REMARK  Name = 
REMARK  10 active torsions:
REMARK  status: ('A' for Active; 'I' for Inactive)
REMARK    1  A    between atoms: C_1  and  O_2
REMARK    2  A    between atoms: O_2  and  C_3
REMARK    3  A    between atoms: C_6  and  N_7
REMARK    4  A    between atoms: C_8  and  C_10
REMARK    5  A    between atoms: C_11  and  N_12
REMARK    6  A    between atoms: N_12  and  C_13
REMARK    7  A    between atoms: C_13  and  C_14
REMARK    8  A    between atoms: C_18  and  C_19
REMARK    9  A    between atoms: C_28  and  O_29
REMARK   10  A    between atoms: O_29  and  C_30
REMARK                            x       y       z     vdW  Elec       q    Type
REMARK                         _______ _______ _______ _____ _____    ______ ____
ROOT
ATOM      1  C   UNL     1      -0.852  11.157  19.665  0.00  0.00    +0.000 A 
ATOM      2  C   UNL     1      -1.194  11.209  21.014  0.00  0.00    +0.000 A 
ATOM      3  S   UNL     1      -0.266  10.094  21.923  0.00  0.00    +0.000 S 
ATOM      4  C   UNL     1       0.562   9.520  20.552  0.00  0.00    +0.000 A 
ATOM      5  C   UNL     1       0.058  10.055  19.377  0.00  0.00    +0.000 A 
ATOM      6  C   UNL     1       0.492   9.650  17.988  0.00  0.00    +0.000 C 
ATOM      7  C   UNL     1       1.991   9.403  17.851  0.00  0.00    +0.000 C 
ATOM      8  C   UNL     1       2.464   8.041  18.363  0.00  0.00    +0.000 C 
ATOM      9  C   UNL     1       1.821   7.528  19.653  0.00  0.00    +0.000 C 
ATOM     10  C   UNL     1       1.718   8.579  20.751  0.00  0.00    +0.000 C 
ENDROOT
BRANCH   1  12
ATOM     11  N   UNL     1      -0.661  13.395  18.593  0.00  0.00    +0.000 N 
ATOM     12  C   UNL     1      -1.264  12.143  18.660  0.00  0.00    +0.000 C 
ATOM     13  O   UNL     1      -2.173  11.898  17.858  0.00  0.00    +0.000 OA
ATOM     14  H   UNL     1      -1.196  14.054  18.037  0.00  0.00    +0.000 HD
BRANCH  11  18
ATOM     15  C   UNL     1       2.178  14.530  21.448  0.00  0.00    +0.000 A 
ATOM     16  C   UNL     1       2.595  13.980  20.244  0.00  0.00    +0.000 A 
ATOM     17  C   UNL     1       1.690  13.790  19.207  0.00  0.00    +0.000 A 
ATOM     18  C   UNL     1       0.331  13.981  19.421  0.00  0.00    +0.000 A 
ATOM     19  C   UNL     1      -0.088  14.663  20.582  0.00  0.00    +0.000 A 
ATOM     20  C   UNL     1       0.847  14.935  21.595  0.00  0.00    +0.000 A 
BRANCH  15  22
ATOM     21  C   UNL     1       4.479  14.282  21.978  0.00  0.00    +0.000 C 
ATOM     22  O   UNL     1       3.161  14.599  22.393  0.00  0.00    +0.000 OA
ENDBRANCH  15  22
BRANCH  19  23
ATOM     23  O   UNL     1      -1.433  14.943  20.657  0.00  0.00    +0.000 OA
ATOM     24  C   UNL     1      -1.800  16.289  20.936  0.00  0.00    +0.000 C 
ENDBRANCH  19  23
ENDBRANCH  11  18
ENDBRANCH   1  12
BRANCH   2  25
ATOM     25  N   UNL     1      -1.987  12.061  21.708  0.00  0.00    +0.000 N 
ATOM     26  H   UNL     1      -2.691  12.593  21.205  0.00  0.00    +0.000 HD
BRANCH  25  27
ATOM     27  C   UNL     1      -1.877  12.387  23.111  0.00  0.00    +0.000 C 
BRANCH  27  28
ATOM     28  C   UNL     1      -2.922  13.382  23.510  0.00  0.00    +0.000 A 
ATOM     29  S   UNL     1      -4.557  13.135  23.077  0.00  0.00    +0.000 S 
ATOM     30  C   UNL     1      -5.012  14.648  23.722  0.00  0.00    +0.000 A 
ATOM     31  C   UNL     1      -3.943  15.313  24.279  0.00  0.00    +0.000 A 
ATOM     32  C   UNL     1      -2.717  14.586  24.163  0.00  0.00    +0.000 A 
ATOM     33  C   UNL     1      -1.374  15.065  24.637  0.00  0.00    +0.000 C 
ENDBRANCH  27  28
ENDBRANCH  25  27
ENDBRANCH   2  25
TORSDOF 7
ENDMDL
MODEL 4
REMARK VINA RESULT:      -6.2      2.510      4.655
REMARK  Name = 
REMARK  10 active torsions:
REMARK  status: ('A' for Active; 'I' for Inactive)
REMARK    1  A    between atoms: C_1  and  O_2
REMARK    2  A    between atoms: O_2  and  C_3
REMARK    3  A    between atoms: C_6  and  N_7
REMARK    4  A    between atoms: C_8  and  C_10
REMARK    5  A    between atoms: C_11  and  N_12
REMARK    6  A    between atoms: N_12  and  C_13
REMARK    7  A    between atoms: C_13  and  C_14
REMARK    8  A    between atoms: C_18  and  C_19
REMARK    9  A    between atoms: C_28  and  O_29
REMARK   10  A    between atoms: O_29  and  C_30
REMARK                            x       y       z     vdW  Elec       q    Type
REMARK                         _______ _______ _______ _____ _____    ______ ____
ROOT
ATOM      1  C   UNL     1      -0.996  11.367  19.423  0.00  0.00    +0.000 A 
ATOM      2  C   UNL     1      -1.347  11.699  20.729  0.00  0.00    +0.000 A 
ATOM      3  S   UNL     1      -0.444  10.780  21.856  0.00  0.00    +0.000 S 
ATOM      4  C   UNL     1       0.385   9.926  20.641  0.00  0.00    +0.000 A 
ATOM      5  C   UNL     1      -0.101  10.217  19.376  0.00  0.00    +0.000 A 
ATOM      6  C   UNL     1       0.337   9.531  18.103  0.00  0.00    +0.000 C 
ATOM      7  C   UNL     1       1.833   9.240  18.036  0.00  0.00    +0.000 C 
ATOM      8  C   UNL     1       2.280   8.004  18.820  0.00  0.00    +0.000 C 
ATOM      9  C   UNL     1       1.619   7.775  20.181  0.00  0.00    +0.000 C 
ATOM     10  C   UNL     1       1.524   9.029  21.040  0.00  0.00    +0.000 C 
ENDROOT
BRANCH   1  12
ATOM     11  N   UNL     1      -0.599  13.182  17.766  0.00  0.00    +0.000 N 
ATOM     12  C   UNL     1      -1.384  12.133  18.233  0.00  0.00    +0.000 C 
ATOM     13  O   UNL     1      -2.431  11.881  17.624  0.00  0.00    +0.000 OA
ATOM     14  H   UNL     1      -1.094  13.774  17.108  0.00  0.00    +0.000 HD
BRANCH  11  18
ATOM     15  C   UNL     1       2.730  14.481  19.942  0.00  0.00    +0.000 A 
ATOM     16  C   UNL     1       2.869  13.451  19.022  0.00  0.00    +0.000 A 
ATOM     17  C   UNL     1       1.834  13.146  18.146  0.00  0.00    +0.000 A 
ATOM     18  C   UNL     1       0.590  13.746  18.299  0.00  0.00    +0.000 A 
ATOM     19  C   UNL     1       0.475  14.879  19.130  0.00  0.00    +0.000 A 
ATOM     20  C   UNL     1       1.556  15.241  19.951  0.00  0.00    +0.000 A 
BRANCH  15  22
ATOM     21  C   UNL     1       3.530  14.962  22.125  0.00  0.00    +0.000 C 
ATOM     22  O   UNL     1       3.802  14.624  20.775  0.00  0.00    +0.000 OA
ENDBRANCH  15  22
BRANCH  19  23
ATOM     23  O   UNL     1      -0.750  15.505  19.119  0.00  0.00    +0.000 OA
ATOM     24  C   UNL     1      -1.186  16.095  20.338  0.00  0.00    +0.000 C 
ENDBRANCH  19  23
ENDBRANCH  11  18
ENDBRANCH   1  12
BRANCH   2  25
ATOM     25  N   UNL     1      -2.132  12.685  21.226  0.00  0.00    +0.000 N 
ATOM     26  H   UNL     1      -2.296  13.512  20.659  0.00  0.00    +0.000 HD
BRANCH  25  27
ATOM     27  C   UNL     1      -2.698  12.745  22.554  0.00  0.00    +0.000 C 
BRANCH  27  28
ATOM     28  C   UNL     1      -4.194  12.793  22.492  0.00  0.00    +0.000 A 
ATOM     29  S   UNL     1      -4.986  13.110  21.010  0.00  0.00    +0.000 S 
ATOM     30  C   UNL     1      -6.513  13.132  21.771  0.00  0.00    +0.000 A 
ATOM     31  C   UNL     1      -6.421  12.877  23.121  0.00  0.00    +0.000 A 
ATOM     32  C   UNL     1      -5.074  12.676  23.555  0.00  0.00    +0.000 A 
ATOM     33  C   UNL     1      -4.646  12.419  24.972  0.00  0.00    +0.000 C 
ENDBRANCH  27  28
ENDBRANCH  25  27
ENDBRANCH   2  25
TORSDOF 7
ENDMDL
MODEL 5
REMARK VINA RESULT:      -6.2      4.558      8.758
REMARK  Name = 
REMARK  10 active torsions:
REMARK  status: ('A' for Active; 'I' for Inactive)
REMARK    1  A    between atoms: C_1  and  O_2
REMARK    2  A    between atoms: O_2  and  C_3
REMARK    3  A    between atoms: C_6  and  N_7
REMARK    4  A    between atoms: C_8  and  C_10
REMARK    5  A    between atoms: C_11  and  N_12
REMARK    6  A    between atoms: N_12  and  C_13
REMARK    7  A    between atoms: C_13  and  C_14
REMARK    8  A    between atoms: C_18  and  C_19
REMARK    9  A    between atoms: C_28  and  O_29
REMARK   10  A    between atoms: O_29  and  C_30
REMARK                            x       y       z     vdW  Elec       q    Type
REMARK                         _______ _______ _______ _____ _____    ______ ____
ROOT
ATOM      1  C   UNL     1       2.224   6.515  18.768  0.00  0.00    +0.000 A 
ATOM      2  C   UNL     1       1.886   6.915  20.059  0.00  0.00    +0.000 A 
ATOM      3  S   UNL     1       1.593   5.559  21.062  0.00  0.00    +0.000 S 
ATOM      4  C   UNL     1       1.878   4.448  19.806  0.00  0.00    +0.000 A 
ATOM      5  C   UNL     1       2.060   5.078  18.585  0.00  0.00    +0.000 A 
ATOM      6  C   UNL     1       2.206   4.367  17.259  0.00  0.00    +0.000 C 
ATOM      7  C   UNL     1       3.047   3.097  17.324  0.00  0.00    +0.000 C 
ATOM      8  C   UNL     1       2.311   1.869  17.866  0.00  0.00    +0.000 C 
ATOM      9  C   UNL     1       1.363   2.099  19.045  0.00  0.00    +0.000 C 
ATOM     10  C   UNL     1       1.943   2.983  20.141  0.00  0.00    +0.000 C 
ENDROOT
BRANCH   1  12
ATOM     11  N   UNL     1       4.077   7.228  17.268  0.00  0.00    +0.000 N 
ATOM     12  C   UNL     1       2.779   7.399  17.738  0.00  0.00    +0.000 C 
ATOM     13  O   UNL     1       2.117   8.334  17.273  0.00  0.00    +0.000 OA
ATOM     14  H   UNL     1       4.416   8.037  16.758  0.00  0.00    +0.000 HD
BRANCH  11  18
ATOM     15  C   UNL     1       7.478   5.115  18.482  0.00  0.00    +0.000 A 
ATOM     16  C   UNL     1       6.495   5.429  19.411  0.00  0.00    +0.000 A 
ATOM     17  C   UNL     1       5.273   5.942  18.995  0.00  0.00    +0.000 A 
ATOM     18  C   UNL     1       5.085   6.312  17.669  0.00  0.00    +0.000 A 
ATOM     19  C   UNL     1       6.013   5.878  16.700  0.00  0.00    +0.000 A 
ATOM     20  C   UNL     1       7.212   5.276  17.119  0.00  0.00    +0.000 A 
BRANCH  15  22
ATOM     21  C   UNL     1       8.889   5.040  20.390  0.00  0.00    +0.000 C 
ATOM     22  O   UNL     1       8.645   4.679  19.040  0.00  0.00    +0.000 OA
ENDBRANCH  15  22
BRANCH  19  23
ATOM     23  O   UNL     1       5.687   6.158  15.393  0.00  0.00    +0.000 OA
ATOM     24  C   UNL     1       5.793   5.091  14.457  0.00  0.00    +0.000 C 
ENDBRANCH  19  23
ENDBRANCH  11  18
ENDBRANCH   1  12
BRANCH   2  25
ATOM     25  N   UNL     1       1.901   8.131  20.656  0.00  0.00    +0.000 N 
ATOM     26  H   UNL     1       2.715   8.726  20.533  0.00  0.00    +0.000 HD
BRANCH  25  27
ATOM     27  C   UNL     1       0.904   8.656  21.560  0.00  0.00    +0.000 C 
BRANCH  27  28
ATOM     28  C   UNL     1       0.399   9.983  21.083  0.00  0.00    +0.000 A 
ATOM     29  S   UNL     1       0.897  10.601  19.569  0.00  0.00    +0.000 S 
ATOM     30  C   UNL     1       0.066  12.067  19.835  0.00  0.00    +0.000 A 
ATOM     31  C   UNL     1      -0.598  12.073  21.041  0.00  0.00    +0.000 A 
ATOM     32  C   UNL     1      -0.413  10.862  21.779  0.00  0.00    +0.000 A 
ATOM     33  C   UNL     1      -0.975  10.582  23.145  0.00  0.00    +0.000 C 
ENDBRANCH  27  28
ENDBRANCH  25  27
ENDBRANCH   2  25
TORSDOF 7
ENDMDL
MODEL 6
REMARK VINA RESULT:      -6.2      3.007      5.839
REMARK  Name = 
REMARK  10 active torsions:
REMARK  status: ('A' for Active; 'I' for Inactive)
REMARK    1  A    between atoms: C_1  and  O_2
REMARK    2  A    between atoms: O_2  and  C_3
REMARK    3  A    between atoms: C_6  and  N_7
REMARK    4  A    between atoms: C_8  and  C_10
REMARK    5  A    between atoms: C_11  and  N_12
REMARK    6  A    between atoms: N_12  and  C_13
REMARK    7  A    between atoms: C_13  and  C_14
REMARK    8  A    between atoms: C_18  and  C_19
REMARK    9  A    between atoms: C_28  and  O_29
REMARK   10  A    between atoms: O_29  and  C_30
REMARK                            x       y       z     vdW  Elec       q    Type
REMARK                         _______ _______ _______ _____ _____    ______ ____
ROOT
ATOM      1  C   UNL     1      -1.886  12.131  19.684  0.00  0.00    +0.000 A 
ATOM      2  C   UNL     1      -2.746  12.933  20.433  0.00  0.00    +0.000 A 
ATOM      3  S   UNL     1      -2.581  12.609  22.105  0.00  0.00    +0.000 S 
ATOM      4  C   UNL     1      -1.409  11.401  21.854  0.00  0.00    +0.000 A 
ATOM      5  C   UNL     1      -1.226  11.126  20.508  0.00  0.00    +0.000 A 
ATOM      6  C   UNL     1      -0.352  10.020  19.963  0.00  0.00    +0.000 C 
ATOM      7  C   UNL     1       0.960   9.835  20.719  0.00  0.00    +0.000 C 
ATOM      8  C   UNL     1       0.838   9.052  22.029  0.00  0.00    +0.000 C 
ATOM      9  C   UNL     1      -0.392   9.340  22.892  0.00  0.00    +0.000 C 
ATOM     10  C   UNL     1      -0.702  10.823  23.049  0.00  0.00    +0.000 C 
ENDROOT
BRANCH   1  12
ATOM     11  N   UNL     1      -0.683  13.294  17.842  0.00  0.00    +0.000 N 
ATOM     12  C   UNL     1      -1.590  12.327  18.261  0.00  0.00    +0.000 C 
ATOM     13  O   UNL     1      -2.153  11.651  17.392  0.00  0.00    +0.000 OA
ATOM     14  H   UNL     1      -0.757  13.494  16.851  0.00  0.00    +0.000 HD
BRANCH  11  18
ATOM     15  C   UNL     1       1.764  16.302  19.415  0.00  0.00    +0.000 A 
ATOM     16  C   UNL     1       0.429  16.571  19.148  0.00  0.00    +0.000 A 
ATOM     17  C   UNL     1      -0.445  15.540  18.824  0.00  0.00    +0.000 A 
ATOM     18  C   UNL     1       0.040  14.260  18.592  0.00  0.00    +0.000 A 
ATOM     19  C   UNL     1       1.356  13.945  18.989  0.00  0.00    +0.000 A 
ATOM     20  C   UNL     1       2.214  14.978  19.402  0.00  0.00    +0.000 A 
BRANCH  15  22
ATOM     21  C   UNL     1       2.185  18.178  20.808  0.00  0.00    +0.000 C 
ATOM     22  O   UNL     1       2.513  17.417  19.657  0.00  0.00    +0.000 OA
ENDBRANCH  15  22
BRANCH  19  23
ATOM     23  O   UNL     1       1.718  12.624  18.860  0.00  0.00    +0.000 OA
ATOM     24  C   UNL     1       2.759  12.325  17.937  0.00  0.00    +0.000 C 
ENDBRANCH  19  23
ENDBRANCH  11  18
ENDBRANCH   1  12
BRANCH   2  25
ATOM     25  N   UNL     1      -3.535  13.977  20.082  0.00  0.00    +0.000 N 
ATOM     26  H   UNL     1      -3.149  14.702  19.484  0.00  0.00    +0.000 HD
BRANCH  25  27
ATOM     27  C   UNL     1      -4.873  14.240  20.559  0.00  0.00    +0.000 C 
BRANCH  27  28
ATOM     28  C   UNL     1      -5.809  13.145  20.146  0.00  0.00    +0.000 A 
ATOM     29  S   UNL     1      -5.993  12.746  18.494  0.00  0.00    +0.000 S 
ATOM     30  C   UNL     1      -7.224  11.619  18.850  0.00  0.00    +0.000 A 
ATOM     31  C   UNL     1      -7.469  11.532  20.201  0.00  0.00    +0.000 A 
ATOM     32  C   UNL     1      -6.650  12.417  20.970  0.00  0.00    +0.000 A 
ATOM     33  C   UNL     1      -6.711  12.582  22.462  0.00  0.00    +0.000 C 
ENDBRANCH  27  28
ENDBRANCH  25  27
ENDBRANCH   2  25
TORSDOF 7
ENDMDL
MODEL 7
REMARK VINA RESULT:      -6.1      3.014      5.809
REMARK  Name = 
REMARK  10 active torsions:
REMARK  status: ('A' for Active; 'I' for Inactive)
REMARK    1  A    between atoms: C_1  and  O_2
REMARK    2  A    between atoms: O_2  and  C_3
REMARK    3  A    between atoms: C_6  and  N_7
REMARK    4  A    between atoms: C_8  and  C_10
REMARK    5  A    between atoms: C_11  and  N_12
REMARK    6  A    between atoms: N_12  and  C_13
REMARK    7  A    between atoms: C_13  and  C_14
REMARK    8  A    between atoms: C_18  and  C_19
REMARK    9  A    between atoms: C_28  and  O_29
REMARK   10  A    between atoms: O_29  and  C_30
REMARK                            x       y       z     vdW  Elec       q    Type
REMARK                         _______ _______ _______ _____ _____    ______ ____
ROOT
ATOM      1  C   UNL     1      -1.666  12.107  19.747  0.00  0.00    +0.000 A 
ATOM      2  C   UNL     1      -2.603  12.866  20.443  0.00  0.00    +0.000 A 
ATOM      3  S   UNL     1      -2.590  12.476  22.110  0.00  0.00    +0.000 S 
ATOM      4  C   UNL     1      -1.381  11.294  21.921  0.00  0.00    +0.000 A 
ATOM      5  C   UNL     1      -1.069  11.077  20.588  0.00  0.00    +0.000 A 
ATOM      6  C   UNL     1      -0.131  10.004  20.084  0.00  0.00    +0.000 C 
ATOM      7  C   UNL     1       1.107   9.803  20.952  0.00  0.00    +0.000 C 
ATOM      8  C   UNL     1       0.876   8.966  22.212  0.00  0.00    +0.000 C 
ATOM      9  C   UNL     1      -0.433   9.204  22.967  0.00  0.00    +0.000 C 
ATOM     10  C   UNL     1      -0.780  10.675  23.153  0.00  0.00    +0.000 C 
ENDROOT
BRANCH   1  12
ATOM     11  N   UNL     1      -0.073  13.070  18.094  0.00  0.00    +0.000 N 
ATOM     12  C   UNL     1      -1.241  12.364  18.367  0.00  0.00    +0.000 C 
ATOM     13  O   UNL     1      -1.919  11.980  17.407  0.00  0.00    +0.000 OA
ATOM     14  H   UNL     1      -0.028  13.390  17.133  0.00  0.00    +0.000 HD
BRANCH  11  18
ATOM     15  C   UNL     1       2.231  14.628  21.219  0.00  0.00    +0.000 A 
ATOM     16  C   UNL     1       2.666  13.497  20.542  0.00  0.00    +0.000 A 
ATOM     17  C   UNL     1       2.030  13.088  19.376  0.00  0.00    +0.000 A 
ATOM     18  C   UNL     1       0.847  13.697  18.975  0.00  0.00    +0.000 A 
ATOM     19  C   UNL     1       0.472  14.919  19.570  0.00  0.00    +0.000 A 
ATOM     20  C   UNL     1       1.174  15.379  20.696  0.00  0.00    +0.000 A 
BRANCH  15  22
ATOM     21  C   UNL     1       3.143  16.230  22.715  0.00  0.00    +0.000 C 
ATOM     22  O   UNL     1       2.911  14.872  22.377  0.00  0.00    +0.000 OA
ENDBRANCH  15  22
BRANCH  19  23
ATOM     23  O   UNL     1      -0.631  15.535  19.023  0.00  0.00    +0.000 OA
ATOM     24  C   UNL     1      -0.436  16.826  18.456  0.00  0.00    +0.000 C 
ENDBRANCH  19  23
ENDBRANCH  11  18
ENDBRANCH   1  12
BRANCH   2  25
ATOM     25  N   UNL     1      -3.372  13.915  20.062  0.00  0.00    +0.000 N 
ATOM     26  H   UNL     1      -3.039  14.521  19.318  0.00  0.00    +0.000 HD
BRANCH  25  27
ATOM     27  C   UNL     1      -4.605  14.345  20.681  0.00  0.00    +0.000 C 
BRANCH  27  28
ATOM     28  C   UNL     1      -5.785  13.705  20.017  0.00  0.00    +0.000 A 
ATOM     29  S   UNL     1      -6.149  12.060  20.305  0.00  0.00    +0.000 S 
ATOM     30  C   UNL     1      -7.421  12.088  19.168  0.00  0.00    +0.000 A 
ATOM     31  C   UNL     1      -7.580  13.332  18.602  0.00  0.00    +0.000 A 
ATOM     32  C   UNL     1      -6.633  14.286  19.089  0.00  0.00    +0.000 A 
ATOM     33  C   UNL     1      -6.525  15.714  18.634  0.00  0.00    +0.000 C 
ENDBRANCH  27  28
ENDBRANCH  25  27
ENDBRANCH   2  25
TORSDOF 7
ENDMDL
MODEL 8
REMARK VINA RESULT:      -6.1      2.287      4.474
REMARK  Name = 
REMARK  10 active torsions:
REMARK  status: ('A' for Active; 'I' for Inactive)
REMARK    1  A    between atoms: C_1  and  O_2
REMARK    2  A    between atoms: O_2  and  C_3
REMARK    3  A    between atoms: C_6  and  N_7
REMARK    4  A    between atoms: C_8  and  C_10
REMARK    5  A    between atoms: C_11  and  N_12
REMARK    6  A    between atoms: N_12  and  C_13
REMARK    7  A    between atoms: C_13  and  C_14
REMARK    8  A    between atoms: C_18  and  C_19
REMARK    9  A    between atoms: C_28  and  O_29
REMARK   10  A    between atoms: O_29  and  C_30
REMARK                            x       y       z     vdW  Elec       q    Type
REMARK                         _______ _______ _______ _____ _____    ______ ____
ROOT
ATOM      1  C   UNL     1      -1.065  11.345  19.481  0.00  0.00    +0.000 A 
ATOM      2  C   UNL     1      -1.423  11.659  20.790  0.00  0.00    +0.000 A 
ATOM      3  S   UNL     1      -0.513  10.739  21.910  0.00  0.00    +0.000 S 
ATOM      4  C   UNL     1       0.330   9.908  20.687  0.00  0.00    +0.000 A 
ATOM      5  C   UNL     1      -0.157  10.207  19.424  0.00  0.00    +0.000 A 
ATOM      6  C   UNL     1       0.292   9.538  18.146  0.00  0.00    +0.000 C 
ATOM      7  C   UNL     1       1.791   9.266  18.079  0.00  0.00    +0.000 C 
ATOM      8  C   UNL     1       2.251   8.027  18.852  0.00  0.00    +0.000 C 
ATOM      9  C   UNL     1       1.590   7.776  20.208  0.00  0.00    +0.000 C 
ATOM     10  C   UNL     1       1.479   9.020  21.080  0.00  0.00    +0.000 C 
ENDROOT
BRANCH   1  12
ATOM     11  N   UNL     1      -0.678  13.171  17.835  0.00  0.00    +0.000 N 
ATOM     12  C   UNL     1      -1.460  12.119  18.299  0.00  0.00    +0.000 C 
ATOM     13  O   UNL     1      -2.509  11.870  17.693  0.00  0.00    +0.000 OA
ATOM     14  H   UNL     1      -1.176  13.768  17.184  0.00  0.00    +0.000 HD
BRANCH  11  18
ATOM     15  C   UNL     1       2.670  14.443  19.997  0.00  0.00    +0.000 A 
ATOM     16  C   UNL     1       2.806  13.443  19.044  0.00  0.00    +0.000 A 
ATOM     17  C   UNL     1       1.761  13.153  18.176  0.00  0.00    +0.000 A 
ATOM     18  C   UNL     1       0.513  13.733  18.366  0.00  0.00    +0.000 A 
ATOM     19  C   UNL     1       0.398  14.839  19.233  0.00  0.00    +0.000 A 
ATOM     20  C   UNL     1       1.489  15.189  20.047  0.00  0.00    +0.000 A 
BRANCH  15  22
ATOM     21  C   UNL     1       4.932  15.120  20.247  0.00  0.00    +0.000 C 
ATOM     22  O   UNL     1       3.754  14.574  20.817  0.00  0.00    +0.000 OA
ENDBRANCH  15  22
BRANCH  19  23
ATOM     23  O   UNL     1      -0.834  15.451  19.260  0.00  0.00    +0.000 OA
ATOM     24  C   UNL     1      -1.224  16.066  20.482  0.00  0.00    +0.000 C 
ENDBRANCH  19  23
ENDBRANCH  11  18
ENDBRANCH   1  12
BRANCH   2  25
ATOM     25  N   UNL     1      -2.221  12.631  21.295  0.00  0.00    +0.000 N 
ATOM     26  H   UNL     1      -2.164  13.565  20.900  0.00  0.00    +0.000 HD
BRANCH  25  27
ATOM     27  C   UNL     1      -3.099  12.514  22.436  0.00  0.00    +0.000 C 
BRANCH  27  28
ATOM     28  C   UNL     1      -2.957  13.701  23.340  0.00  0.00    +0.000 A 
ATOM     29  S   UNL     1      -1.407  14.247  23.809  0.00  0.00    +0.000 S 
ATOM     30  C   UNL     1      -2.078  15.423  24.847  0.00  0.00    +0.000 A 
ATOM     31  C   UNL     1      -3.454  15.415  24.816  0.00  0.00    +0.000 A 
ATOM     32  C   UNL     1      -3.981  14.415  23.940  0.00  0.00    +0.000 A 
ATOM     33  C   UNL     1      -5.440  14.132  23.721  0.00  0.00    +0.000 C 
ENDBRANCH  27  28
ENDBRANCH  25  27
ENDBRANCH   2  25
TORSDOF 7
ENDMDL
MODEL 9
REMARK VINA RESULT:      -6.1      2.576      4.710
REMARK  Name = 
REMARK  10 active torsions:
REMARK  status: ('A' for Active; 'I' for Inactive)
REMARK    1  A    between atoms: C_1  and  O_2
REMARK    2  A    between atoms: O_2  and  C_3
REMARK    3  A    between atoms: C_6  and  N_7
REMARK    4  A    between atoms: C_8  and  C_10
REMARK    5  A    between atoms: C_11  and  N_12
REMARK    6  A    between atoms: N_12  and  C_13
REMARK    7  A    between atoms: C_13  and  C_14
REMARK    8  A    between atoms: C_18  and  C_19
REMARK    9  A    between atoms: C_28  and  O_29
REMARK   10  A    between atoms: O_29  and  C_30
REMARK                            x       y       z     vdW  Elec       q    Type
REMARK                         _______ _______ _______ _____ _____    ______ ____
ROOT
ATOM      1  C   UNL     1      -0.659  11.249  19.453  0.00  0.00    +0.000 A 
ATOM      2  C   UNL     1      -1.109  11.438  20.758  0.00  0.00    +0.000 A 
ATOM      3  S   UNL     1      -0.377  10.318  21.824  0.00  0.00    +0.000 S 
ATOM      4  C   UNL     1       0.506   9.564  20.580  0.00  0.00    +0.000 A 
ATOM      5  C   UNL     1       0.160  10.050  19.329  0.00  0.00    +0.000 A 
ATOM      6  C   UNL     1       0.670   9.499  18.017  0.00  0.00    +0.000 C 
ATOM      7  C   UNL     1       2.143   9.107  18.038  0.00  0.00    +0.000 C 
ATOM      8  C   UNL     1       2.435   7.751  18.686  0.00  0.00    +0.000 C 
ATOM      9  C   UNL     1       1.636   7.402  19.943  0.00  0.00    +0.000 C 
ATOM     10  C   UNL     1       1.542   8.540  20.951  0.00  0.00    +0.000 C 
ENDROOT
BRANCH   1  12
ATOM     11  N   UNL     1      -0.170  13.378  18.259  0.00  0.00    +0.000 N 
ATOM     12  C   UNL     1      -0.885  12.187  18.347  0.00  0.00    +0.000 C 
ATOM     13  O   UNL     1      -1.730  11.957  17.475  0.00  0.00    +0.000 OA
ATOM     14  H   UNL     1      -0.589  14.034  17.609  0.00  0.00    +0.000 HD
BRANCH  11  18
ATOM     15  C   UNL     1       2.354  14.599  21.363  0.00  0.00    +0.000 A 
ATOM     16  C   UNL     1       2.817  13.696  20.416  0.00  0.00    +0.000 A 
ATOM     17  C   UNL     1       2.074  13.438  19.269  0.00  0.00    +0.000 A 
ATOM     18  C   UNL     1       0.786  13.942  19.143  0.00  0.00    +0.000 A 
ATOM     19  C   UNL     1       0.361  14.959  20.023  0.00  0.00    +0.000 A 
ATOM     20  C   UNL     1       1.157  15.283  21.134  0.00  0.00    +0.000 A 
BRANCH  15  22
ATOM     21  C   UNL     1       4.558  14.698  22.241  0.00  0.00    +0.000 C 
ATOM     22  O   UNL     1       3.157  14.704  22.462  0.00  0.00    +0.000 OA
ENDBRANCH  15  22
BRANCH  19  23
ATOM     23  O   UNL     1      -0.870  15.510  19.747  0.00  0.00    +0.000 OA
ATOM     24  C   UNL     1      -0.996  16.920  19.896  0.00  0.00    +0.000 C 
ENDBRANCH  19  23
ENDBRANCH  11  18
ENDBRANCH   1  12
BRANCH   2  25
ATOM     25  N   UNL     1      -1.872  12.410  21.314  0.00  0.00    +0.000 N 
ATOM     26  H   UNL     1      -1.484  12.963  22.073  0.00  0.00    +0.000 HD
BRANCH  25  27
ATOM     27  C   UNL     1      -3.255  12.695  21.011  0.00  0.00    +0.000 C 
BRANCH  27  28
ATOM     28  C   UNL     1      -4.072  12.759  22.265  0.00  0.00    +0.000 A 
ATOM     29  S   UNL     1      -3.350  12.440  23.781  0.00  0.00    +0.000 S 
ATOM     30  C   UNL     1      -4.851  12.567  24.582  0.00  0.00    +0.000 A 
ATOM     31  C   UNL     1      -5.875  12.871  23.713  0.00  0.00    +0.000 A 
ATOM     32  C   UNL     1      -5.435  12.987  22.358  0.00  0.00    +0.000 A 
ATOM     33  C   UNL     1      -6.320  13.270  21.177  0.00  0.00    +0.000 C 
ENDBRANCH  27  28
ENDBRANCH  25  27
ENDBRANCH   2  25
TORSDOF 7
ENDMDL
