MODEL 1
REMARK VINA RESULT:      -6.6      0.000      0.000
REMARK  Name = 
REMARK  7 active torsions:
REMARK  status: ('A' for Active; 'I' for Inactive)
REMARK    1  A    between atoms: C_2  and  C_3
REMARK    2  A    between atoms: C_3  and  C_4
REMARK    3  A    between atoms: C_4  and  C_5
REMARK    4  A    between atoms: C_5  and  O_6
REMARK    5  A    between atoms: O_6  and  C_7
REMARK    6  A    between atoms: C_12  and  S_13
REMARK    7  A    between atoms: S_13  and  C_14
REMARK                            x       y       z     vdW  Elec       q    Type
REMARK                         _______ _______ _______ _____ _____    ______ ____
ROOT
ATOM      1  C   UNL     1       3.611   4.285  17.545  0.00  0.00    +0.000 A 
ATOM      2  C   UNL     1       4.434   3.855  16.497  0.00  0.00    +0.000 A 
ATOM      3  C   UNL     1       5.731   4.343  16.376  0.00  0.00    +0.000 A 
ATOM      4  C   UNL     1       6.179   5.254  17.310  0.00  0.00    +0.000 A 
ATOM      5  N   UNL     1       5.429   5.692  18.342  0.00  0.00    +0.000 NA
ATOM      6  C   UNL     1       4.161   5.206  18.453  0.00  0.00    +0.000 A 
ENDROOT
BRANCH   1   7
ATOM      7  O   UNL     1       2.318   3.849  17.726  0.00  0.00    +0.000 OA
BRANCH   7   8
ATOM      8  C   UNL     1       2.165   2.472  18.081  0.00  0.00    +0.000 C 
BRANCH   8   9
ATOM      9  C   UNL     1       0.848   2.248  18.822  0.00  0.00    +0.000 C 
BRANCH   9  10
ATOM     10  C   UNL     1       0.629   3.207  19.992  0.00  0.00    +0.000 C 
BRANCH  10  12
ATOM     11  N   UNL     1       2.138   2.597  22.053  0.00  0.00    +0.000 NA
ATOM     12  C   UNL     1       1.462   2.857  21.152  0.00  0.00    +0.000 C 
ENDBRANCH  10  12
ENDBRANCH   9  10
ENDBRANCH   8   9
ENDBRANCH   7   8
ENDBRANCH   1   7
BRANCH   6  13
ATOM     13  S   UNL     1       3.295   5.744  19.919  0.00  0.00    +0.000 S 
BRANCH  13  14
ATOM     14  C   UNL     1       2.468   7.221  19.361  0.00  0.00    +0.000 A 
ATOM     15  C   UNL     1       2.588   7.716  18.058  0.00  0.00    +0.000 A 
ATOM     16  C   UNL     1       1.944   8.902  17.688  0.00  0.00    +0.000 A 
ATOM     17  C   UNL     1       1.181   9.606  18.621  0.00  0.00    +0.000 A 
ATOM     18  C   UNL     1       1.079   9.126  19.924  0.00  0.00    +0.000 A 
ATOM     19 BR   UNL     1       0.065  10.080  21.203  0.00  0.00    +0.000 Br
ATOM     20  C   UNL     1       1.722   7.947  20.299  0.00  0.00    +0.000 A 
ENDBRANCH  13  14
ENDBRANCH   6  13
TORSDOF 7
ENDMDL
MODEL 2
REMARK VINA RESULT:      -6.4      2.830      5.477
REMARK  Name = 
REMARK  7 active torsions:
REMARK  status: ('A' for Active; 'I' for Inactive)
REMARK    1  A    between atoms: C_2  and  C_3
REMARK    2  A    between atoms: C_3  and  C_4
REMARK    3  A    between atoms: C_4  and  C_5
REMARK    4  A    between atoms: C_5  and  O_6
REMARK    5  A    between atoms: O_6  and  C_7
REMARK    6  A    between atoms: C_12  and  S_13
REMARK    7  A    between atoms: S_13  and  C_14
REMARK                            x       y       z     vdW  Elec       q    Type
REMARK                         _______ _______ _______ _____ _____    ______ ____
ROOT
ATOM      1  C   UNL     1       2.399   4.161  19.845  0.00  0.00    +0.000 A 
ATOM      2  C   UNL     1       1.032   3.863  19.849  0.00  0.00    +0.000 A 
ATOM      3  C   UNL     1       0.575   2.653  19.337  0.00  0.00    +0.000 A 
ATOM      4  C   UNL     1       1.499   1.764  18.831  0.00  0.00    +0.000 A 
ATOM      5  N   UNL     1       2.827   1.999  18.814  0.00  0.00    +0.000 NA
ATOM      6  C   UNL     1       3.264   3.186  19.320  0.00  0.00    +0.000 A 
ENDROOT
BRANCH   1   7
ATOM      7  O   UNL     1       2.923   5.337  20.331  0.00  0.00    +0.000 OA
BRANCH   7   8
ATOM      8  C   UNL     1       2.305   6.539  19.863  0.00  0.00    +0.000 C 
BRANCH   8   9
ATOM      9  C   UNL     1       2.366   6.620  18.338  0.00  0.00    +0.000 C 
BRANCH   9  10
ATOM     10  C   UNL     1       3.119   7.843  17.817  0.00  0.00    +0.000 C 
BRANCH  10  12
ATOM     11  N   UNL     1       1.586   9.972  17.688  0.00  0.00    +0.000 NA
ATOM     12  C   UNL     1       2.260   9.035  17.760  0.00  0.00    +0.000 C 
ENDBRANCH  10  12
ENDBRANCH   9  10
ENDBRANCH   8   9
ENDBRANCH   7   8
ENDBRANCH   1   7
BRANCH   6  13
ATOM     13  S   UNL     1       5.042   3.352  19.372  0.00  0.00    +0.000 S 
BRANCH  13  14
ATOM     14  C   UNL     1       5.363   4.503  18.050  0.00  0.00    +0.000 A 
ATOM     15  C   UNL     1       4.835   4.355  16.764  0.00  0.00    +0.000 A 
ATOM     16  C   UNL     1       5.152   5.273  15.756  0.00  0.00    +0.000 A 
ATOM     17  C   UNL     1       6.007   6.342  16.026  0.00  0.00    +0.000 A 
ATOM     18  C   UNL     1       6.551   6.478  17.300  0.00  0.00    +0.000 A 
ATOM     19 BR   UNL     1       7.727   7.911  17.674  0.00  0.00    +0.000 Br
ATOM     20  C   UNL     1       6.241   5.565  18.306  0.00  0.00    +0.000 A 
ENDBRANCH  13  14
ENDBRANCH   6  13
TORSDOF 7
ENDMDL
MODEL 3
REMARK VINA RESULT:      -6.4      1.498      4.408
REMARK  Name = 
REMARK  7 active torsions:
REMARK  status: ('A' for Active; 'I' for Inactive)
REMARK    1  A    between atoms: C_2  and  C_3
REMARK    2  A    between atoms: C_3  and  C_4
REMARK    3  A    between atoms: C_4  and  C_5
REMARK    4  A    between atoms: C_5  and  O_6
REMARK    5  A    between atoms: O_6  and  C_7
REMARK    6  A    between atoms: C_12  and  S_13
REMARK    7  A    between atoms: S_13  and  C_14
REMARK                            x       y       z     vdW  Elec       q    Type
REMARK                         _______ _______ _______ _____ _____    ______ ____
ROOT
ATOM      1  C   UNL     1       2.358   3.804  18.317  0.00  0.00    +0.000 A 
ATOM      2  C   UNL     1       1.383   2.803  18.399  0.00  0.00    +0.000 A 
ATOM      3  C   UNL     1       0.717   2.568  19.597  0.00  0.00    +0.000 A 
ATOM      4  C   UNL     1       1.040   3.343  20.690  0.00  0.00    +0.000 A 
ATOM      5  N   UNL     1       1.963   4.326  20.660  0.00  0.00    +0.000 NA
ATOM      6  C   UNL     1       2.608   4.549  19.482  0.00  0.00    +0.000 A 
ENDROOT
BRANCH   1   7
ATOM      7  O   UNL     1       3.060   4.091  17.168  0.00  0.00    +0.000 OA
BRANCH   7   8
ATOM      8  C   UNL     1       4.239   3.314  16.944  0.00  0.00    +0.000 C 
BRANCH   8   9
ATOM      9  C   UNL     1       5.386   4.199  16.458  0.00  0.00    +0.000 C 
BRANCH   9  10
ATOM     10  C   UNL     1       5.912   3.819  15.075  0.00  0.00    +0.000 C 
BRANCH  10  12
ATOM     11  N   UNL     1       7.737   5.498  14.206  0.00  0.00    +0.000 NA
ATOM     12  C   UNL     1       6.942   4.757  14.601  0.00  0.00    +0.000 C 
ENDBRANCH  10  12
ENDBRANCH   9  10
ENDBRANCH   8   9
ENDBRANCH   7   8
ENDBRANCH   1   7
BRANCH   6  13
ATOM     13  S   UNL     1       3.715   5.951  19.506  0.00  0.00    +0.000 S 
BRANCH  13  14
ATOM     14  C   UNL     1       2.615   7.320  19.209  0.00  0.00    +0.000 A 
ATOM     15  C   UNL     1       2.487   7.939  17.961  0.00  0.00    +0.000 A 
ATOM     16  C   UNL     1       1.632   9.035  17.797  0.00  0.00    +0.000 A 
ATOM     17  C   UNL     1       0.905   9.525  18.882  0.00  0.00    +0.000 A 
ATOM     18  C   UNL     1       1.048   8.924  20.130  0.00  0.00    +0.000 A 
ATOM     19 BR   UNL     1       0.083   9.590  21.613  0.00  0.00    +0.000 Br
ATOM     20  C   UNL     1       1.901   7.835  20.299  0.00  0.00    +0.000 A 
ENDBRANCH  13  14
ENDBRANCH   6  13
TORSDOF 7
ENDMDL
MODEL 4
REMARK VINA RESULT:      -6.4      1.104      3.970
REMARK  Name = 
REMARK  7 active torsions:
REMARK  status: ('A' for Active; 'I' for Inactive)
REMARK    1  A    between atoms: C_2  and  C_3
REMARK    2  A    between atoms: C_3  and  C_4
REMARK    3  A    between atoms: C_4  and  C_5
REMARK    4  A    between atoms: C_5  and  O_6
REMARK    5  A    between atoms: O_6  and  C_7
REMARK    6  A    between atoms: C_12  and  S_13
REMARK    7  A    between atoms: S_13  and  C_14
REMARK                            x       y       z     vdW  Elec       q    Type
REMARK                         _______ _______ _______ _____ _____    ______ ____
ROOT
ATOM      1  C   UNL     1       2.342   3.722  18.273  0.00  0.00    +0.000 A 
ATOM      2  C   UNL     1       1.351   2.739  18.379  0.00  0.00    +0.000 A 
ATOM      3  C   UNL     1       0.768   2.459  19.611  0.00  0.00    +0.000 A 
ATOM      4  C   UNL     1       1.190   3.173  20.713  0.00  0.00    +0.000 A 
ATOM      5  N   UNL     1       2.133   4.135  20.661  0.00  0.00    +0.000 NA
ATOM      6  C   UNL     1       2.696   4.403  19.450  0.00  0.00    +0.000 A 
ENDROOT
BRANCH   1   7
ATOM      7  O   UNL     1       2.966   4.050  17.090  0.00  0.00    +0.000 OA
BRANCH   7   8
ATOM      8  C   UNL     1       4.327   3.632  16.963  0.00  0.00    +0.000 C 
BRANCH   8   9
ATOM      9  C   UNL     1       5.094   4.566  16.027  0.00  0.00    +0.000 C 
BRANCH   9  10
ATOM     10  C   UNL     1       6.590   4.263  15.947  0.00  0.00    +0.000 C 
BRANCH  10  12
ATOM     11  N   UNL     1       7.783   4.681  18.249  0.00  0.00    +0.000 NA
ATOM     12  C   UNL     1       7.266   4.484  17.234  0.00  0.00    +0.000 C 
ENDBRANCH  10  12
ENDBRANCH   9  10
ENDBRANCH   8   9
ENDBRANCH   7   8
ENDBRANCH   1   7
BRANCH   6  13
ATOM     13  S   UNL     1       3.837   5.777  19.459  0.00  0.00    +0.000 S 
BRANCH  13  14
ATOM     14  C   UNL     1       2.767   7.172  19.170  0.00  0.00    +0.000 A 
ATOM     15  C   UNL     1       2.742   7.878  17.962  0.00  0.00    +0.000 A 
ATOM     16  C   UNL     1       1.906   8.989  17.807  0.00  0.00    +0.000 A 
ATOM     17  C   UNL     1       1.094   9.407  18.860  0.00  0.00    +0.000 A 
ATOM     18  C   UNL     1       1.133   8.719  20.070  0.00  0.00    +0.000 A 
ATOM     19 BR   UNL     1       0.051   9.288  21.513  0.00  0.00    +0.000 Br
ATOM     20  C   UNL     1       1.967   7.614  20.232  0.00  0.00    +0.000 A 
ENDBRANCH  13  14
ENDBRANCH   6  13
TORSDOF 7
ENDMDL
MODEL 5
REMARK VINA RESULT:      -6.2      1.753      4.170
REMARK  Name = 
REMARK  7 active torsions:
REMARK  status: ('A' for Active; 'I' for Inactive)
REMARK    1  A    between atoms: C_2  and  C_3
REMARK    2  A    between atoms: C_3  and  C_4
REMARK    3  A    between atoms: C_4  and  C_5
REMARK    4  A    between atoms: C_5  and  O_6
REMARK    5  A    between atoms: O_6  and  C_7
REMARK    6  A    between atoms: C_12  and  S_13
REMARK    7  A    between atoms: S_13  and  C_14
REMARK                            x       y       z     vdW  Elec       q    Type
REMARK                         _______ _______ _______ _____ _____    ______ ____
ROOT
ATOM      1  C   UNL     1       3.689   3.784  19.063  0.00  0.00    +0.000 A 
ATOM      2  C   UNL     1       3.615   2.821  18.050  0.00  0.00    +0.000 A 
ATOM      3  C   UNL     1       2.389   2.264  17.699  0.00  0.00    +0.000 A 
ATOM      4  C   UNL     1       1.261   2.684  18.372  0.00  0.00    +0.000 A 
ATOM      5  N   UNL     1       1.279   3.615  19.347  0.00  0.00    +0.000 NA
ATOM      6  C   UNL     1       2.483   4.156  19.682  0.00  0.00    +0.000 A 
ENDROOT
BRANCH   1   7
ATOM      7  O   UNL     1       4.865   4.377  19.466  0.00  0.00    +0.000 OA
BRANCH   7   8
ATOM      8  C   UNL     1       5.842   4.588  18.443  0.00  0.00    +0.000 C 
BRANCH   8   9
ATOM      9  C   UNL     1       5.645   5.952  17.782  0.00  0.00    +0.000 C 
BRANCH   9  10
ATOM     10  C   UNL     1       5.358   5.872  16.283  0.00  0.00    +0.000 C 
BRANCH  10  12
ATOM     11  N   UNL     1       7.485   5.116  14.939  0.00  0.00    +0.000 NA
ATOM     12  C   UNL     1       6.540   5.446  15.518  0.00  0.00    +0.000 C 
ENDBRANCH  10  12
ENDBRANCH   9  10
ENDBRANCH   8   9
ENDBRANCH   7   8
ENDBRANCH   1   7
BRANCH   6  13
ATOM     13  S   UNL     1       2.388   5.468  20.889  0.00  0.00    +0.000 S 
BRANCH  13  14
ATOM     14  C   UNL     1       2.072   6.903  19.880  0.00  0.00    +0.000 A 
ATOM     15  C   UNL     1       2.440   6.983  18.532  0.00  0.00    +0.000 A 
ATOM     16  C   UNL     1       2.198   8.151  17.799  0.00  0.00    +0.000 A 
ATOM     17  C   UNL     1       1.593   9.249  18.411  0.00  0.00    +0.000 A 
ATOM     18  C   UNL     1       1.247   9.178  19.758  0.00  0.00    +0.000 A 
ATOM     19 BR   UNL     1       0.445  10.667  20.604  0.00  0.00    +0.000 Br
ATOM     20  C   UNL     1       1.490   8.019  20.493  0.00  0.00    +0.000 A 
ENDBRANCH  13  14
ENDBRANCH   6  13
TORSDOF 7
ENDMDL
MODEL 6
REMARK VINA RESULT:      -6.2      2.749      5.431
REMARK  Name = 
REMARK  7 active torsions:
REMARK  status: ('A' for Active; 'I' for Inactive)
REMARK    1  A    between atoms: C_2  and  C_3
REMARK    2  A    between atoms: C_3  and  C_4
REMARK    3  A    between atoms: C_4  and  C_5
REMARK    4  A    between atoms: C_5  and  O_6
REMARK    5  A    between atoms: O_6  and  C_7
REMARK    6  A    between atoms: C_12  and  S_13
REMARK    7  A    between atoms: S_13  and  C_14
REMARK                            x       y       z     vdW  Elec       q    Type
REMARK                         _______ _______ _______ _____ _____    ______ ____
ROOT
ATOM      1  C   UNL     1       5.710   5.292  17.331  0.00  0.00    +0.000 A 
ATOM      2  C   UNL     1       6.615   6.345  17.155  0.00  0.00    +0.000 A 
ATOM      3  C   UNL     1       7.550   6.641  18.142  0.00  0.00    +0.000 A 
ATOM      4  C   UNL     1       7.559   5.874  19.288  0.00  0.00    +0.000 A 
ATOM      5  N   UNL     1       6.715   4.844  19.501  0.00  0.00    +0.000 NA
ATOM      6  C   UNL     1       5.806   4.561  18.527  0.00  0.00    +0.000 A 
ENDROOT
BRANCH   1   7
ATOM      7  O   UNL     1       4.758   4.943  16.401  0.00  0.00    +0.000 OA
BRANCH   7   8
ATOM      8  C   UNL     1       5.157   5.034  15.031  0.00  0.00    +0.000 C 
BRANCH   8   9
ATOM      9  C   UNL     1       6.103   3.890  14.667  0.00  0.00    +0.000 C 
BRANCH   9  10
ATOM     10  C   UNL     1       6.694   4.004  13.262  0.00  0.00    +0.000 C 
BRANCH  10  12
ATOM     11  N   UNL     1       8.554   5.856  13.147  0.00  0.00    +0.000 NA
ATOM     12  C   UNL     1       7.730   5.046  13.185  0.00  0.00    +0.000 C 
ENDBRANCH  10  12
ENDBRANCH   9  10
ENDBRANCH   8   9
ENDBRANCH   7   8
ENDBRANCH   1   7
BRANCH   6  13
ATOM     13  S   UNL     1       4.822   3.104  18.843  0.00  0.00    +0.000 S 
BRANCH  13  14
ATOM     14  C   UNL     1       3.347   3.783  19.577  0.00  0.00    +0.000 A 
ATOM     15  C   UNL     1       2.308   2.990  20.075  0.00  0.00    +0.000 A 
ATOM     16  C   UNL     1       1.157   3.581  20.608  0.00  0.00    +0.000 A 
ATOM     17  C   UNL     1       1.033   4.970  20.639  0.00  0.00    +0.000 A 
ATOM     18  C   UNL     1       2.056   5.760  20.123  0.00  0.00    +0.000 A 
ATOM     19 BR   UNL     1       1.892   7.644  20.141  0.00  0.00    +0.000 Br
ATOM     20  C   UNL     1       3.203   5.176  19.588  0.00  0.00    +0.000 A 
ENDBRANCH  13  14
ENDBRANCH   6  13
TORSDOF 7
ENDMDL
MODEL 7
REMARK VINA RESULT:      -6.2      3.229      5.695
REMARK  Name = 
REMARK  7 active torsions:
REMARK  status: ('A' for Active; 'I' for Inactive)
REMARK    1  A    between atoms: C_2  and  C_3
REMARK    2  A    between atoms: C_3  and  C_4
REMARK    3  A    between atoms: C_4  and  C_5
REMARK    4  A    between atoms: C_5  and  O_6
REMARK    5  A    between atoms: O_6  and  C_7
REMARK    6  A    between atoms: C_12  and  S_13
REMARK    7  A    between atoms: S_13  and  C_14
REMARK                            x       y       z     vdW  Elec       q    Type
REMARK                         _______ _______ _______ _____ _____    ______ ____
ROOT
ATOM      1  C   UNL     1       2.252   4.358  19.906  0.00  0.00    +0.000 A 
ATOM      2  C   UNL     1       0.939   3.878  19.953  0.00  0.00    +0.000 A 
ATOM      3  C   UNL     1       0.612   2.664  19.356  0.00  0.00    +0.000 A 
ATOM      4  C   UNL     1       1.612   1.954  18.725  0.00  0.00    +0.000 A 
ATOM      5  N   UNL     1       2.894   2.368  18.662  0.00  0.00    +0.000 NA
ATOM      6  C   UNL     1       3.203   3.557  19.250  0.00  0.00    +0.000 A 
ENDROOT
BRANCH   1   7
ATOM      7  O   UNL     1       2.648   5.550  20.470  0.00  0.00    +0.000 OA
BRANCH   7   8
ATOM      8  C   UNL     1       2.261   6.734  19.767  0.00  0.00    +0.000 C 
BRANCH   8   9
ATOM      9  C   UNL     1       1.468   7.669  20.680  0.00  0.00    +0.000 C 
BRANCH   9  10
ATOM     10  C   UNL     1       1.163   9.028  20.051  0.00  0.00    +0.000 C 
BRANCH  10  12
ATOM     11  N   UNL     1       2.012   9.147  17.568  0.00  0.00    +0.000 NA
ATOM     12  C   UNL     1       1.635   9.110  18.661  0.00  0.00    +0.000 C 
ENDBRANCH  10  12
ENDBRANCH   9  10
ENDBRANCH   8   9
ENDBRANCH   7   8
ENDBRANCH   1   7
BRANCH   6  13
ATOM     13  S   UNL     1       4.943   3.957  19.226  0.00  0.00    +0.000 S 
BRANCH  13  14
ATOM     14  C   UNL     1       5.111   4.869  17.704  0.00  0.00    +0.000 A 
ATOM     15  C   UNL     1       4.864   6.243  17.607  0.00  0.00    +0.000 A 
ATOM     16  C   UNL     1       4.977   6.899  16.376  0.00  0.00    +0.000 A 
ATOM     17  C   UNL     1       5.329   6.184  15.232  0.00  0.00    +0.000 A 
ATOM     18  C   UNL     1       5.553   4.813  15.322  0.00  0.00    +0.000 A 
ATOM     19 BR   UNL     1       6.012   3.829  13.774  0.00  0.00    +0.000 Br
ATOM     20  C   UNL     1       5.438   4.154  16.545  0.00  0.00    +0.000 A 
ENDBRANCH  13  14
ENDBRANCH   6  13
TORSDOF 7
ENDMDL
MODEL 8
REMARK VINA RESULT:      -6.2      2.525      4.707
REMARK  Name = 
REMARK  7 active torsions:
REMARK  status: ('A' for Active; 'I' for Inactive)
REMARK    1  A    between atoms: C_2  and  C_3
REMARK    2  A    between atoms: C_3  and  C_4
REMARK    3  A    between atoms: C_4  and  C_5
REMARK    4  A    between atoms: C_5  and  O_6
REMARK    5  A    between atoms: O_6  and  C_7
REMARK    6  A    between atoms: C_12  and  S_13
REMARK    7  A    between atoms: S_13  and  C_14
REMARK                            x       y       z     vdW  Elec       q    Type
REMARK                         _______ _______ _______ _____ _____    ______ ____
ROOT
ATOM      1  C   UNL     1       5.805   4.594  17.434  0.00  0.00    +0.000 A 
ATOM      2  C   UNL     1       7.187   4.761  17.288  0.00  0.00    +0.000 A 
ATOM      3  C   UNL     1       7.946   5.285  18.330  0.00  0.00    +0.000 A 
ATOM      4  C   UNL     1       7.303   5.631  19.500  0.00  0.00    +0.000 A 
ATOM      5  N   UNL     1       5.977   5.480  19.694  0.00  0.00    +0.000 NA
ATOM      6  C   UNL     1       5.243   4.965  18.668  0.00  0.00    +0.000 A 
ENDROOT
BRANCH   1   7
ATOM      7  O   UNL     1       4.991   4.086  16.447  0.00  0.00    +0.000 OA
BRANCH   7   8
ATOM      8  C   UNL     1       5.655   3.428  15.365  0.00  0.00    +0.000 C 
BRANCH   8   9
ATOM      9  C   UNL     1       5.521   4.237  14.076  0.00  0.00    +0.000 C 
BRANCH   9  10
ATOM     10  C   UNL     1       6.639   3.977  13.068  0.00  0.00    +0.000 C 
BRANCH  10  12
ATOM     11  N   UNL     1       8.475   5.852  13.168  0.00  0.00    +0.000 NA
ATOM     12  C   UNL     1       7.677   5.018  13.116  0.00  0.00    +0.000 C 
ENDBRANCH  10  12
ENDBRANCH   9  10
ENDBRANCH   8   9
ENDBRANCH   7   8
ENDBRANCH   1   7
BRANCH   6  13
ATOM     13  S   UNL     1       3.524   4.684  19.063  0.00  0.00    +0.000 S 
BRANCH  13  14
ATOM     14  C   UNL     1       2.826   6.319  18.943  0.00  0.00    +0.000 A 
ATOM     15  C   UNL     1       2.990   7.138  17.821  0.00  0.00    +0.000 A 
ATOM     16  C   UNL     1       2.449   8.428  17.798  0.00  0.00    +0.000 A 
ATOM     17  C   UNL     1       1.746   8.912  18.902  0.00  0.00    +0.000 A 
ATOM     18  C   UNL     1       1.601   8.107  20.028  0.00  0.00    +0.000 A 
ATOM     19 BR   UNL     1       0.668   8.758  21.538  0.00  0.00    +0.000 Br
ATOM     20  C   UNL     1       2.142   6.822  20.057  0.00  0.00    +0.000 A 
ENDBRANCH  13  14
ENDBRANCH   6  13
TORSDOF 7
ENDMDL
MODEL 9
REMARK VINA RESULT:      -6.2      2.885      5.361
REMARK  Name = 
REMARK  7 active torsions:
REMARK  status: ('A' for Active; 'I' for Inactive)
REMARK    1  A    between atoms: C_2  and  C_3
REMARK    2  A    between atoms: C_3  and  C_4
REMARK    3  A    between atoms: C_4  and  C_5
REMARK    4  A    between atoms: C_5  and  O_6
REMARK    5  A    between atoms: O_6  and  C_7
REMARK    6  A    between atoms: C_12  and  S_13
REMARK    7  A    between atoms: S_13  and  C_14
REMARK                            x       y       z     vdW  Elec       q    Type
REMARK                         _______ _______ _______ _____ _____    ______ ____
ROOT
ATOM      1  C   UNL     1       6.064   5.668  17.424  0.00  0.00    +0.000 A 
ATOM      2  C   UNL     1       7.073   6.638  17.409  0.00  0.00    +0.000 A 
ATOM      3  C   UNL     1       7.949   6.757  18.483  0.00  0.00    +0.000 A 
ATOM      4  C   UNL     1       7.796   5.899  19.552  0.00  0.00    +0.000 A 
ATOM      5  N   UNL     1       6.848   4.943  19.610  0.00  0.00    +0.000 NA
ATOM      6  C   UNL     1       5.996   4.833  18.552  0.00  0.00    +0.000 A 
ENDROOT
BRANCH   1   7
ATOM      7  O   UNL     1       5.160   5.494  16.400  0.00  0.00    +0.000 OA
BRANCH   7   8
ATOM      8  C   UNL     1       5.688   5.593  15.075  0.00  0.00    +0.000 C 
BRANCH   8   9
ATOM      9  C   UNL     1       5.414   4.313  14.287  0.00  0.00    +0.000 C 
BRANCH   9  10
ATOM     10  C   UNL     1       6.499   3.976  13.266  0.00  0.00    +0.000 C 
BRANCH  10  12
ATOM     11  N   UNL     1       5.677   2.209  11.504  0.00  0.00    +0.000 NA
ATOM     12  C   UNL     1       6.044   2.975  12.289  0.00  0.00    +0.000 C 
ENDBRANCH  10  12
ENDBRANCH   9  10
ENDBRANCH   8   9
ENDBRANCH   7   8
ENDBRANCH   1   7
BRANCH   6  13
ATOM     13  S   UNL     1       4.861   3.459  18.663  0.00  0.00    +0.000 S 
BRANCH  13  14
ATOM     14  C   UNL     1       3.466   4.176  19.511  0.00  0.00    +0.000 A 
ATOM     15  C   UNL     1       2.535   3.415  20.227  0.00  0.00    +0.000 A 
ATOM     16  C   UNL     1       1.439   4.030  20.842  0.00  0.00    +0.000 A 
ATOM     17  C   UNL     1       1.261   5.410  20.738  0.00  0.00    +0.000 A 
ATOM     18  C   UNL     1       2.174   6.165  20.007  0.00  0.00    +0.000 A 
ATOM     19 BR   UNL     1       1.933   8.033  19.842  0.00  0.00    +0.000 Br
ATOM     20  C   UNL     1       3.265   5.557  19.389  0.00  0.00    +0.000 A 
ENDBRANCH  13  14
ENDBRANCH   6  13
TORSDOF 7
ENDMDL
