MODEL 1
REMARK VINA RESULT:      -6.7      0.000      0.000
REMARK  Name = 
REMARK  5 active torsions:
REMARK  status: ('A' for Active; 'I' for Inactive)
REMARK    1  A    between atoms: C_1  and  N_2
REMARK    2  A    between atoms: N_5  and  C_6
REMARK    3  A    between atoms: C_6  and  C_7
REMARK    4  A    between atoms: C_7  and  C_9
REMARK    5  A    between atoms: C_12  and  C_13
REMARK                            x       y       z     vdW  Elec       q    Type
REMARK                         _______ _______ _______ _____ _____    ______ ____
ROOT
ATOM      1  C   UNL     1       5.662   5.202  17.633  0.00  0.00    +0.000 A 
ATOM      2  C   UNL     1       6.952   4.692  17.429  0.00  0.00    +0.000 A 
ATOM      3  C   UNL     1       7.475   4.568  16.138  0.00  0.00    +0.000 A 
ATOM      4  C   UNL     1       6.705   4.941  15.032  0.00  0.00    +0.000 A 
ATOM      5  C   UNL     1       5.405   5.431  15.242  0.00  0.00    +0.000 A 
ATOM      6  C   UNL     1       4.882   5.566  16.534  0.00  0.00    +0.000 A 
ENDROOT
BRANCH   4   7
ATOM      7  C   UNL     1       7.192   4.843  13.626  0.00  0.00    +0.000 C 
ATOM      8  N   UNL     1       8.195   5.675  13.217  0.00  0.00    +0.000 N 
ATOM      9  O   UNL     1       6.702   4.038  12.843  0.00  0.00    +0.000 OA
ATOM     10  H   UNL     1       8.649   6.376  13.781  0.00  0.00    +0.000 HD
ATOM     11  H   UNL     1       8.488   5.593  12.252  0.00  0.00    +0.000 HD
ENDBRANCH   4   7
BRANCH   1  12
ATOM     12  C   UNL     1       5.169   5.290  19.032  0.00  0.00    +0.000 C 
ATOM     13  O   UNL     1       5.871   4.810  19.922  0.00  0.00    +0.000 OA
BRANCH  12  14
ATOM     14  C   UNL     1       3.828   5.973  19.299  0.00  0.00    +0.000 C 
BRANCH  14  19
ATOM     15  C   UNL     1       0.671   2.219  18.780  0.00  0.00    +0.000 C 
ATOM     16  N   UNL     1       1.316   3.398  19.333  0.00  0.00    +0.000 N 
ATOM     17  C   UNL     1       1.175   3.854  20.628  0.00  0.00    +0.000 A 
ATOM     18  C   UNL     1       2.095   4.849  20.799  0.00  0.00    +0.000 A 
ATOM     19  N   UNL     1       2.739   5.018  19.577  0.00  0.00    +0.000 N 
ATOM     20  C   UNL     1       2.236   4.132  18.702  0.00  0.00    +0.000 A 
ENDBRANCH  14  19
ENDBRANCH  12  14
ENDBRANCH   1  12
TORSDOF 4
ENDMDL
MODEL 2
REMARK VINA RESULT:      -6.7      0.141      1.142
REMARK  Name = 
REMARK  5 active torsions:
REMARK  status: ('A' for Active; 'I' for Inactive)
REMARK    1  A    between atoms: C_1  and  N_2
REMARK    2  A    between atoms: N_5  and  C_6
REMARK    3  A    between atoms: C_6  and  C_7
REMARK    4  A    between atoms: C_7  and  C_9
REMARK    5  A    between atoms: C_12  and  C_13
REMARK                            x       y       z     vdW  Elec       q    Type
REMARK                         _______ _______ _______ _____ _____    ______ ____
ROOT
ATOM      1  C   UNL     1       5.692   5.179  17.613  0.00  0.00    +0.000 A 
ATOM      2  C   UNL     1       4.949   5.733  16.561  0.00  0.00    +0.000 A 
ATOM      3  C   UNL     1       5.401   5.637  15.241  0.00  0.00    +0.000 A 
ATOM      4  C   UNL     1       6.612   4.997  14.960  0.00  0.00    +0.000 A 
ATOM      5  C   UNL     1       7.362   4.463  16.021  0.00  0.00    +0.000 A 
ATOM      6  C   UNL     1       6.908   4.548  17.343  0.00  0.00    +0.000 A 
ENDROOT
BRANCH   4   7
ATOM      7  C   UNL     1       7.158   4.851  13.580  0.00  0.00    +0.000 C 
ATOM      8  N   UNL     1       8.178   5.669  13.185  0.00  0.00    +0.000 N 
ATOM      9  O   UNL     1       6.702   4.018  12.805  0.00  0.00    +0.000 OA
ATOM     10  H   UNL     1       8.608   6.390  13.743  0.00  0.00    +0.000 HD
ATOM     11  H   UNL     1       8.511   5.554  12.237  0.00  0.00    +0.000 HD
ENDBRANCH   4   7
BRANCH   1  12
ATOM     12  C   UNL     1       5.157   5.333  18.991  0.00  0.00    +0.000 C 
ATOM     13  O   UNL     1       5.826   4.888  19.923  0.00  0.00    +0.000 OA
BRANCH  12  14
ATOM     14  C   UNL     1       3.815   6.039  19.186  0.00  0.00    +0.000 C 
BRANCH  14  19
ATOM     15  C   UNL     1       0.703   2.232  18.799  0.00  0.00    +0.000 C 
ATOM     16  N   UNL     1       1.307   3.461  19.282  0.00  0.00    +0.000 N 
ATOM     17  C   UNL     1       1.074   4.037  20.516  0.00  0.00    +0.000 A 
ATOM     18  C   UNL     1       1.979   5.050  20.657  0.00  0.00    +0.000 A 
ATOM     19  N   UNL     1       2.709   5.107  19.473  0.00  0.00    +0.000 N 
ATOM     20  C   UNL     1       2.270   4.140  18.653  0.00  0.00    +0.000 A 
ENDBRANCH  14  19
ENDBRANCH  12  14
ENDBRANCH   1  12
TORSDOF 4
ENDMDL
MODEL 3
REMARK VINA RESULT:      -6.6      1.215      1.756
REMARK  Name = 
REMARK  5 active torsions:
REMARK  status: ('A' for Active; 'I' for Inactive)
REMARK    1  A    between atoms: C_1  and  N_2
REMARK    2  A    between atoms: N_5  and  C_6
REMARK    3  A    between atoms: C_6  and  C_7
REMARK    4  A    between atoms: C_7  and  C_9
REMARK    5  A    between atoms: C_12  and  C_13
REMARK                            x       y       z     vdW  Elec       q    Type
REMARK                         _______ _______ _______ _____ _____    ______ ____
ROOT
ATOM      1  C   UNL     1       6.095   5.177  17.701  0.00  0.00    +0.000 A 
ATOM      2  C   UNL     1       5.230   5.737  16.752  0.00  0.00    +0.000 A 
ATOM      3  C   UNL     1       5.476   5.583  15.383  0.00  0.00    +0.000 A 
ATOM      4  C   UNL     1       6.602   4.877  14.949  0.00  0.00    +0.000 A 
ATOM      5  C   UNL     1       7.477   4.337  15.906  0.00  0.00    +0.000 A 
ATOM      6  C   UNL     1       7.229   4.480  17.277  0.00  0.00    +0.000 A 
ENDROOT
BRANCH   4   7
ATOM      7  C   UNL     1       6.931   4.667  13.510  0.00  0.00    +0.000 C 
ATOM      8  N   UNL     1       6.381   3.600  12.858  0.00  0.00    +0.000 N 
ATOM      9  O   UNL     1       7.684   5.430  12.916  0.00  0.00    +0.000 OA
ATOM     10  H   UNL     1       5.764   2.914  13.262  0.00  0.00    +0.000 HD
ATOM     11  H   UNL     1       6.640   3.478  11.887  0.00  0.00    +0.000 HD
ENDBRANCH   4   7
BRANCH   1  12
ATOM     12  C   UNL     1       5.778   5.395  19.137  0.00  0.00    +0.000 C 
ATOM     13  O   UNL     1       6.716   5.455  19.932  0.00  0.00    +0.000 OA
BRANCH  12  14
ATOM     14  C   UNL     1       4.315   5.540  19.554  0.00  0.00    +0.000 C 
BRANCH  14  19
ATOM     15  C   UNL     1       0.659   2.330  18.742  0.00  0.00    +0.000 C 
ATOM     16  N   UNL     1       1.943   2.863  19.164  0.00  0.00    +0.000 N 
ATOM     17  C   UNL     1       3.073   2.115  19.428  0.00  0.00    +0.000 A 
ATOM     18  C   UNL     1       4.103   2.997  19.586  0.00  0.00    +0.000 A 
ATOM     19  N   UNL     1       3.563   4.275  19.473  0.00  0.00    +0.000 N 
ATOM     20  C   UNL     1       2.248   4.162  19.229  0.00  0.00    +0.000 A 
ENDBRANCH  14  19
ENDBRANCH  12  14
ENDBRANCH   1  12
TORSDOF 4
ENDMDL
MODEL 4
REMARK VINA RESULT:      -6.6      2.277      5.859
REMARK  Name = 
REMARK  5 active torsions:
REMARK  status: ('A' for Active; 'I' for Inactive)
REMARK    1  A    between atoms: C_1  and  N_2
REMARK    2  A    between atoms: N_5  and  C_6
REMARK    3  A    between atoms: C_6  and  C_7
REMARK    4  A    between atoms: C_7  and  C_9
REMARK    5  A    between atoms: C_12  and  C_13
REMARK                            x       y       z     vdW  Elec       q    Type
REMARK                         _______ _______ _______ _____ _____    ______ ____
ROOT
ATOM      1  C   UNL     1       5.226   4.947  19.261  0.00  0.00    +0.000 A 
ATOM      2  C   UNL     1       5.075   3.566  19.075  0.00  0.00    +0.000 A 
ATOM      3  C   UNL     1       3.806   2.978  19.084  0.00  0.00    +0.000 A 
ATOM      4  C   UNL     1       2.671   3.768  19.294  0.00  0.00    +0.000 A 
ATOM      5  C   UNL     1       2.830   5.148  19.502  0.00  0.00    +0.000 A 
ATOM      6  C   UNL     1       4.099   5.741  19.484  0.00  0.00    +0.000 A 
ENDROOT
BRANCH   4   7
ATOM      7  C   UNL     1       1.285   3.218  19.313  0.00  0.00    +0.000 C 
ATOM      8  N   UNL     1       0.609   3.177  20.499  0.00  0.00    +0.000 N 
ATOM      9  O   UNL     1       0.757   2.802  18.289  0.00  0.00    +0.000 OA
ATOM     10  H   UNL     1       0.962   3.481  21.392  0.00  0.00    +0.000 HD
ATOM     11  H   UNL     1      -0.322   2.781  20.478  0.00  0.00    +0.000 HD
ENDBRANCH   4   7
BRANCH   1  12
ATOM     12  C   UNL     1       6.607   5.497  19.254  0.00  0.00    +0.000 C 
ATOM     13  O   UNL     1       7.360   5.175  20.174  0.00  0.00    +0.000 OA
BRANCH  12  14
ATOM     14  C   UNL     1       7.026   6.421  18.112  0.00  0.00    +0.000 C 
BRANCH  14  19
ATOM     15  C   UNL     1       6.327   3.790  14.000  0.00  0.00    +0.000 C 
ATOM     16  N   UNL     1       6.224   4.867  14.968  0.00  0.00    +0.000 N 
ATOM     17  C   UNL     1       5.232   5.828  14.995  0.00  0.00    +0.000 A 
ATOM     18  C   UNL     1       5.379   6.516  16.165  0.00  0.00    +0.000 A 
ATOM     19  N   UNL     1       6.501   5.995  16.802  0.00  0.00    +0.000 N 
ATOM     20  C   UNL     1       7.001   5.005  16.046  0.00  0.00    +0.000 A 
ENDBRANCH  14  19
ENDBRANCH  12  14
ENDBRANCH   1  12
TORSDOF 4
ENDMDL
MODEL 5
REMARK VINA RESULT:      -6.5      1.403      1.706
REMARK  Name = 
REMARK  5 active torsions:
REMARK  status: ('A' for Active; 'I' for Inactive)
REMARK    1  A    between atoms: C_1  and  N_2
REMARK    2  A    between atoms: N_5  and  C_6
REMARK    3  A    between atoms: C_6  and  C_7
REMARK    4  A    between atoms: C_7  and  C_9
REMARK    5  A    between atoms: C_12  and  C_13
REMARK                            x       y       z     vdW  Elec       q    Type
REMARK                         _______ _______ _______ _____ _____    ______ ____
ROOT
ATOM      1  C   UNL     1       5.784   4.739  16.843  0.00  0.00    +0.000 A 
ATOM      2  C   UNL     1       6.974   5.219  16.280  0.00  0.00    +0.000 A 
ATOM      3  C   UNL     1       7.289   4.955  14.943  0.00  0.00    +0.000 A 
ATOM      4  C   UNL     1       6.420   4.192  14.157  0.00  0.00    +0.000 A 
ATOM      5  C   UNL     1       5.239   3.695  14.734  0.00  0.00    +0.000 A 
ATOM      6  C   UNL     1       4.916   3.967  16.069  0.00  0.00    +0.000 A 
ENDROOT
BRANCH   4   7
ATOM      7  C   UNL     1       6.682   3.870  12.724  0.00  0.00    +0.000 C 
ATOM      8  N   UNL     1       6.113   2.752  12.186  0.00  0.00    +0.000 N 
ATOM      9  O   UNL     1       7.399   4.589  12.038  0.00  0.00    +0.000 OA
ATOM     10  H   UNL     1       5.523   2.096  12.672  0.00  0.00    +0.000 HD
ATOM     11  H   UNL     1       6.328   2.555  11.217  0.00  0.00    +0.000 HD
ENDBRANCH   4   7
BRANCH   1  12
ATOM     12  C   UNL     1       5.525   5.047  18.274  0.00  0.00    +0.000 C 
ATOM     13  O   UNL     1       6.375   4.713  19.099  0.00  0.00    +0.000 OA
BRANCH  12  14
ATOM     14  C   UNL     1       4.230   5.766  18.650  0.00  0.00    +0.000 C 
BRANCH  14  19
ATOM     15  C   UNL     1       1.377   2.784  21.352  0.00  0.00    +0.000 C 
ATOM     16  N   UNL     1       1.915   3.491  20.202  0.00  0.00    +0.000 N 
ATOM     17  C   UNL     1       1.263   3.677  18.999  0.00  0.00    +0.000 A 
ATOM     18  C   UNL     1       2.015   4.556  18.273  0.00  0.00    +0.000 A 
ATOM     19  N   UNL     1       3.146   4.842  19.032  0.00  0.00    +0.000 N 
ATOM     20  C   UNL     1       3.065   4.171  20.191  0.00  0.00    +0.000 A 
ENDBRANCH  14  19
ENDBRANCH  12  14
ENDBRANCH   1  12
TORSDOF 4
ENDMDL
MODEL 6
REMARK VINA RESULT:      -6.5      2.274      5.885
REMARK  Name = 
REMARK  5 active torsions:
REMARK  status: ('A' for Active; 'I' for Inactive)
REMARK    1  A    between atoms: C_1  and  N_2
REMARK    2  A    between atoms: N_5  and  C_6
REMARK    3  A    between atoms: C_6  and  C_7
REMARK    4  A    between atoms: C_7  and  C_9
REMARK    5  A    between atoms: C_12  and  C_13
REMARK                            x       y       z     vdW  Elec       q    Type
REMARK                         _______ _______ _______ _____ _____    ______ ____
ROOT
ATOM      1  C   UNL     1       5.288   4.887  19.234  0.00  0.00    +0.000 A 
ATOM      2  C   UNL     1       4.212   5.746  19.495  0.00  0.00    +0.000 A 
ATOM      3  C   UNL     1       2.898   5.266  19.491  0.00  0.00    +0.000 A 
ATOM      4  C   UNL     1       2.646   3.919  19.210  0.00  0.00    +0.000 A 
ATOM      5  C   UNL     1       3.727   3.068  18.928  0.00  0.00    +0.000 A 
ATOM      6  C   UNL     1       5.044   3.543  18.941  0.00  0.00    +0.000 A 
ENDROOT
BRANCH   4   7
ATOM      7  C   UNL     1       1.275   3.331  19.191  0.00  0.00    +0.000 C 
ATOM      8  N   UNL     1       0.557   3.297  20.352  0.00  0.00    +0.000 N 
ATOM      9  O   UNL     1       0.797   2.879  18.157  0.00  0.00    +0.000 OA
ATOM     10  H   UNL     1       0.869   3.629  21.250  0.00  0.00    +0.000 HD
ATOM     11  H   UNL     1      -0.361   2.874  20.306  0.00  0.00    +0.000 HD
ENDBRANCH   4   7
BRANCH   1  12
ATOM     12  C   UNL     1       6.654   5.472  19.241  0.00  0.00    +0.000 C 
ATOM     13  O   UNL     1       7.405   5.173  20.169  0.00  0.00    +0.000 OA
BRANCH  12  14
ATOM     14  C   UNL     1       7.063   6.403  18.100  0.00  0.00    +0.000 C 
BRANCH  14  19
ATOM     15  C   UNL     1       6.306   3.783  13.990  0.00  0.00    +0.000 C 
ATOM     16  N   UNL     1       6.222   4.862  14.959  0.00  0.00    +0.000 N 
ATOM     17  C   UNL     1       5.243   5.835  14.992  0.00  0.00    +0.000 A 
ATOM     18  C   UNL     1       5.406   6.521  16.162  0.00  0.00    +0.000 A 
ATOM     19  N   UNL     1       6.525   5.984  16.792  0.00  0.00    +0.000 N 
ATOM     20  C   UNL     1       7.007   4.988  16.033  0.00  0.00    +0.000 A 
ENDBRANCH  14  19
ENDBRANCH  12  14
ENDBRANCH   1  12
TORSDOF 4
ENDMDL
MODEL 7
REMARK VINA RESULT:      -6.5      1.573      2.645
REMARK  Name = 
REMARK  5 active torsions:
REMARK  status: ('A' for Active; 'I' for Inactive)
REMARK    1  A    between atoms: C_1  and  N_2
REMARK    2  A    between atoms: N_5  and  C_6
REMARK    3  A    between atoms: C_6  and  C_7
REMARK    4  A    between atoms: C_7  and  C_9
REMARK    5  A    between atoms: C_12  and  C_13
REMARK                            x       y       z     vdW  Elec       q    Type
REMARK                         _______ _______ _______ _____ _____    ______ ____
ROOT
ATOM      1  C   UNL     1       5.645   4.376  17.126  0.00  0.00    +0.000 A 
ATOM      2  C   UNL     1       4.869   4.194  15.973  0.00  0.00    +0.000 A 
ATOM      3  C   UNL     1       5.431   4.356  14.702  0.00  0.00    +0.000 A 
ATOM      4  C   UNL     1       6.776   4.717  14.572  0.00  0.00    +0.000 A 
ATOM      5  C   UNL     1       7.542   4.919  15.732  0.00  0.00    +0.000 A 
ATOM      6  C   UNL     1       6.985   4.748  17.005  0.00  0.00    +0.000 A 
ENDROOT
BRANCH   4   7
ATOM      7  C   UNL     1       7.448   4.904  13.254  0.00  0.00    +0.000 C 
ATOM      8  N   UNL     1       8.438   5.839  13.146  0.00  0.00    +0.000 N 
ATOM      9  O   UNL     1       7.120   4.239  12.278  0.00  0.00    +0.000 OA
ATOM     10  H   UNL     1       8.765   6.441  13.884  0.00  0.00    +0.000 HD
ATOM     11  H   UNL     1       8.858   5.952  12.233  0.00  0.00    +0.000 HD
ENDBRANCH   4   7
BRANCH   1  12
ATOM     12  C   UNL     1       4.975   4.202  18.442  0.00  0.00    +0.000 C 
ATOM     13  O   UNL     1       5.684   3.989  19.425  0.00  0.00    +0.000 OA
BRANCH  12  14
ATOM     14  C   UNL     1       3.452   4.302  18.512  0.00  0.00    +0.000 C 
BRANCH  14  19
ATOM     15  C   UNL     1       2.091   9.008  17.936  0.00  0.00    +0.000 C 
ATOM     16  N   UNL     1       2.423   7.749  18.580  0.00  0.00    +0.000 N 
ATOM     17  C   UNL     1       2.081   7.395  19.871  0.00  0.00    +0.000 A 
ATOM     18  C   UNL     1       2.393   6.073  20.014  0.00  0.00    +0.000 A 
ATOM     19  N   UNL     1       2.977   5.664  18.819  0.00  0.00    +0.000 N 
ATOM     20  C   UNL     1       2.994   6.706  17.972  0.00  0.00    +0.000 A 
ENDBRANCH  14  19
ENDBRANCH  12  14
ENDBRANCH   1  12
TORSDOF 4
ENDMDL
MODEL 8
REMARK VINA RESULT:      -6.5      2.807      3.578
REMARK  Name = 
REMARK  5 active torsions:
REMARK  status: ('A' for Active; 'I' for Inactive)
REMARK    1  A    between atoms: C_1  and  N_2
REMARK    2  A    between atoms: N_5  and  C_6
REMARK    3  A    between atoms: C_6  and  C_7
REMARK    4  A    between atoms: C_7  and  C_9
REMARK    5  A    between atoms: C_12  and  C_13
REMARK                            x       y       z     vdW  Elec       q    Type
REMARK                         _______ _______ _______ _____ _____    ______ ____
ROOT
ATOM      1  C   UNL     1       3.672   5.133  17.480  0.00  0.00    +0.000 A 
ATOM      2  C   UNL     1       4.305   6.275  16.971  0.00  0.00    +0.000 A 
ATOM      3  C   UNL     1       5.293   6.165  15.986  0.00  0.00    +0.000 A 
ATOM      4  C   UNL     1       5.667   4.905  15.509  0.00  0.00    +0.000 A 
ATOM      5  C   UNL     1       5.043   3.763  16.039  0.00  0.00    +0.000 A 
ATOM      6  C   UNL     1       4.048   3.870  17.018  0.00  0.00    +0.000 A 
ENDROOT
BRANCH   4   7
ATOM      7  C   UNL     1       6.707   4.705  14.459  0.00  0.00    +0.000 C 
ATOM      8  N   UNL     1       6.542   3.695  13.554  0.00  0.00    +0.000 N 
ATOM      9  O   UNL     1       7.697   5.425  14.405  0.00  0.00    +0.000 OA
ATOM     10  H   UNL     1       5.774   3.045  13.525  0.00  0.00    +0.000 HD
ATOM     11  H   UNL     1       7.276   3.577  12.867  0.00  0.00    +0.000 HD
ENDBRANCH   4   7
BRANCH   1  12
ATOM     12  C   UNL     1       2.644   5.328  18.536  0.00  0.00    +0.000 C 
ATOM     13  O   UNL     1       1.550   4.783  18.383  0.00  0.00    +0.000 OA
BRANCH  12  14
ATOM     14  C   UNL     1       2.992   6.181  19.755  0.00  0.00    +0.000 C 
BRANCH  14  19
ATOM     15  C   UNL     1       0.588  10.285  18.447  0.00  0.00    +0.000 C 
ATOM     16  N   UNL     1       1.171   9.248  19.281  0.00  0.00    +0.000 N 
ATOM     17  C   UNL     1       0.850   9.007  20.602  0.00  0.00    +0.000 A 
ATOM     18  C   UNL     1       1.458   7.835  20.950  0.00  0.00    +0.000 A 
ATOM     19  N   UNL     1       2.190   7.416  19.843  0.00  0.00    +0.000 N 
ATOM     20  C   UNL     1       2.008   8.300  18.849  0.00  0.00    +0.000 A 
ENDBRANCH  14  19
ENDBRANCH  12  14
ENDBRANCH   1  12
TORSDOF 4
ENDMDL
MODEL 9
REMARK VINA RESULT:      -6.5      2.811      3.533
REMARK  Name = 
REMARK  5 active torsions:
REMARK  status: ('A' for Active; 'I' for Inactive)
REMARK    1  A    between atoms: C_1  and  N_2
REMARK    2  A    between atoms: N_5  and  C_6
REMARK    3  A    between atoms: C_6  and  C_7
REMARK    4  A    between atoms: C_7  and  C_9
REMARK    5  A    between atoms: C_12  and  C_13
REMARK                            x       y       z     vdW  Elec       q    Type
REMARK                         _______ _______ _______ _____ _____    ______ ____
ROOT
ATOM      1  C   UNL     1       3.712   5.222  17.478  0.00  0.00    +0.000 A 
ATOM      2  C   UNL     1       4.036   3.927  17.049  0.00  0.00    +0.000 A 
ATOM      3  C   UNL     1       5.017   3.723  16.073  0.00  0.00    +0.000 A 
ATOM      4  C   UNL     1       5.677   4.816  15.505  0.00  0.00    +0.000 A 
ATOM      5  C   UNL     1       5.333   6.112  15.924  0.00  0.00    +0.000 A 
ATOM      6  C   UNL     1       4.358   6.320  16.907  0.00  0.00    +0.000 A 
ENDROOT
BRANCH   4   7
ATOM      7  C   UNL     1       6.736   4.681  14.464  0.00  0.00    +0.000 C 
ATOM      8  N   UNL     1       6.597   3.719  13.505  0.00  0.00    +0.000 N 
ATOM      9  O   UNL     1       7.720   5.412  14.465  0.00  0.00    +0.000 OA
ATOM     10  H   UNL     1       5.835   3.064  13.429  0.00  0.00    +0.000 HD
ATOM     11  H   UNL     1       7.344   3.643  12.826  0.00  0.00    +0.000 HD
ENDBRANCH   4   7
BRANCH   1  12
ATOM     12  C   UNL     1       2.649   5.361  18.507  0.00  0.00    +0.000 C 
ATOM     13  O   UNL     1       1.567   4.812  18.297  0.00  0.00    +0.000 OA
BRANCH  12  14
ATOM     14  C   UNL     1       2.947   6.166  19.771  0.00  0.00    +0.000 C 
BRANCH  14  19
ATOM     15  C   UNL     1       0.612  10.312  18.471  0.00  0.00    +0.000 C 
ATOM     16  N   UNL     1       1.175   9.262  19.303  0.00  0.00    +0.000 N 
ATOM     17  C   UNL     1       0.841   9.018  20.620  0.00  0.00    +0.000 A 
ATOM     18  C   UNL     1       1.430   7.835  20.965  0.00  0.00    +0.000 A 
ATOM     19  N   UNL     1       2.163   7.412  19.861  0.00  0.00    +0.000 N 
ATOM     20  C   UNL     1       2.001   8.305  18.872  0.00  0.00    +0.000 A 
ENDBRANCH  14  19
ENDBRANCH  12  14
ENDBRANCH   1  12
TORSDOF 4
ENDMDL
