MODEL 1
REMARK VINA RESULT:      -7.2      0.000      0.000
REMARK  Name = 
REMARK  7 active torsions:
REMARK  status: ('A' for Active; 'I' for Inactive)
REMARK    1  A    between atoms: C_1  and  N_2
REMARK    2  A    between atoms: N_2  and  C_3
REMARK    3  A    between atoms: C_3  and  C_4
REMARK    4  A    between atoms: C_4  and  C_5
REMARK    5  A    between atoms: C_5  and  C_6
REMARK    6  A    between atoms: C_6  and  C_7
REMARK    7  A    between atoms: N_15  and  C_16
REMARK                            x       y       z     vdW  Elec       q    Type
REMARK                         _______ _______ _______ _____ _____    ______ ____
ROOT
ATOM      1  C   UNL     1       3.458   3.612  17.925  0.00  0.00    +0.000 C 
ATOM      2  C   UNL     1       3.930   3.572  19.399  0.00  0.00    +0.000 C 
ATOM      3  C   UNL     1       4.625   3.650  16.941  0.00  0.00    +0.000 C 
ATOM      4  C   UNL     1       5.421   4.918  17.043  0.00  0.00    +0.000 A 
ATOM      5  C   UNL     1       6.758   4.897  16.615  0.00  0.00    +0.000 A 
ATOM      6  C   UNL     1       7.544   6.038  16.699  0.00  0.00    +0.000 A 
ATOM      7  C   UNL     1       6.986   7.213  17.186  0.00  0.00    +0.000 A 
ATOM      8  C   UNL     1       5.639   7.252  17.572  0.00  0.00    +0.000 A 
ATOM      9  C   UNL     1       4.832   6.102  17.530  0.00  0.00    +0.000 A 
ATOM     10  N   UNL     1       3.434   6.093  17.869  0.00  0.00    +0.000 N 
ATOM     11  C   UNL     1       2.661   4.916  17.761  0.00  0.00    +0.000 C 
ATOM     12  O   UNL     1       1.427   4.894  17.720  0.00  0.00    +0.000 OA
ENDROOT
BRANCH  10  13
ATOM     13  C   UNL     1       2.832   7.224  18.511  0.00  0.00    +0.000 A 
ATOM     14  C   UNL     1       2.226   7.084  19.769  0.00  0.00    +0.000 A 
ATOM     15  C   UNL     1       1.494   8.134  20.325  0.00  0.00    +0.000 A 
ATOM     16 CL   UNL     1       0.736   7.924  21.856  0.00  0.00    +0.000 Cl
ATOM     17  C   UNL     1       1.347   9.337  19.643  0.00  0.00    +0.000 A 
ATOM     18  C   UNL     1       1.945   9.483  18.395  0.00  0.00    +0.000 A 
ATOM     19 CL   UNL     1       1.754  10.960  17.533  0.00  0.00    +0.000 Cl
ATOM     20  C   UNL     1       2.679   8.438  17.829  0.00  0.00    +0.000 A 
ENDBRANCH  10  13
BRANCH   1  21
ATOM     21  C   UNL     1       2.552   2.376  17.629  0.00  0.00    +0.000 C 
BRANCH  21  22
ATOM     22  C   UNL     1       1.966   1.716  18.887  0.00  0.00    +0.000 C 
BRANCH  22  23
ATOM     23  C   UNL     1       0.521   2.126  19.164  0.00  0.00    +0.000 C 
BRANCH  23  25
ATOM     24  C   UNL     1       1.255   2.795  21.365  0.00  0.00    +0.000 C 
ATOM     25  N   UNL     1       0.542   3.196  20.163  0.00  0.00    +0.000 NA
ATOM     26  H   UNL     1       0.986   4.026  19.770  0.00  0.00    +0.000 HD
ENDBRANCH  23  25
ENDBRANCH  22  23
ENDBRANCH  21  22
ENDBRANCH   1  21
TORSDOF 5
ENDMDL
MODEL 2
REMARK VINA RESULT:      -7.1      0.208      1.811
REMARK  Name = 
REMARK  7 active torsions:
REMARK  status: ('A' for Active; 'I' for Inactive)
REMARK    1  A    between atoms: C_1  and  N_2
REMARK    2  A    between atoms: N_2  and  C_3
REMARK    3  A    between atoms: C_3  and  C_4
REMARK    4  A    between atoms: C_4  and  C_5
REMARK    5  A    between atoms: C_5  and  C_6
REMARK    6  A    between atoms: C_6  and  C_7
REMARK    7  A    between atoms: N_15  and  C_16
REMARK                            x       y       z     vdW  Elec       q    Type
REMARK                         _______ _______ _______ _____ _____    ______ ____
ROOT
ATOM      1  C   UNL     1       3.551   3.656  17.985  0.00  0.00    +0.000 C 
ATOM      2  C   UNL     1       3.949   3.698  19.482  0.00  0.00    +0.000 C 
ATOM      3  C   UNL     1       4.760   3.750  17.058  0.00  0.00    +0.000 C 
ATOM      4  C   UNL     1       5.454   5.078  17.154  0.00  0.00    +0.000 A 
ATOM      5  C   UNL     1       6.809   5.145  16.792  0.00  0.00    +0.000 A 
ATOM      6  C   UNL     1       7.503   6.343  16.874  0.00  0.00    +0.000 A 
ATOM      7  C   UNL     1       6.836   7.487  17.292  0.00  0.00    +0.000 A 
ATOM      8  C   UNL     1       5.472   7.437  17.611  0.00  0.00    +0.000 A 
ATOM      9  C   UNL     1       4.756   6.229  17.570  0.00  0.00    +0.000 A 
ATOM     10  N   UNL     1       3.346   6.124  17.842  0.00  0.00    +0.000 N 
ATOM     11  C   UNL     1       2.669   4.890  17.738  0.00  0.00    +0.000 C 
ATOM     12  O   UNL     1       1.444   4.773  17.638  0.00  0.00    +0.000 OA
ENDROOT
BRANCH  10  13
ATOM     13  C   UNL     1       2.631   7.226  18.414  0.00  0.00    +0.000 A 
ATOM     14  C   UNL     1       2.580   8.460  17.745  0.00  0.00    +0.000 A 
ATOM     15  C   UNL     1       2.032   9.583  18.368  0.00  0.00    +0.000 A 
ATOM     16 CL   UNL     1       2.011  11.089  17.535  0.00  0.00    +0.000 Cl
ATOM     17  C   UNL     1       1.531   9.503  19.662  0.00  0.00    +0.000 A 
ATOM     18  C   UNL     1       1.578   8.284  20.331  0.00  0.00    +0.000 A 
ATOM     19 CL   UNL     1       0.977   8.178  21.940  0.00  0.00    +0.000 Cl
ATOM     20  C   UNL     1       2.125   7.154  19.718  0.00  0.00    +0.000 A 
ENDBRANCH  10  13
BRANCH   1  21
ATOM     21  C   UNL     1       2.755   2.346  17.690  0.00  0.00    +0.000 C 
BRANCH  21  22
ATOM     22  C   UNL     1       2.065   1.742  18.924  0.00  0.00    +0.000 C 
BRANCH  22  23
ATOM     23  C   UNL     1       0.595   2.139  19.045  0.00  0.00    +0.000 C 
BRANCH  23  25
ATOM     24  C   UNL     1       1.308   2.739  21.272  0.00  0.00    +0.000 C 
ATOM     25  N   UNL     1       0.481   3.108  20.136  0.00  0.00    +0.000 NA
ATOM     26  H   UNL     1       0.755   4.033  19.806  0.00  0.00    +0.000 HD
ENDBRANCH  23  25
ENDBRANCH  22  23
ENDBRANCH  21  22
ENDBRANCH   1  21
TORSDOF 5
ENDMDL
MODEL 3
REMARK VINA RESULT:      -6.5      2.004      5.043
REMARK  Name = 
REMARK  7 active torsions:
REMARK  status: ('A' for Active; 'I' for Inactive)
REMARK    1  A    between atoms: C_1  and  N_2
REMARK    2  A    between atoms: N_2  and  C_3
REMARK    3  A    between atoms: C_3  and  C_4
REMARK    4  A    between atoms: C_4  and  C_5
REMARK    5  A    between atoms: C_5  and  C_6
REMARK    6  A    between atoms: C_6  and  C_7
REMARK    7  A    between atoms: N_15  and  C_16
REMARK                            x       y       z     vdW  Elec       q    Type
REMARK                         _______ _______ _______ _____ _____    ______ ____
ROOT
ATOM      1  C   UNL     1       4.606   4.615  17.726  0.00  0.00    +0.000 C 
ATOM      2  C   UNL     1       3.362   4.308  16.856  0.00  0.00    +0.000 C 
ATOM      3  C   UNL     1       4.851   3.546  18.788  0.00  0.00    +0.000 C 
ATOM      4  C   UNL     1       3.760   3.500  19.818  0.00  0.00    +0.000 A 
ATOM      5  C   UNL     1       3.564   2.300  20.521  0.00  0.00    +0.000 A 
ATOM      6  C   UNL     1       2.561   2.198  21.475  0.00  0.00    +0.000 A 
ATOM      7  C   UNL     1       1.768   3.305  21.749  0.00  0.00    +0.000 A 
ATOM      8  C   UNL     1       1.989   4.518  21.083  0.00  0.00    +0.000 A 
ATOM      9  C   UNL     1       2.975   4.637  20.088  0.00  0.00    +0.000 A 
ATOM     10  N   UNL     1       3.277   5.868  19.405  0.00  0.00    +0.000 N 
ATOM     11  C   UNL     1       4.312   5.939  18.448  0.00  0.00    +0.000 C 
ATOM     12  O   UNL     1       4.837   6.989  18.066  0.00  0.00    +0.000 OA
ENDROOT
BRANCH  10  13
ATOM     13  C   UNL     1       2.412   7.003  19.532  0.00  0.00    +0.000 A 
ATOM     14  C   UNL     1       2.366   7.974  18.519  0.00  0.00    +0.000 A 
ATOM     15  C   UNL     1       1.658   9.162  18.706  0.00  0.00    +0.000 A 
ATOM     16 CL   UNL     1       1.644  10.347  17.459  0.00  0.00    +0.000 Cl
ATOM     17  C   UNL     1       0.988   9.409  19.900  0.00  0.00    +0.000 A 
ATOM     18  C   UNL     1       1.030   8.451  20.908  0.00  0.00    +0.000 A 
ATOM     19 CL   UNL     1       0.221   8.755  22.396  0.00  0.00    +0.000 Cl
ATOM     20  C   UNL     1       1.736   7.259  20.732  0.00  0.00    +0.000 A 
ENDBRANCH  10  13
BRANCH   1  21
ATOM     21  C   UNL     1       5.864   4.756  16.812  0.00  0.00    +0.000 C 
BRANCH  21  22
ATOM     22  C   UNL     1       5.544   5.163  15.366  0.00  0.00    +0.000 C 
BRANCH  22  23
ATOM     23  C   UNL     1       6.633   4.762  14.373  0.00  0.00    +0.000 C 
BRANCH  23  25
ATOM     24  C   UNL     1       6.255   3.449  12.381  0.00  0.00    +0.000 C 
ATOM     25  N   UNL     1       6.285   3.445  13.835  0.00  0.00    +0.000 NA
ATOM     26  H   UNL     1       6.962   2.752  14.155  0.00  0.00    +0.000 HD
ENDBRANCH  23  25
ENDBRANCH  22  23
ENDBRANCH  21  22
ENDBRANCH   1  21
TORSDOF 5
ENDMDL
MODEL 4
REMARK VINA RESULT:      -6.5      1.755      4.998
REMARK  Name = 
REMARK  7 active torsions:
REMARK  status: ('A' for Active; 'I' for Inactive)
REMARK    1  A    between atoms: C_1  and  N_2
REMARK    2  A    between atoms: N_2  and  C_3
REMARK    3  A    between atoms: C_3  and  C_4
REMARK    4  A    between atoms: C_4  and  C_5
REMARK    5  A    between atoms: C_5  and  C_6
REMARK    6  A    between atoms: C_6  and  C_7
REMARK    7  A    between atoms: N_15  and  C_16
REMARK                            x       y       z     vdW  Elec       q    Type
REMARK                         _______ _______ _______ _____ _____    ______ ____
ROOT
ATOM      1  C   UNL     1       4.526   4.721  17.813  0.00  0.00    +0.000 C 
ATOM      2  C   UNL     1       3.293   4.409  16.930  0.00  0.00    +0.000 C 
ATOM      3  C   UNL     1       4.787   3.636  18.854  0.00  0.00    +0.000 C 
ATOM      4  C   UNL     1       3.692   3.548  19.877  0.00  0.00    +0.000 A 
ATOM      5  C   UNL     1       3.516   2.331  20.555  0.00  0.00    +0.000 A 
ATOM      6  C   UNL     1       2.510   2.189  21.501  0.00  0.00    +0.000 A 
ATOM      7  C   UNL     1       1.696   3.275  21.793  0.00  0.00    +0.000 A 
ATOM      8  C   UNL     1       1.896   4.506  21.154  0.00  0.00    +0.000 A 
ATOM      9  C   UNL     1       2.884   4.665  20.167  0.00  0.00    +0.000 A 
ATOM     10  N   UNL     1       3.166   5.914  19.511  0.00  0.00    +0.000 N 
ATOM     11  C   UNL     1       4.204   6.025  18.560  0.00  0.00    +0.000 C 
ATOM     12  O   UNL     1       4.710   7.092  18.202  0.00  0.00    +0.000 OA
ENDROOT
BRANCH  10  13
ATOM     13  C   UNL     1       2.279   7.030  19.656  0.00  0.00    +0.000 A 
ATOM     14  C   UNL     1       2.154   7.974  18.624  0.00  0.00    +0.000 A 
ATOM     15  C   UNL     1       1.425   9.148  18.821  0.00  0.00    +0.000 A 
ATOM     16 CL   UNL     1       1.314  10.301  17.548  0.00  0.00    +0.000 Cl
ATOM     17  C   UNL     1       0.813   9.408  20.042  0.00  0.00    +0.000 A 
ATOM     18  C   UNL     1       0.933   8.477  21.069  0.00  0.00    +0.000 A 
ATOM     19 CL   UNL     1       0.196   8.798  22.591  0.00  0.00    +0.000 Cl
ATOM     20  C   UNL     1       1.661   7.300  20.884  0.00  0.00    +0.000 A 
ENDBRANCH  10  13
BRANCH   1  21
ATOM     21  C   UNL     1       5.786   4.906  16.909  0.00  0.00    +0.000 C 
BRANCH  21  22
ATOM     22  C   UNL     1       7.116   4.620  17.623  0.00  0.00    +0.000 C 
BRANCH  22  23
ATOM     23  C   UNL     1       7.842   5.887  18.071  0.00  0.00    +0.000 C 
BRANCH  23  25
ATOM     24  C   UNL     1       7.902   8.263  17.642  0.00  0.00    +0.000 C 
ATOM     25  N   UNL     1       7.476   6.963  17.148  0.00  0.00    +0.000 NA
ATOM     26  H   UNL     1       7.900   6.795  16.236  0.00  0.00    +0.000 HD
ENDBRANCH  23  25
ENDBRANCH  22  23
ENDBRANCH  21  22
ENDBRANCH   1  21
TORSDOF 5
ENDMDL
MODEL 5
REMARK VINA RESULT:      -6.5      1.630      5.090
REMARK  Name = 
REMARK  7 active torsions:
REMARK  status: ('A' for Active; 'I' for Inactive)
REMARK    1  A    between atoms: C_1  and  N_2
REMARK    2  A    between atoms: N_2  and  C_3
REMARK    3  A    between atoms: C_3  and  C_4
REMARK    4  A    between atoms: C_4  and  C_5
REMARK    5  A    between atoms: C_5  and  C_6
REMARK    6  A    between atoms: C_6  and  C_7
REMARK    7  A    between atoms: N_15  and  C_16
REMARK                            x       y       z     vdW  Elec       q    Type
REMARK                         _______ _______ _______ _____ _____    ______ ____
ROOT
ATOM      1  C   UNL     1       5.009   4.452  18.084  0.00  0.00    +0.000 C 
ATOM      2  C   UNL     1       4.374   4.773  16.708  0.00  0.00    +0.000 C 
ATOM      3  C   UNL     1       4.589   3.083  18.614  0.00  0.00    +0.000 C 
ATOM      4  C   UNL     1       3.123   3.016  18.930  0.00  0.00    +0.000 A 
ATOM      5  C   UNL     1       2.502   1.757  18.924  0.00  0.00    +0.000 A 
ATOM      6  C   UNL     1       1.146   1.638  19.195  0.00  0.00    +0.000 A 
ATOM      7  C   UNL     1       0.413   2.776  19.504  0.00  0.00    +0.000 A 
ATOM      8  C   UNL     1       1.037   4.030  19.556  0.00  0.00    +0.000 A 
ATOM      9  C   UNL     1       2.400   4.182  19.251  0.00  0.00    +0.000 A 
ATOM     10  N   UNL     1       3.104   5.434  19.333  0.00  0.00    +0.000 N 
ATOM     11  C   UNL     1       4.487   5.517  19.061  0.00  0.00    +0.000 C 
ATOM     12  O   UNL     1       5.212   6.453  19.411  0.00  0.00    +0.000 OA
ENDROOT
BRANCH  10  13
ATOM     13  C   UNL     1       2.387   6.663  19.503  0.00  0.00    +0.000 A 
ATOM     14  C   UNL     1       2.385   7.628  18.482  0.00  0.00    +0.000 A 
ATOM     15  C   UNL     1       1.833   8.890  18.701  0.00  0.00    +0.000 A 
ATOM     16 CL   UNL     1       1.872  10.063  17.441  0.00  0.00    +0.000 Cl
ATOM     17  C   UNL     1       1.280   9.221  19.933  0.00  0.00    +0.000 A 
ATOM     18  C   UNL     1       1.279   8.270  20.949  0.00  0.00    +0.000 A 
ATOM     19 CL   UNL     1       0.613   8.674  22.484  0.00  0.00    +0.000 Cl
ATOM     20  C   UNL     1       1.829   7.003  20.742  0.00  0.00    +0.000 A 
ENDBRANCH  10  13
BRANCH   1  21
ATOM     21  C   UNL     1       6.565   4.526  17.974  0.00  0.00    +0.000 C 
BRANCH  21  22
ATOM     22  C   UNL     1       7.074   4.953  16.588  0.00  0.00    +0.000 C 
BRANCH  22  23
ATOM     23  C   UNL     1       7.357   6.450  16.487  0.00  0.00    +0.000 C 
BRANCH  23  25
ATOM     24  C   UNL     1       7.939   8.368  17.835  0.00  0.00    +0.000 C 
ATOM     25  N   UNL     1       7.626   6.948  17.837  0.00  0.00    +0.000 NA
ATOM     26  H   UNL     1       6.816   6.783  18.434  0.00  0.00    +0.000 HD
ENDBRANCH  23  25
ENDBRANCH  22  23
ENDBRANCH  21  22
ENDBRANCH   1  21
TORSDOF 5
ENDMDL
MODEL 6
REMARK VINA RESULT:      -6.4      1.735      4.619
REMARK  Name = 
REMARK  7 active torsions:
REMARK  status: ('A' for Active; 'I' for Inactive)
REMARK    1  A    between atoms: C_1  and  N_2
REMARK    2  A    between atoms: N_2  and  C_3
REMARK    3  A    between atoms: C_3  and  C_4
REMARK    4  A    between atoms: C_4  and  C_5
REMARK    5  A    between atoms: C_5  and  C_6
REMARK    6  A    between atoms: C_6  and  C_7
REMARK    7  A    between atoms: N_15  and  C_16
REMARK                            x       y       z     vdW  Elec       q    Type
REMARK                         _______ _______ _______ _____ _____    ______ ____
ROOT
ATOM      1  C   UNL     1       3.908   4.526  17.319  0.00  0.00    +0.000 C 
ATOM      2  C   UNL     1       2.489   4.231  16.772  0.00  0.00    +0.000 C 
ATOM      3  C   UNL     1       4.363   3.492  18.345  0.00  0.00    +0.000 C 
ATOM      4  C   UNL     1       3.538   3.526  19.599  0.00  0.00    +0.000 A 
ATOM      5  C   UNL     1       3.478   2.364  20.384  0.00  0.00    +0.000 A 
ATOM      6  C   UNL     1       2.720   2.335  21.546  0.00  0.00    +0.000 A 
ATOM      7  C   UNL     1       2.041   3.481  21.942  0.00  0.00    +0.000 A 
ATOM      8  C   UNL     1       2.134   4.658  21.187  0.00  0.00    +0.000 A 
ATOM      9  C   UNL     1       2.867   4.702  19.988  0.00  0.00    +0.000 A 
ATOM     10  N   UNL     1       3.036   5.892  19.197  0.00  0.00    +0.000 N 
ATOM     11  C   UNL     1       3.824   5.888  18.026  0.00  0.00    +0.000 C 
ATOM     12  O   UNL     1       4.274   6.902  17.485  0.00  0.00    +0.000 OA
ENDROOT
BRANCH  10  13
ATOM     13  C   UNL     1       2.254   7.062  19.466  0.00  0.00    +0.000 A 
ATOM     14  C   UNL     1       2.131   8.070  18.495  0.00  0.00    +0.000 A 
ATOM     15  C   UNL     1       1.515   9.283  18.805  0.00  0.00    +0.000 A 
ATOM     16 CL   UNL     1       1.406  10.511  17.604  0.00  0.00    +0.000 Cl
ATOM     17  C   UNL     1       1.015   9.520  20.081  0.00  0.00    +0.000 A 
ATOM     18  C   UNL     1       1.133   8.527  21.048  0.00  0.00    +0.000 A 
ATOM     19 CL   UNL     1       0.534   8.816  22.635  0.00  0.00    +0.000 Cl
ATOM     20  C   UNL     1       1.748   7.309  20.749  0.00  0.00    +0.000 A 
ENDBRANCH  10  13
BRANCH   1  21
ATOM     21  C   UNL     1       4.924   4.585  16.135  0.00  0.00    +0.000 C 
BRANCH  21  22
ATOM     22  C   UNL     1       6.240   3.839  16.403  0.00  0.00    +0.000 C 
BRANCH  22  23
ATOM     23  C   UNL     1       7.388   4.767  16.796  0.00  0.00    +0.000 C 
BRANCH  23  25
ATOM     24  C   UNL     1       7.468   5.603  19.060  0.00  0.00    +0.000 C 
ATOM     25  N   UNL     1       7.745   4.475  18.186  0.00  0.00    +0.000 NA
ATOM     26  H   UNL     1       7.225   3.660  18.512  0.00  0.00    +0.000 HD
ENDBRANCH  23  25
ENDBRANCH  22  23
ENDBRANCH  21  22
ENDBRANCH   1  21
TORSDOF 5
ENDMDL
MODEL 7
REMARK VINA RESULT:      -6.4      1.667      4.766
REMARK  Name = 
REMARK  7 active torsions:
REMARK  status: ('A' for Active; 'I' for Inactive)
REMARK    1  A    between atoms: C_1  and  N_2
REMARK    2  A    between atoms: N_2  and  C_3
REMARK    3  A    between atoms: C_3  and  C_4
REMARK    4  A    between atoms: C_4  and  C_5
REMARK    5  A    between atoms: C_5  and  C_6
REMARK    6  A    between atoms: C_6  and  C_7
REMARK    7  A    between atoms: N_15  and  C_16
REMARK                            x       y       z     vdW  Elec       q    Type
REMARK                         _______ _______ _______ _____ _____    ______ ____
ROOT
ATOM      1  C   UNL     1       4.959   4.334  18.045  0.00  0.00    +0.000 C 
ATOM      2  C   UNL     1       4.313   4.743  16.698  0.00  0.00    +0.000 C 
ATOM      3  C   UNL     1       4.436   2.995  18.559  0.00  0.00    +0.000 C 
ATOM      4  C   UNL     1       2.981   3.049  18.921  0.00  0.00    +0.000 A 
ATOM      5  C   UNL     1       2.250   1.850  18.908  0.00  0.00    +0.000 A 
ATOM      6  C   UNL     1       0.898   1.844  19.221  0.00  0.00    +0.000 A 
ATOM      7  C   UNL     1       0.279   3.034  19.578  0.00  0.00    +0.000 A 
ATOM      8  C   UNL     1       1.012   4.227  19.638  0.00  0.00    +0.000 A 
ATOM      9  C   UNL     1       2.374   4.266  19.291  0.00  0.00    +0.000 A 
ATOM     10  N   UNL     1       3.188   5.449  19.377  0.00  0.00    +0.000 N 
ATOM     11  C   UNL     1       4.564   5.417  19.061  0.00  0.00    +0.000 C 
ATOM     12  O   UNL     1       5.379   6.276  19.408  0.00  0.00    +0.000 OA
ENDROOT
BRANCH  10  13
ATOM     13  C   UNL     1       2.589   6.731  19.597  0.00  0.00    +0.000 A 
ATOM     14  C   UNL     1       1.881   6.988  20.782  0.00  0.00    +0.000 A 
ATOM     15  C   UNL     1       1.155   8.170  20.933  0.00  0.00    +0.000 A 
ATOM     16 CL   UNL     1       0.272   8.444  22.385  0.00  0.00    +0.000 Cl
ATOM     17  C   UNL     1       1.113   9.114  19.913  0.00  0.00    +0.000 A 
ATOM     18  C   UNL     1       1.811   8.866  18.735  0.00  0.00    +0.000 A 
ATOM     19 CL   UNL     1       1.752  10.018  17.458  0.00  0.00    +0.000 Cl
ATOM     20  C   UNL     1       2.541   7.686  18.573  0.00  0.00    +0.000 A 
ENDBRANCH  10  13
BRANCH   1  21
ATOM     21  C   UNL     1       6.511   4.273  17.885  0.00  0.00    +0.000 C 
BRANCH  21  22
ATOM     22  C   UNL     1       7.017   4.738  16.511  0.00  0.00    +0.000 C 
BRANCH  22  23
ATOM     23  C   UNL     1       7.155   6.255  16.402  0.00  0.00    +0.000 C 
BRANCH  23  25
ATOM     24  C   UNL     1       7.835   8.183  17.689  0.00  0.00    +0.000 C 
ATOM     25  N   UNL     1       7.832   6.731  17.610  0.00  0.00    +0.000 NA
ATOM     26  H   UNL     1       7.372   6.350  18.437  0.00  0.00    +0.000 HD
ENDBRANCH  23  25
ENDBRANCH  22  23
ENDBRANCH  21  22
ENDBRANCH   1  21
TORSDOF 5
ENDMDL
MODEL 8
REMARK VINA RESULT:      -6.3      3.195      6.310
REMARK  Name = 
REMARK  7 active torsions:
REMARK  status: ('A' for Active; 'I' for Inactive)
REMARK    1  A    between atoms: C_1  and  N_2
REMARK    2  A    between atoms: N_2  and  C_3
REMARK    3  A    between atoms: C_3  and  C_4
REMARK    4  A    between atoms: C_4  and  C_5
REMARK    5  A    between atoms: C_5  and  C_6
REMARK    6  A    between atoms: C_6  and  C_7
REMARK    7  A    between atoms: N_15  and  C_16
REMARK                            x       y       z     vdW  Elec       q    Type
REMARK                         _______ _______ _______ _____ _____    ______ ____
ROOT
ATOM      1  C   UNL     1       7.186   6.813  17.697  0.00  0.00    +0.000 C 
ATOM      2  C   UNL     1       6.090   7.826  17.283  0.00  0.00    +0.000 C 
ATOM      3  C   UNL     1       7.773   6.069  16.500  0.00  0.00    +0.000 C 
ATOM      4  C   UNL     1       6.768   5.177  15.830  0.00  0.00    +0.000 A 
ATOM      5  C   UNL     1       6.972   4.847  14.481  0.00  0.00    +0.000 A 
ATOM      6  C   UNL     1       6.068   4.038  13.808  0.00  0.00    +0.000 A 
ATOM      7  C   UNL     1       4.970   3.532  14.492  0.00  0.00    +0.000 A 
ATOM      8  C   UNL     1       4.785   3.821  15.851  0.00  0.00    +0.000 A 
ATOM      9  C   UNL     1       5.667   4.666  16.545  0.00  0.00    +0.000 A 
ATOM     10  N   UNL     1       5.554   4.961  17.949  0.00  0.00    +0.000 N 
ATOM     11  C   UNL     1       6.499   5.780  18.605  0.00  0.00    +0.000 C 
ATOM     12  O   UNL     1       6.658   5.819  19.828  0.00  0.00    +0.000 OA
ENDROOT
BRANCH  10  13
ATOM     13  C   UNL     1       4.376   4.594  18.678  0.00  0.00    +0.000 A 
ATOM     14  C   UNL     1       3.852   3.296  18.569  0.00  0.00    +0.000 A 
ATOM     15  C   UNL     1       2.619   2.978  19.139  0.00  0.00    +0.000 A 
ATOM     16 CL   UNL     1       1.988   1.387  18.964  0.00  0.00    +0.000 Cl
ATOM     17  C   UNL     1       1.882   3.940  19.821  0.00  0.00    +0.000 A 
ATOM     18  C   UNL     1       2.395   5.229  19.932  0.00  0.00    +0.000 A 
ATOM     19 CL   UNL     1       1.484   6.433  20.758  0.00  0.00    +0.000 Cl
ATOM     20  C   UNL     1       3.628   5.559  19.366  0.00  0.00    +0.000 A 
ENDBRANCH  10  13
BRANCH   1  21
ATOM     21  C   UNL     1       8.320   7.554  18.472  0.00  0.00    +0.000 C 
BRANCH  21  22
ATOM     22  C   UNL     1       8.448   9.044  18.120  0.00  0.00    +0.000 C 
BRANCH  22  23
ATOM     23  C   UNL     1       9.167   9.857  19.194  0.00  0.00    +0.000 C 
BRANCH  23  25
ATOM     24  C   UNL     1      10.358  11.515  17.904  0.00  0.00    +0.000 C 
ATOM     25  N   UNL     1       9.206  11.252  18.751  0.00  0.00    +0.000 NA
ATOM     26  H   UNL     1       8.353  11.475  18.237  0.00  0.00    +0.000 HD
ENDBRANCH  23  25
ENDBRANCH  22  23
ENDBRANCH  21  22
ENDBRANCH   1  21
TORSDOF 5
ENDMDL
MODEL 9
REMARK VINA RESULT:      -6.3      1.835      4.318
REMARK  Name = 
REMARK  7 active torsions:
REMARK  status: ('A' for Active; 'I' for Inactive)
REMARK    1  A    between atoms: C_1  and  N_2
REMARK    2  A    between atoms: N_2  and  C_3
REMARK    3  A    between atoms: C_3  and  C_4
REMARK    4  A    between atoms: C_4  and  C_5
REMARK    5  A    between atoms: C_5  and  C_6
REMARK    6  A    between atoms: C_6  and  C_7
REMARK    7  A    between atoms: N_15  and  C_16
REMARK                            x       y       z     vdW  Elec       q    Type
REMARK                         _______ _______ _______ _____ _____    ______ ____
ROOT
ATOM      1  C   UNL     1       3.905   4.744  17.311  0.00  0.00    +0.000 C 
ATOM      2  C   UNL     1       2.479   4.514  16.754  0.00  0.00    +0.000 C 
ATOM      3  C   UNL     1       4.324   3.663  18.305  0.00  0.00    +0.000 C 
ATOM      4  C   UNL     1       3.498   3.686  19.558  0.00  0.00    +0.000 A 
ATOM      5  C   UNL     1       3.397   2.502  20.306  0.00  0.00    +0.000 A 
ATOM      6  C   UNL     1       2.635   2.462  21.465  0.00  0.00    +0.000 A 
ATOM      7  C   UNL     1       1.995   3.616  21.897  0.00  0.00    +0.000 A 
ATOM      8  C   UNL     1       2.129   4.813  21.180  0.00  0.00    +0.000 A 
ATOM      9  C   UNL     1       2.865   4.870  19.984  0.00  0.00    +0.000 A 
ATOM     10  N   UNL     1       3.075   6.079  19.231  0.00  0.00    +0.000 N 
ATOM     11  C   UNL     1       3.866   6.085  18.061  0.00  0.00    +0.000 C 
ATOM     12  O   UNL     1       4.350   7.100  17.553  0.00  0.00    +0.000 OA
ENDROOT
BRANCH  10  13
ATOM     13  C   UNL     1       2.333   7.265  19.536  0.00  0.00    +0.000 A 
ATOM     14  C   UNL     1       2.079   7.619  20.871  0.00  0.00    +0.000 A 
ATOM     15  C   UNL     1       1.219   8.674  21.175  0.00  0.00    +0.000 A 
ATOM     16 CL   UNL     1       0.904   9.065  22.821  0.00  0.00    +0.000 Cl
ATOM     17  C   UNL     1       0.592   9.394  20.164  0.00  0.00    +0.000 A 
ATOM     18  C   UNL     1       0.838   9.049  18.838  0.00  0.00    +0.000 A 
ATOM     19 CL   UNL     1       0.054   9.921  17.578  0.00  0.00    +0.000 Cl
ATOM     20  C   UNL     1       1.697   7.994  18.522  0.00  0.00    +0.000 A 
ENDBRANCH  10  13
BRANCH   1  21
ATOM     21  C   UNL     1       4.926   4.807  16.131  0.00  0.00    +0.000 C 
BRANCH  21  22
ATOM     22  C   UNL     1       6.154   3.902  16.318  0.00  0.00    +0.000 C 
BRANCH  22  23
ATOM     23  C   UNL     1       7.422   4.675  16.675  0.00  0.00    +0.000 C 
BRANCH  23  25
ATOM     24  C   UNL     1       7.625   5.631  18.883  0.00  0.00    +0.000 C 
ATOM     25  N   UNL     1       7.721   4.420  18.085  0.00  0.00    +0.000 NA
ATOM     26  H   UNL     1       7.076   3.722  18.454  0.00  0.00    +0.000 HD
ENDBRANCH  23  25
ENDBRANCH  22  23
ENDBRANCH  21  22
ENDBRANCH   1  21
TORSDOF 5
ENDMDL
