MODEL 1
REMARK VINA RESULT:      -7.1      0.000      0.000
REMARK  Name = 
REMARK  7 active torsions:
REMARK  status: ('A' for Active; 'I' for Inactive)
REMARK    1  A    between atoms: C_1  and  O_2
REMARK    2  A    between atoms: O_2  and  C_3
REMARK    3  A    between atoms: C_6  and  O_7
REMARK    4  A    between atoms: O_7  and  C_8
REMARK    5  A    between atoms: C_8  and  C_9
REMARK    6  A    between atoms: C_9  and  N_10
REMARK    7  A    between atoms: C_13  and  N_14
REMARK                            x       y       z     vdW  Elec       q    Type
REMARK                         _______ _______ _______ _____ _____    ______ ____
ROOT
ATOM      1  N   UNL     1       5.402   6.452  18.234  0.00  0.00    +0.000 NA
ATOM      2  C   UNL     1       4.415   6.290  17.146  0.00  0.00    +0.000 C 
ATOM      3  C   UNL     1       2.971   6.272  17.645  0.00  0.00    +0.000 C 
ATOM      4  C   UNL     1       2.743   5.209  18.723  0.00  0.00    +0.000 C 
ATOM      5  C   UNL     1       3.762   5.453  19.841  0.00  0.00    +0.000 C 
ATOM      6  C   UNL     1       5.192   5.470  19.306  0.00  0.00    +0.000 C 
ENDROOT
BRANCH   4   7
ATOM      7  N   UNL     1       2.727   3.807  18.272  0.00  0.00    +0.000 N 
ATOM      8  C   UNL     1       3.885   3.200  17.636  0.00  0.00    +0.000 C 
ATOM      9  C   UNL     1       3.672   1.711  17.847  0.00  0.00    +0.000 C 
ATOM     10  N   UNL     1       2.261   1.613  18.072  0.00  0.00    +0.000 N 
ATOM     11  C   UNL     1       1.770   2.826  18.538  0.00  0.00    +0.000 C 
ATOM     12  O   UNL     1       0.695   2.930  19.101  0.00  0.00    +0.000 OA
ATOM     13  H   UNL     1       1.775   0.774  18.358  0.00  0.00    +0.000 HD
ENDBRANCH   4   7
BRANCH   1  14
ATOM     14  C   UNL     1       6.763   6.328  17.647  0.00  0.00    +0.000 C 
BRANCH  14  15
ATOM     15  C   UNL     1       6.915   5.176  16.644  0.00  0.00    +0.000 C 
BRANCH  15  16
ATOM     16  O   UNL     1       7.271   5.696  15.356  0.00  0.00    +0.000 OA
BRANCH  16  20
ATOM     17  C   UNL     1       5.915   3.284  12.228  0.00  0.00    +0.000 A 
ATOM     18  C   UNL     1       5.222   3.378  13.436  0.00  0.00    +0.000 A 
ATOM     19  C   UNL     1       5.696   4.202  14.463  0.00  0.00    +0.000 A 
ATOM     20  C   UNL     1       6.888   4.907  14.303  0.00  0.00    +0.000 A 
ATOM     21  C   UNL     1       7.587   4.802  13.098  0.00  0.00    +0.000 A 
ATOM     22  C   UNL     1       7.108   3.990  12.066  0.00  0.00    +0.000 A 
BRANCH  17  24
ATOM     23  C   UNL     1       6.018   1.209  11.104  0.00  0.00    +0.000 C 
ATOM     24  O   UNL     1       5.359   2.458  11.289  0.00  0.00    +0.000 OA
ENDBRANCH  17  24
ENDBRANCH  16  20
ENDBRANCH  15  16
ENDBRANCH  14  15
ENDBRANCH   1  14
TORSDOF 6
ENDMDL
MODEL 2
REMARK VINA RESULT:      -7.1      1.541      1.993
REMARK  Name = 
REMARK  7 active torsions:
REMARK  status: ('A' for Active; 'I' for Inactive)
REMARK    1  A    between atoms: C_1  and  O_2
REMARK    2  A    between atoms: O_2  and  C_3
REMARK    3  A    between atoms: C_6  and  O_7
REMARK    4  A    between atoms: O_7  and  C_8
REMARK    5  A    between atoms: C_8  and  C_9
REMARK    6  A    between atoms: C_9  and  N_10
REMARK    7  A    between atoms: C_13  and  N_14
REMARK                            x       y       z     vdW  Elec       q    Type
REMARK                         _______ _______ _______ _____ _____    ______ ____
ROOT
ATOM      1  N   UNL     1       4.301   5.858  17.000  0.00  0.00    +0.000 NA
ATOM      2  C   UNL     1       4.307   4.379  16.997  0.00  0.00    +0.000 C 
ATOM      3  C   UNL     1       2.904   3.774  17.045  0.00  0.00    +0.000 C 
ATOM      4  C   UNL     1       2.089   4.294  18.232  0.00  0.00    +0.000 C 
ATOM      5  C   UNL     1       2.080   5.824  18.159  0.00  0.00    +0.000 C 
ATOM      6  C   UNL     1       3.497   6.393  18.107  0.00  0.00    +0.000 C 
ENDROOT
BRANCH   4   7
ATOM      7  N   UNL     1       2.474   3.796  19.564  0.00  0.00    +0.000 N 
ATOM      8  C   UNL     1       2.012   4.445  20.780  0.00  0.00    +0.000 C 
ATOM      9  C   UNL     1       2.141   3.362  21.837  0.00  0.00    +0.000 C 
ATOM     10  N   UNL     1       3.102   2.466  21.269  0.00  0.00    +0.000 N 
ATOM     11  C   UNL     1       3.114   2.598  19.886  0.00  0.00    +0.000 C 
ATOM     12  O   UNL     1       3.590   1.755  19.146  0.00  0.00    +0.000 OA
ATOM     13  H   UNL     1       3.355   1.565  21.651  0.00  0.00    +0.000 HD
ENDBRANCH   4   7
BRANCH   1  14
ATOM     14  C   UNL     1       5.710   6.326  17.081  0.00  0.00    +0.000 C 
BRANCH  14  15
ATOM     15  C   UNL     1       6.750   5.270  16.683  0.00  0.00    +0.000 C 
BRANCH  15  16
ATOM     16  O   UNL     1       7.418   5.673  15.480  0.00  0.00    +0.000 OA
BRANCH  16  20
ATOM     17  C   UNL     1       6.240   3.355  12.211  0.00  0.00    +0.000 A 
ATOM     18  C   UNL     1       5.707   3.153  13.485  0.00  0.00    +0.000 A 
ATOM     19  C   UNL     1       6.114   3.951  14.559  0.00  0.00    +0.000 A 
ATOM     20  C   UNL     1       7.087   4.932  14.375  0.00  0.00    +0.000 A 
ATOM     21  C   UNL     1       7.630   5.125  13.102  0.00  0.00    +0.000 A 
ATOM     22  C   UNL     1       7.214   4.338  12.025  0.00  0.00    +0.000 A 
BRANCH  17  24
ATOM     23  C   UNL     1       6.344   1.225  11.196  0.00  0.00    +0.000 C 
ATOM     24  O   UNL     1       5.766   2.526  11.232  0.00  0.00    +0.000 OA
ENDBRANCH  17  24
ENDBRANCH  16  20
ENDBRANCH  15  16
ENDBRANCH  14  15
ENDBRANCH   1  14
TORSDOF 6
ENDMDL
MODEL 3
REMARK VINA RESULT:      -6.9      4.726      7.436
REMARK  Name = 
REMARK  7 active torsions:
REMARK  status: ('A' for Active; 'I' for Inactive)
REMARK    1  A    between atoms: C_1  and  O_2
REMARK    2  A    between atoms: O_2  and  C_3
REMARK    3  A    between atoms: C_6  and  O_7
REMARK    4  A    between atoms: O_7  and  C_8
REMARK    5  A    between atoms: C_8  and  C_9
REMARK    6  A    between atoms: C_9  and  N_10
REMARK    7  A    between atoms: C_13  and  N_14
REMARK                            x       y       z     vdW  Elec       q    Type
REMARK                         _______ _______ _______ _____ _____    ______ ____
ROOT
ATOM      1  N   UNL     1       7.094   6.630  17.054  0.00  0.00    +0.000 NA
ATOM      2  C   UNL     1       7.397   5.183  17.051  0.00  0.00    +0.000 C 
ATOM      3  C   UNL     1       6.550   4.395  16.053  0.00  0.00    +0.000 C 
ATOM      4  C   UNL     1       5.050   4.617  16.263  0.00  0.00    +0.000 C 
ATOM      5  C   UNL     1       4.789   6.126  16.213  0.00  0.00    +0.000 C 
ATOM      6  C   UNL     1       5.656   6.881  17.219  0.00  0.00    +0.000 C 
ENDROOT
BRANCH   4   7
ATOM      7  N   UNL     1       4.451   3.982  17.450  0.00  0.00    +0.000 N 
ATOM      8  C   UNL     1       5.109   4.021  18.746  0.00  0.00    +0.000 C 
ATOM      9  C   UNL     1       3.977   3.785  19.731  0.00  0.00    +0.000 C 
ATOM     10  N   UNL     1       2.979   3.140  18.932  0.00  0.00    +0.000 N 
ATOM     11  C   UNL     1       3.164   3.461  17.594  0.00  0.00    +0.000 C 
ATOM     12  O   UNL     1       2.293   3.316  16.753  0.00  0.00    +0.000 OA
ATOM     13  H   UNL     1       2.037   2.931  19.234  0.00  0.00    +0.000 HD
ENDBRANCH   4   7
BRANCH   1  14
ATOM     14  C   UNL     1       7.882   7.266  18.143  0.00  0.00    +0.000 C 
BRANCH  14  15
ATOM     15  C   UNL     1       8.162   8.759  17.932  0.00  0.00    +0.000 C 
BRANCH  15  16
ATOM     16  O   UNL     1       8.961   9.262  19.012  0.00  0.00    +0.000 OA
BRANCH  16  20
ATOM     17  C   UNL     1       9.908  13.297  18.496  0.00  0.00    +0.000 A 
ATOM     18  C   UNL     1       8.982  12.650  17.677  0.00  0.00    +0.000 A 
ATOM     19  C   UNL     1       8.679  11.299  17.879  0.00  0.00    +0.000 A 
ATOM     20  C   UNL     1       9.328  10.576  18.879  0.00  0.00    +0.000 A 
ATOM     21  C   UNL     1      10.263  11.222  19.691  0.00  0.00    +0.000 A 
ATOM     22  C   UNL     1      10.558  12.575  19.499  0.00  0.00    +0.000 A 
BRANCH  17  24
ATOM     23  C   UNL     1       9.156  15.522  18.745  0.00  0.00    +0.000 C 
ATOM     24  O   UNL     1      10.123  14.619  18.218  0.00  0.00    +0.000 OA
ENDBRANCH  17  24
ENDBRANCH  16  20
ENDBRANCH  15  16
ENDBRANCH  14  15
ENDBRANCH   1  14
TORSDOF 6
ENDMDL
MODEL 4
REMARK VINA RESULT:      -6.9      4.834      7.680
REMARK  Name = 
REMARK  7 active torsions:
REMARK  status: ('A' for Active; 'I' for Inactive)
REMARK    1  A    between atoms: C_1  and  O_2
REMARK    2  A    between atoms: O_2  and  C_3
REMARK    3  A    between atoms: C_6  and  O_7
REMARK    4  A    between atoms: O_7  and  C_8
REMARK    5  A    between atoms: C_8  and  C_9
REMARK    6  A    between atoms: C_9  and  N_10
REMARK    7  A    between atoms: C_13  and  N_14
REMARK                            x       y       z     vdW  Elec       q    Type
REMARK                         _______ _______ _______ _____ _____    ______ ____
ROOT
ATOM      1  N   UNL     1       7.301   6.547  17.134  0.00  0.00    +0.000 NA
ATOM      2  C   UNL     1       7.229   5.096  17.402  0.00  0.00    +0.000 C 
ATOM      3  C   UNL     1       6.376   4.339  16.384  0.00  0.00    +0.000 C 
ATOM      4  C   UNL     1       4.965   4.922  16.262  0.00  0.00    +0.000 C 
ATOM      5  C   UNL     1       5.102   6.413  15.942  0.00  0.00    +0.000 C 
ATOM      6  C   UNL     1       5.963   7.135  16.976  0.00  0.00    +0.000 C 
ENDROOT
BRANCH   4   7
ATOM      7  N   UNL     1       4.050   4.670  17.389  0.00  0.00    +0.000 N 
ATOM      8  C   UNL     1       3.289   5.745  18.004  0.00  0.00    +0.000 C 
ATOM      9  C   UNL     1       2.130   5.027  18.674  0.00  0.00    +0.000 C 
ATOM     10  N   UNL     1       2.619   3.690  18.825  0.00  0.00    +0.000 N 
ATOM     11  C   UNL     1       3.615   3.441  17.890  0.00  0.00    +0.000 C 
ATOM     12  O   UNL     1       3.972   2.316  17.588  0.00  0.00    +0.000 OA
ATOM     13  H   UNL     1       2.070   2.901  19.139  0.00  0.00    +0.000 HD
ENDBRANCH   4   7
BRANCH   1  14
ATOM     14  C   UNL     1       8.044   7.188  18.251  0.00  0.00    +0.000 C 
BRANCH  14  15
ATOM     15  C   UNL     1       8.241   8.701  18.094  0.00  0.00    +0.000 C 
BRANCH  15  16
ATOM     16  O   UNL     1       9.045   9.202  19.170  0.00  0.00    +0.000 OA
BRANCH  16  20
ATOM     17  C   UNL     1       9.915  13.287  19.160  0.00  0.00    +0.000 A 
ATOM     18  C   UNL     1       9.964  12.529  20.331  0.00  0.00    +0.000 A 
ATOM     19  C   UNL     1       9.676  11.160  20.302  0.00  0.00    +0.000 A 
ATOM     20  C   UNL     1       9.299  10.548  19.107  0.00  0.00    +0.000 A 
ATOM     21  C   UNL     1       9.239  11.310  17.938  0.00  0.00    +0.000 A 
ATOM     22  C   UNL     1       9.540  12.675  17.963  0.00  0.00    +0.000 A 
BRANCH  17  24
ATOM     23  C   UNL     1      11.478  14.888  19.915  0.00  0.00    +0.000 C 
ATOM     24  O   UNL     1      10.224  14.613  19.299  0.00  0.00    +0.000 OA
ENDBRANCH  17  24
ENDBRANCH  16  20
ENDBRANCH  15  16
ENDBRANCH  14  15
ENDBRANCH   1  14
TORSDOF 6
ENDMDL
MODEL 5
REMARK VINA RESULT:      -6.9      4.816      9.085
REMARK  Name = 
REMARK  7 active torsions:
REMARK  status: ('A' for Active; 'I' for Inactive)
REMARK    1  A    between atoms: C_1  and  O_2
REMARK    2  A    between atoms: O_2  and  C_3
REMARK    3  A    between atoms: C_6  and  O_7
REMARK    4  A    between atoms: O_7  and  C_8
REMARK    5  A    between atoms: C_8  and  C_9
REMARK    6  A    between atoms: C_9  and  N_10
REMARK    7  A    between atoms: C_13  and  N_14
REMARK                            x       y       z     vdW  Elec       q    Type
REMARK                         _______ _______ _______ _____ _____    ______ ____
ROOT
ATOM      1  N   UNL     1       3.134   5.750  18.962  0.00  0.00    +0.000 NA
ATOM      2  C   UNL     1       2.829   5.050  17.695  0.00  0.00    +0.000 C 
ATOM      3  C   UNL     1       3.354   3.615  17.662  0.00  0.00    +0.000 C 
ATOM      4  C   UNL     1       4.855   3.540  17.957  0.00  0.00    +0.000 C 
ATOM      5  C   UNL     1       5.103   4.240  19.296  0.00  0.00    +0.000 C 
ATOM      6  C   UNL     1       4.562   5.668  19.295  0.00  0.00    +0.000 C 
ENDROOT
BRANCH   4   7
ATOM      7  N   UNL     1       5.758   4.018  16.896  0.00  0.00    +0.000 N 
ATOM      8  C   UNL     1       5.271   4.311  15.558  0.00  0.00    +0.000 C 
ATOM      9  C   UNL     1       6.318   5.256  14.993  0.00  0.00    +0.000 C 
ATOM     10  N   UNL     1       7.471   4.981  15.795  0.00  0.00    +0.000 N 
ATOM     11  C   UNL     1       7.082   4.446  17.017  0.00  0.00    +0.000 C 
ATOM     12  O   UNL     1       7.814   4.420  17.990  0.00  0.00    +0.000 OA
ATOM     13  H   UNL     1       8.334   5.507  15.773  0.00  0.00    +0.000 HD
ENDBRANCH   4   7
BRANCH   1  14
ATOM     14  C   UNL     1       2.690   7.163  18.828  0.00  0.00    +0.000 C 
BRANCH  14  15
ATOM     15  C   UNL     1       1.882   7.688  20.022  0.00  0.00    +0.000 C 
BRANCH  15  16
ATOM     16  O   UNL     1       1.364   8.991  19.724  0.00  0.00    +0.000 OA
BRANCH  16  20
ATOM     17  C   UNL     1      -0.996  10.796  22.659  0.00  0.00    +0.000 A 
ATOM     18  C   UNL     1      -0.916  11.308  21.363  0.00  0.00    +0.000 A 
ATOM     19  C   UNL     1      -0.124  10.677  20.399  0.00  0.00    +0.000 A 
ATOM     20  C   UNL     1       0.625   9.550  20.734  0.00  0.00    +0.000 A 
ATOM     21  C   UNL     1       0.554   9.045  22.035  0.00  0.00    +0.000 A 
ATOM     22  C   UNL     1      -0.248   9.667  22.996  0.00  0.00    +0.000 A 
BRANCH  17  24
ATOM     23  C   UNL     1      -2.803  12.296  22.906  0.00  0.00    +0.000 C 
ATOM     24  O   UNL     1      -1.806  11.485  23.520  0.00  0.00    +0.000 OA
ENDBRANCH  17  24
ENDBRANCH  16  20
ENDBRANCH  15  16
ENDBRANCH  14  15
ENDBRANCH   1  14
TORSDOF 6
ENDMDL
MODEL 6
REMARK VINA RESULT:      -6.9      3.540      6.776
REMARK  Name = 
REMARK  7 active torsions:
REMARK  status: ('A' for Active; 'I' for Inactive)
REMARK    1  A    between atoms: C_1  and  O_2
REMARK    2  A    between atoms: O_2  and  C_3
REMARK    3  A    between atoms: C_6  and  O_7
REMARK    4  A    between atoms: O_7  and  C_8
REMARK    5  A    between atoms: C_8  and  C_9
REMARK    6  A    between atoms: C_9  and  N_10
REMARK    7  A    between atoms: C_13  and  N_14
REMARK                            x       y       z     vdW  Elec       q    Type
REMARK                         _______ _______ _______ _____ _____    ______ ____
ROOT
ATOM      1  N   UNL     1       4.920   4.003  17.460  0.00  0.00    +0.000 NA
ATOM      2  C   UNL     1       5.080   3.902  18.926  0.00  0.00    +0.000 C 
ATOM      3  C   UNL     1       4.767   2.508  19.468  0.00  0.00    +0.000 C 
ATOM      4  C   UNL     1       3.374   2.025  19.057  0.00  0.00    +0.000 C 
ATOM      5  C   UNL     1       3.282   2.110  17.530  0.00  0.00    +0.000 C 
ATOM      6  C   UNL     1       3.605   3.515  17.024  0.00  0.00    +0.000 C 
ENDROOT
BRANCH   4   7
ATOM      7  N   UNL     1       2.230   2.668  19.727  0.00  0.00    +0.000 N 
ATOM      8  C   UNL     1       2.421   3.624  20.805  0.00  0.00    +0.000 C 
ATOM      9  C   UNL     1       1.127   4.420  20.813  0.00  0.00    +0.000 C 
ATOM     10  N   UNL     1       0.202   3.543  20.163  0.00  0.00    +0.000 N 
ATOM     11  C   UNL     1       0.887   2.650  19.349  0.00  0.00    +0.000 C 
ATOM     12  O   UNL     1       0.345   2.021  18.457  0.00  0.00    +0.000 OA
ATOM     13  H   UNL     1      -0.741   3.788  19.893  0.00  0.00    +0.000 HD
ENDBRANCH   4   7
BRANCH   1  14
ATOM     14  C   UNL     1       5.125   5.424  17.069  0.00  0.00    +0.000 C 
BRANCH  14  15
ATOM     15  C   UNL     1       4.503   6.441  18.035  0.00  0.00    +0.000 C 
BRANCH  15  16
ATOM     16  O   UNL     1       3.390   7.092  17.407  0.00  0.00    +0.000 OA
BRANCH  16  20
ATOM     17  C   UNL     1       0.905   9.390  19.853  0.00  0.00    +0.000 A 
ATOM     18  C   UNL     1       1.191   9.763  18.539  0.00  0.00    +0.000 A 
ATOM     19  C   UNL     1       2.021   8.969  17.741  0.00  0.00    +0.000 A 
ATOM     20  C   UNL     1       2.600   7.814  18.263  0.00  0.00    +0.000 A 
ATOM     21  C   UNL     1       2.322   7.447  19.582  0.00  0.00    +0.000 A 
ATOM     22  C   UNL     1       1.483   8.232  20.377  0.00  0.00    +0.000 A 
BRANCH  17  24
ATOM     23  C   UNL     1      -0.241   9.830  21.871  0.00  0.00    +0.000 C 
ATOM     24  O   UNL     1       0.076  10.233  20.541  0.00  0.00    +0.000 OA
ENDBRANCH  17  24
ENDBRANCH  16  20
ENDBRANCH  15  16
ENDBRANCH  14  15
ENDBRANCH   1  14
TORSDOF 6
ENDMDL
MODEL 7
REMARK VINA RESULT:      -6.9      5.068      7.575
REMARK  Name = 
REMARK  7 active torsions:
REMARK  status: ('A' for Active; 'I' for Inactive)
REMARK    1  A    between atoms: C_1  and  O_2
REMARK    2  A    between atoms: O_2  and  C_3
REMARK    3  A    between atoms: C_6  and  O_7
REMARK    4  A    between atoms: O_7  and  C_8
REMARK    5  A    between atoms: C_8  and  C_9
REMARK    6  A    between atoms: C_9  and  N_10
REMARK    7  A    between atoms: C_13  and  N_14
REMARK                            x       y       z     vdW  Elec       q    Type
REMARK                         _______ _______ _______ _____ _____    ______ ____
ROOT
ATOM      1  N   UNL     1       7.281   7.152  17.126  0.00  0.00    +0.000 NA
ATOM      2  C   UNL     1       7.498   6.268  18.291  0.00  0.00    +0.000 C 
ATOM      3  C   UNL     1       7.341   4.785  17.955  0.00  0.00    +0.000 C 
ATOM      4  C   UNL     1       5.989   4.478  17.307  0.00  0.00    +0.000 C 
ATOM      5  C   UNL     1       5.838   5.390  16.085  0.00  0.00    +0.000 C 
ATOM      6  C   UNL     1       6.006   6.862  16.457  0.00  0.00    +0.000 C 
ENDROOT
BRANCH   4   7
ATOM      7  N   UNL     1       4.810   4.521  18.190  0.00  0.00    +0.000 N 
ATOM      8  C   UNL     1       3.642   5.320  17.858  0.00  0.00    +0.000 C 
ATOM      9  C   UNL     1       2.525   4.675  18.662  0.00  0.00    +0.000 C 
ATOM     10  N   UNL     1       3.229   3.987  19.701  0.00  0.00    +0.000 N 
ATOM     11  C   UNL     1       4.529   3.716  19.295  0.00  0.00    +0.000 C 
ATOM     12  O   UNL     1       5.231   2.881  19.839  0.00  0.00    +0.000 OA
ATOM     13  H   UNL     1       2.809   3.352  20.367  0.00  0.00    +0.000 HD
ENDBRANCH   4   7
BRANCH   1  14
ATOM     14  C   UNL     1       7.333   8.561  17.600  0.00  0.00    +0.000 C 
BRANCH  14  15
ATOM     15  C   UNL     1       8.646   8.946  18.294  0.00  0.00    +0.000 C 
BRANCH  15  16
ATOM     16  O   UNL     1       8.518  10.242  18.894  0.00  0.00    +0.000 OA
BRANCH  16  20
ATOM     17  C   UNL     1      11.161  13.185  17.555  0.00  0.00    +0.000 A 
ATOM     18  C   UNL     1       9.778  13.331  17.436  0.00  0.00    +0.000 A 
ATOM     19  C   UNL     1       8.917  12.332  17.902  0.00  0.00    +0.000 A 
ATOM     20  C   UNL     1       9.435  11.162  18.456  0.00  0.00    +0.000 A 
ATOM     21  C   UNL     1      10.819  11.012  18.563  0.00  0.00    +0.000 A 
ATOM     22  C   UNL     1      11.681  12.015  18.110  0.00  0.00    +0.000 A 
BRANCH  17  24
ATOM     23  C   UNL     1      11.217  15.460  16.921  0.00  0.00    +0.000 C 
ATOM     24  O   UNL     1      11.910  14.225  17.076  0.00  0.00    +0.000 OA
ENDBRANCH  17  24
ENDBRANCH  16  20
ENDBRANCH  15  16
ENDBRANCH  14  15
ENDBRANCH   1  14
TORSDOF 6
ENDMDL
MODEL 8
REMARK VINA RESULT:      -6.8      3.600      6.992
REMARK  Name = 
REMARK  7 active torsions:
REMARK  status: ('A' for Active; 'I' for Inactive)
REMARK    1  A    between atoms: C_1  and  O_2
REMARK    2  A    between atoms: O_2  and  C_3
REMARK    3  A    between atoms: C_6  and  O_7
REMARK    4  A    between atoms: O_7  and  C_8
REMARK    5  A    between atoms: C_8  and  C_9
REMARK    6  A    between atoms: C_9  and  N_10
REMARK    7  A    between atoms: C_13  and  N_14
REMARK                            x       y       z     vdW  Elec       q    Type
REMARK                         _______ _______ _______ _____ _____    ______ ____
ROOT
ATOM      1  N   UNL     1       4.986   4.743  17.194  0.00  0.00    +0.000 NA
ATOM      2  C   UNL     1       5.110   4.907  18.658  0.00  0.00    +0.000 C 
ATOM      3  C   UNL     1       5.182   3.576  19.406  0.00  0.00    +0.000 C 
ATOM      4  C   UNL     1       3.998   2.663  19.078  0.00  0.00    +0.000 C 
ATOM      5  C   UNL     1       3.945   2.494  17.556  0.00  0.00    +0.000 C 
ATOM      6  C   UNL     1       3.879   3.843  16.842  0.00  0.00    +0.000 C 
ENDROOT
BRANCH   4   7
ATOM      7  N   UNL     1       2.694   3.045  19.648  0.00  0.00    +0.000 N 
ATOM      8  C   UNL     1       1.582   3.443  18.800  0.00  0.00    +0.000 C 
ATOM      9  C   UNL     1       0.361   3.204  19.672  0.00  0.00    +0.000 C 
ATOM     10  N   UNL     1       0.900   3.222  20.998  0.00  0.00    +0.000 N 
ATOM     11  C   UNL     1       2.252   2.904  20.964  0.00  0.00    +0.000 C 
ATOM     12  O   UNL     1       2.870   2.541  21.950  0.00  0.00    +0.000 OA
ATOM     13  H   UNL     1       0.389   2.986  21.838  0.00  0.00    +0.000 HD
ENDBRANCH   4   7
BRANCH   1  14
ATOM     14  C   UNL     1       4.798   6.090  16.592  0.00  0.00    +0.000 C 
BRANCH  14  15
ATOM     15  C   UNL     1       4.194   7.130  17.546  0.00  0.00    +0.000 C 
BRANCH  15  16
ATOM     16  O   UNL     1       2.796   6.870  17.729  0.00  0.00    +0.000 OA
BRANCH  16  20
ATOM     17  C   UNL     1       0.910   9.286  20.566  0.00  0.00    +0.000 A 
ATOM     18  C   UNL     1       1.103   9.711  19.251  0.00  0.00    +0.000 A 
ATOM     19  C   UNL     1       1.731   8.876  18.320  0.00  0.00    +0.000 A 
ATOM     20  C   UNL     1       2.204   7.624  18.708  0.00  0.00    +0.000 A 
ATOM     21  C   UNL     1       2.021   7.204  20.028  0.00  0.00    +0.000 A 
ATOM     22  C   UNL     1       1.382   8.031  20.956  0.00  0.00    +0.000 A 
BRANCH  17  24
ATOM     23  C   UNL     1      -0.056   9.683  22.684  0.00  0.00    +0.000 C 
ATOM     24  O   UNL     1       0.278  10.176  21.390  0.00  0.00    +0.000 OA
ENDBRANCH  17  24
ENDBRANCH  16  20
ENDBRANCH  15  16
ENDBRANCH  14  15
ENDBRANCH   1  14
TORSDOF 6
ENDMDL
MODEL 9
REMARK VINA RESULT:      -6.8      0.931      1.369
REMARK  Name = 
REMARK  7 active torsions:
REMARK  status: ('A' for Active; 'I' for Inactive)
REMARK    1  A    between atoms: C_1  and  O_2
REMARK    2  A    between atoms: O_2  and  C_3
REMARK    3  A    between atoms: C_6  and  O_7
REMARK    4  A    between atoms: O_7  and  C_8
REMARK    5  A    between atoms: C_8  and  C_9
REMARK    6  A    between atoms: C_9  and  N_10
REMARK    7  A    between atoms: C_13  and  N_14
REMARK                            x       y       z     vdW  Elec       q    Type
REMARK                         _______ _______ _______ _____ _____    ______ ____
ROOT
ATOM      1  N   UNL     1       5.110   6.080  18.507  0.00  0.00    +0.000 NA
ATOM      2  C   UNL     1       4.111   6.067  17.418  0.00  0.00    +0.000 C 
ATOM      3  C   UNL     1       2.685   6.316  17.910  0.00  0.00    +0.000 C 
ATOM      4  C   UNL     1       2.274   5.337  19.013  0.00  0.00    +0.000 C 
ATOM      5  C   UNL     1       3.318   5.425  20.129  0.00  0.00    +0.000 C 
ATOM      6  C   UNL     1       4.730   5.177  19.601  0.00  0.00    +0.000 C 
ENDROOT
BRANCH   4   7
ATOM      7  N   UNL     1       2.011   3.949  18.596  0.00  0.00    +0.000 N 
ATOM      8  C   UNL     1       2.552   3.412  17.358  0.00  0.00    +0.000 C 
ATOM      9  C   UNL     1       2.538   1.909  17.582  0.00  0.00    +0.000 C 
ATOM     10  N   UNL     1       1.559   1.743  18.612  0.00  0.00    +0.000 N 
ATOM     11  C   UNL     1       1.432   2.919  19.340  0.00  0.00    +0.000 C 
ATOM     12  O   UNL     1       0.920   2.960  20.445  0.00  0.00    +0.000 OA
ATOM     13  H   UNL     1       1.362   0.876  19.094  0.00  0.00    +0.000 HD
ENDBRANCH   4   7
BRANCH   1  14
ATOM     14  C   UNL     1       6.428   5.703  17.929  0.00  0.00    +0.000 C 
BRANCH  14  15
ATOM     15  C   UNL     1       6.752   6.388  16.595  0.00  0.00    +0.000 C 
BRANCH  15  16
ATOM     16  O   UNL     1       7.609   5.547  15.811  0.00  0.00    +0.000 OA
BRANCH  16  20
ATOM     17  C   UNL     1       5.896   3.695  12.482  0.00  0.00    +0.000 A 
ATOM     18  C   UNL     1       7.107   4.384  12.398  0.00  0.00    +0.000 A 
ATOM     19  C   UNL     1       7.661   4.987  13.532  0.00  0.00    +0.000 A 
ATOM     20  C   UNL     1       6.988   4.938  14.752  0.00  0.00    +0.000 A 
ATOM     21  C   UNL     1       5.770   4.258  14.833  0.00  0.00    +0.000 A 
ATOM     22  C   UNL     1       5.222   3.644  13.704  0.00  0.00    +0.000 A 
BRANCH  17  24
ATOM     23  C   UNL     1       4.045   2.909  11.244  0.00  0.00    +0.000 C 
ATOM     24  O   UNL     1       5.450   3.136  11.317  0.00  0.00    +0.000 OA
ENDBRANCH  17  24
ENDBRANCH  16  20
ENDBRANCH  15  16
ENDBRANCH  14  15
ENDBRANCH   1  14
TORSDOF 6
ENDMDL
