MODEL 1
REMARK VINA RESULT:      -8.7      0.000      0.000
REMARK  Name = 
REMARK  11 active torsions:
REMARK  status: ('A' for Active; 'I' for Inactive)
REMARK    1  A    between atoms: C_1  and  O_2
REMARK    2  A    between atoms: O_2  and  C_3
REMARK    3  A    between atoms: C_6  and  N_7
REMARK    4  A    between atoms: N_7  and  C_8
REMARK    5  A    between atoms: N_7  and  S_19
REMARK    6  A    between atoms: C_8  and  C_9
REMARK    7  A    between atoms: C_9  and  C_10
REMARK    8  A    between atoms: N_16  and  C_17
REMARK    9  A    between atoms: S_19  and  C_22
REMARK   10  A    between atoms: C_25  and  C_26
REMARK   11  A    between atoms: C_28  and  C_29
REMARK                            x       y       z     vdW  Elec       q    Type
REMARK                         _______ _______ _______ _____ _____    ______ ____
ROOT
ATOM      1  N   UNL     1       5.813   4.861  17.742  0.00  0.00    +0.000 N 
ENDROOT
BRANCH   1   5
ATOM      2  C   UNL     1       6.241   4.040  13.595  0.00  0.00    +0.000 A 
ATOM      3  C   UNL     1       7.350   4.411  14.359  0.00  0.00    +0.000 A 
ATOM      4  C   UNL     1       7.223   4.713  15.720  0.00  0.00    +0.000 A 
ATOM      5  C   UNL     1       5.970   4.647  16.329  0.00  0.00    +0.000 A 
ATOM      6  C   UNL     1       4.849   4.317  15.557  0.00  0.00    +0.000 A 
ATOM      7  C   UNL     1       4.982   4.009  14.188  0.00  0.00    +0.000 A 
BRANCH   2   9
ATOM      8  C   UNL     1       5.751   2.742  11.667  0.00  0.00    +0.000 C 
ATOM      9  O   UNL     1       6.511   3.783  12.278  0.00  0.00    +0.000 OA
ENDBRANCH   2   9
ENDBRANCH   1   5
BRANCH   1  10
ATOM     10  S   UNL     1       4.693   3.892  18.607  0.00  0.00    +0.000 S 
ATOM     11  O   UNL     1       4.108   2.939  17.687  0.00  0.00    +0.000 OA
ATOM     12  O   UNL     1       5.413   3.396  19.767  0.00  0.00    +0.000 OA
BRANCH  10  13
ATOM     13  C   UNL     1       3.368   4.956  19.270  0.00  0.00    +0.000 A 
ATOM     14  C   UNL     1       3.349   6.289  18.804  0.00  0.00    +0.000 A 
ATOM     15  C   UNL     1       2.510   7.264  19.368  0.00  0.00    +0.000 A 
ATOM     16  C   UNL     1       1.661   6.940  20.420  0.00  0.00    +0.000 A 
ATOM     17  C   UNL     1       0.747   7.955  21.050  0.00  0.00    +0.000 C 
ATOM     18  C   UNL     1       1.685   5.627  20.907  0.00  0.00    +0.000 A 
ATOM     19  C   UNL     1       2.556   4.633  20.382  0.00  0.00    +0.000 A 
ATOM     20  C   UNL     1       2.538   3.311  21.093  0.00  0.00    +0.000 C 
ENDBRANCH  10  13
ENDBRANCH   1  10
BRANCH   1  21
ATOM     21  C   UNL     1       6.165   6.205  18.284  0.00  0.00    +0.000 C 
BRANCH  21  22
ATOM     22  C   UNL     1       7.674   6.391  18.526  0.00  0.00    +0.000 C 
BRANCH  22  23
ATOM     23  C   UNL     1       8.051   7.817  18.123  0.00  0.00    +0.000 C 
ATOM     24  O   UNL     1       7.759   8.229  17.000  0.00  0.00    +0.000 OA
ATOM     25  N   UNL     1       8.734   8.524  19.091  0.00  0.00    +0.000 N 
ATOM     26  C   UNL     1       9.073   9.869  18.967  0.00  0.00    +0.000 A 
ATOM     27  C   UNL     1       9.973  10.570  19.813  0.00  0.00    +0.000 A 
ATOM     28  C   UNL     1      10.015  11.859  19.326  0.00  0.00    +0.000 A 
ATOM     29  N   UNL     1       9.135  11.883  18.286  0.00  0.00    +0.000 N 
ATOM     30  C   UNL     1       8.744  13.024  17.494  0.00  0.00    +0.000 C 
ATOM     31  N   UNL     1       8.569  10.695  18.042  0.00  0.00    +0.000 NA
ATOM     32  H   UNL     1       9.080   8.055  19.913  0.00  0.00    +0.000 HD
ENDBRANCH  22  23
ENDBRANCH  21  22
ENDBRANCH   1  21
TORSDOF 7
ENDMDL
MODEL 2
REMARK VINA RESULT:      -8.4      3.780      6.792
REMARK  Name = 
REMARK  11 active torsions:
REMARK  status: ('A' for Active; 'I' for Inactive)
REMARK    1  A    between atoms: C_1  and  O_2
REMARK    2  A    between atoms: O_2  and  C_3
REMARK    3  A    between atoms: C_6  and  N_7
REMARK    4  A    between atoms: N_7  and  C_8
REMARK    5  A    between atoms: N_7  and  S_19
REMARK    6  A    between atoms: C_8  and  C_9
REMARK    7  A    between atoms: C_9  and  C_10
REMARK    8  A    between atoms: N_16  and  C_17
REMARK    9  A    between atoms: S_19  and  C_22
REMARK   10  A    between atoms: C_25  and  C_26
REMARK   11  A    between atoms: C_28  and  C_29
REMARK                            x       y       z     vdW  Elec       q    Type
REMARK                         _______ _______ _______ _____ _____    ______ ____
ROOT
ATOM      1  N   UNL     1       3.048   7.273  18.103  0.00  0.00    +0.000 N 
ENDROOT
BRANCH   1   5
ATOM      2  C   UNL     1       1.595   3.650  19.782  0.00  0.00    +0.000 A 
ATOM      3  C   UNL     1       2.341   4.539  20.560  0.00  0.00    +0.000 A 
ATOM      4  C   UNL     1       2.852   5.723  20.015  0.00  0.00    +0.000 A 
ATOM      5  C   UNL     1       2.618   6.026  18.674  0.00  0.00    +0.000 A 
ATOM      6  C   UNL     1       1.907   5.116  17.880  0.00  0.00    +0.000 A 
ATOM      7  C   UNL     1       1.391   3.927  18.434  0.00  0.00    +0.000 A 
BRANCH   2   9
ATOM      8  C   UNL     1       1.507   2.440  21.825  0.00  0.00    +0.000 C 
ATOM      9  O   UNL     1       1.168   2.530  20.442  0.00  0.00    +0.000 OA
ENDBRANCH   2   9
ENDBRANCH   1   5
BRANCH   1  10
ATOM     10  S   UNL     1       1.889   8.514  17.859  0.00  0.00    +0.000 S 
ATOM     11  O   UNL     1       2.538   9.620  17.186  0.00  0.00    +0.000 OA
ATOM     12  O   UNL     1       0.753   7.873  17.219  0.00  0.00    +0.000 OA
BRANCH  10  13
ATOM     13  C   UNL     1       1.279   9.090  19.479  0.00  0.00    +0.000 A 
ATOM     14  C   UNL     1       1.723   8.362  20.604  0.00  0.00    +0.000 A 
ATOM     15  C   UNL     1       1.188   8.573  21.887  0.00  0.00    +0.000 A 
ATOM     16  C   UNL     1       0.188   9.518  22.086  0.00  0.00    +0.000 A 
ATOM     17  C   UNL     1      -0.409   9.773  23.443  0.00  0.00    +0.000 C 
ATOM     18  C   UNL     1      -0.276  10.232  20.975  0.00  0.00    +0.000 A 
ATOM     19  C   UNL     1       0.219  10.007  19.660  0.00  0.00    +0.000 A 
ATOM     20  C   UNL     1      -0.468  10.773  18.567  0.00  0.00    +0.000 C 
ENDBRANCH  10  13
ENDBRANCH   1  10
BRANCH   1  21
ATOM     21  C   UNL     1       4.274   7.262  17.256  0.00  0.00    +0.000 C 
BRANCH  21  22
ATOM     22  C   UNL     1       5.285   6.173  17.657  0.00  0.00    +0.000 C 
BRANCH  22  23
ATOM     23  C   UNL     1       5.438   5.205  16.483  0.00  0.00    +0.000 C 
ATOM     24  O   UNL     1       4.822   4.139  16.490  0.00  0.00    +0.000 OA
ATOM     25  N   UNL     1       6.308   5.629  15.499  0.00  0.00    +0.000 N 
ATOM     26  C   UNL     1       6.504   4.949  14.300  0.00  0.00    +0.000 A 
ATOM     27  C   UNL     1       7.549   5.207  13.373  0.00  0.00    +0.000 A 
ATOM     28  C   UNL     1       7.366   4.305  12.347  0.00  0.00    +0.000 A 
ATOM     29  N   UNL     1       6.236   3.614  12.667  0.00  0.00    +0.000 N 
ATOM     30  C   UNL     1       5.565   2.614  11.872  0.00  0.00    +0.000 C 
ATOM     31  N   UNL     1       5.711   3.973  13.844  0.00  0.00    +0.000 NA
ATOM     32  H   UNL     1       6.896   6.432  15.655  0.00  0.00    +0.000 HD
ENDBRANCH  22  23
ENDBRANCH  21  22
ENDBRANCH   1  21
TORSDOF 7
ENDMDL
MODEL 3
REMARK VINA RESULT:      -8.3      5.880      9.418
REMARK  Name = 
REMARK  11 active torsions:
REMARK  status: ('A' for Active; 'I' for Inactive)
REMARK    1  A    between atoms: C_1  and  O_2
REMARK    2  A    between atoms: O_2  and  C_3
REMARK    3  A    between atoms: C_6  and  N_7
REMARK    4  A    between atoms: N_7  and  C_8
REMARK    5  A    between atoms: N_7  and  S_19
REMARK    6  A    between atoms: C_8  and  C_9
REMARK    7  A    between atoms: C_9  and  C_10
REMARK    8  A    between atoms: N_16  and  C_17
REMARK    9  A    between atoms: S_19  and  C_22
REMARK   10  A    between atoms: C_25  and  C_26
REMARK   11  A    between atoms: C_28  and  C_29
REMARK                            x       y       z     vdW  Elec       q    Type
REMARK                         _______ _______ _______ _____ _____    ______ ____
ROOT
ATOM      1  N   UNL     1       0.144  10.977  19.382  0.00  0.00    +0.000 N 
ENDROOT
BRANCH   1   5
ATOM      2  C   UNL     1      -3.472  10.954  17.151  0.00  0.00    +0.000 A 
ATOM      3  C   UNL     1      -3.356  11.744  18.297  0.00  0.00    +0.000 A 
ATOM      4  C   UNL     1      -2.182  11.742  19.060  0.00  0.00    +0.000 A 
ATOM      5  C   UNL     1      -1.108  10.938  18.676  0.00  0.00    +0.000 A 
ATOM      6  C   UNL     1      -1.237  10.113  17.552  0.00  0.00    +0.000 A 
ATOM      7  C   UNL     1      -2.419  10.122  16.784  0.00  0.00    +0.000 A 
BRANCH   2   9
ATOM      8  C   UNL     1      -5.645  11.914  17.102  0.00  0.00    +0.000 C 
ATOM      9  O   UNL     1      -4.678  11.049  16.509  0.00  0.00    +0.000 OA
ENDBRANCH   2   9
ENDBRANCH   1   5
BRANCH   1  10
ATOM     10  S   UNL     1       0.446  12.276  20.461  0.00  0.00    +0.000 S 
ATOM     11  O   UNL     1       1.632  11.963  21.231  0.00  0.00    +0.000 OA
ATOM     12  O   UNL     1       0.437  13.477  19.644  0.00  0.00    +0.000 OA
BRANCH  10  13
ATOM     13  C   UNL     1      -0.967  12.447  21.602  0.00  0.00    +0.000 A 
ATOM     14  C   UNL     1      -1.551  13.730  21.679  0.00  0.00    +0.000 A 
ATOM     15  C   UNL     1      -2.516  14.052  22.648  0.00  0.00    +0.000 A 
ATOM     16  C   UNL     1      -2.927  13.102  23.576  0.00  0.00    +0.000 A 
ATOM     17  C   UNL     1      -3.958  13.408  24.628  0.00  0.00    +0.000 C 
ATOM     18  C   UNL     1      -2.341  11.832  23.524  0.00  0.00    +0.000 A 
ATOM     19  C   UNL     1      -1.331  11.494  22.580  0.00  0.00    +0.000 A 
ATOM     20  C   UNL     1      -0.726  10.129  22.736  0.00  0.00    +0.000 C 
ENDBRANCH  10  13
ENDBRANCH   1  10
BRANCH   1  21
ATOM     21  C   UNL     1       1.305  10.266  18.774  0.00  0.00    +0.000 C 
BRANCH  21  22
ATOM     22  C   UNL     1       1.504   8.841  19.321  0.00  0.00    +0.000 C 
BRANCH  22  23
ATOM     23  C   UNL     1       2.323   8.047  18.303  0.00  0.00    +0.000 C 
ATOM     24  O   UNL     1       2.668   8.583  17.249  0.00  0.00    +0.000 OA
ATOM     25  N   UNL     1       2.586   6.743  18.670  0.00  0.00    +0.000 N 
ATOM     26  C   UNL     1       3.405   5.887  17.938  0.00  0.00    +0.000 A 
ATOM     27  C   UNL     1       3.513   4.485  18.138  0.00  0.00    +0.000 A 
ATOM     28  C   UNL     1       4.420   4.044  17.198  0.00  0.00    +0.000 A 
ATOM     29  N   UNL     1       4.837   5.164  16.542  0.00  0.00    +0.000 N 
ATOM     30  C   UNL     1       5.854   5.255  15.522  0.00  0.00    +0.000 C 
ATOM     31  N   UNL     1       4.228   6.280  16.959  0.00  0.00    +0.000 NA
ATOM     32  H   UNL     1       2.123   6.338  19.468  0.00  0.00    +0.000 HD
ENDBRANCH  22  23
ENDBRANCH  21  22
ENDBRANCH   1  21
TORSDOF 7
ENDMDL
MODEL 4
REMARK VINA RESULT:      -8.2      3.859      7.027
REMARK  Name = 
REMARK  11 active torsions:
REMARK  status: ('A' for Active; 'I' for Inactive)
REMARK    1  A    between atoms: C_1  and  O_2
REMARK    2  A    between atoms: O_2  and  C_3
REMARK    3  A    between atoms: C_6  and  N_7
REMARK    4  A    between atoms: N_7  and  C_8
REMARK    5  A    between atoms: N_7  and  S_19
REMARK    6  A    between atoms: C_8  and  C_9
REMARK    7  A    between atoms: C_9  and  C_10
REMARK    8  A    between atoms: N_16  and  C_17
REMARK    9  A    between atoms: S_19  and  C_22
REMARK   10  A    between atoms: C_25  and  C_26
REMARK   11  A    between atoms: C_28  and  C_29
REMARK                            x       y       z     vdW  Elec       q    Type
REMARK                         _______ _______ _______ _____ _____    ______ ____
ROOT
ATOM      1  N   UNL     1       3.781   7.009  17.812  0.00  0.00    +0.000 N 
ENDROOT
BRANCH   1   5
ATOM      2  C   UNL     1       1.430   4.269  20.053  0.00  0.00    +0.000 A 
ATOM      3  C   UNL     1       1.757   3.994  18.723  0.00  0.00    +0.000 A 
ATOM      4  C   UNL     1       2.507   4.898  17.961  0.00  0.00    +0.000 A 
ATOM      5  C   UNL     1       2.934   6.097  18.533  0.00  0.00    +0.000 A 
ATOM      6  C   UNL     1       2.571   6.395  19.852  0.00  0.00    +0.000 A 
ATOM      7  C   UNL     1       1.820   5.480  20.617  0.00  0.00    +0.000 A 
BRANCH   2   9
ATOM      8  C   UNL     1       1.362   2.510  21.648  0.00  0.00    +0.000 C 
ATOM      9  O   UNL     1       0.686   3.301  20.672  0.00  0.00    +0.000 OA
ENDBRANCH   2   9
ENDBRANCH   1   5
BRANCH   1  10
ATOM     10  S   UNL     1       5.473   6.729  17.796  0.00  0.00    +0.000 S 
ATOM     11  O   UNL     1       6.148   8.010  17.764  0.00  0.00    +0.000 OA
ATOM     12  O   UNL     1       5.734   5.827  18.905  0.00  0.00    +0.000 OA
BRANCH  10  13
ATOM     13  C   UNL     1       5.912   5.797  16.291  0.00  0.00    +0.000 A 
ATOM     14  C   UNL     1       5.038   5.945  15.192  0.00  0.00    +0.000 A 
ATOM     15  C   UNL     1       5.146   5.145  14.041  0.00  0.00    +0.000 A 
ATOM     16  C   UNL     1       6.131   4.168  13.953  0.00  0.00    +0.000 A 
ATOM     17  C   UNL     1       6.278   3.292  12.738  0.00  0.00    +0.000 C 
ATOM     18  C   UNL     1       6.990   3.996  15.044  0.00  0.00    +0.000 A 
ATOM     19  C   UNL     1       6.875   4.763  16.237  0.00  0.00    +0.000 A 
ATOM     20  C   UNL     1       7.799   4.373  17.353  0.00  0.00    +0.000 C 
ENDBRANCH  10  13
ENDBRANCH   1  10
BRANCH   1  21
ATOM     21  C   UNL     1       3.282   8.397  17.599  0.00  0.00    +0.000 C 
BRANCH  21  22
ATOM     22  C   UNL     1       1.748   8.512  17.654  0.00  0.00    +0.000 C 
BRANCH  22  23
ATOM     23  C   UNL     1       1.391   9.777  18.434  0.00  0.00    +0.000 C 
ATOM     24  O   UNL     1       0.586   9.712  19.364  0.00  0.00    +0.000 OA
ATOM     25  N   UNL     1       2.013  10.924  17.983  0.00  0.00    +0.000 N 
ATOM     26  C   UNL     1       1.909  12.158  18.621  0.00  0.00    +0.000 A 
ATOM     27  C   UNL     1       2.324  13.401  18.073  0.00  0.00    +0.000 A 
ATOM     28  C   UNL     1       2.030  14.346  19.032  0.00  0.00    +0.000 A 
ATOM     29  N   UNL     1       1.522  13.649  20.087  0.00  0.00    +0.000 N 
ATOM     30  C   UNL     1       1.141  14.166  21.379  0.00  0.00    +0.000 C 
ATOM     31  N   UNL     1       1.425  12.334  19.856  0.00  0.00    +0.000 NA
ATOM     32  H   UNL     1       2.522  10.916  17.114  0.00  0.00    +0.000 HD
ENDBRANCH  22  23
ENDBRANCH  21  22
ENDBRANCH   1  21
TORSDOF 7
ENDMDL
MODEL 5
REMARK VINA RESULT:      -8.2      6.157      9.650
REMARK  Name = 
REMARK  11 active torsions:
REMARK  status: ('A' for Active; 'I' for Inactive)
REMARK    1  A    between atoms: C_1  and  O_2
REMARK    2  A    between atoms: O_2  and  C_3
REMARK    3  A    between atoms: C_6  and  N_7
REMARK    4  A    between atoms: N_7  and  C_8
REMARK    5  A    between atoms: N_7  and  S_19
REMARK    6  A    between atoms: C_8  and  C_9
REMARK    7  A    between atoms: C_9  and  C_10
REMARK    8  A    between atoms: N_16  and  C_17
REMARK    9  A    between atoms: S_19  and  C_22
REMARK   10  A    between atoms: C_25  and  C_26
REMARK   11  A    between atoms: C_28  and  C_29
REMARK                            x       y       z     vdW  Elec       q    Type
REMARK                         _______ _______ _______ _____ _____    ______ ____
ROOT
ATOM      1  N   UNL     1       0.155  11.731  20.401  0.00  0.00    +0.000 N 
ENDROOT
BRANCH   1   5
ATOM      2  C   UNL     1       3.251  14.351  19.137  0.00  0.00    +0.000 A 
ATOM      3  C   UNL     1       2.672  13.456  18.234  0.00  0.00    +0.000 A 
ATOM      4  C   UNL     1       1.671  12.566  18.640  0.00  0.00    +0.000 A 
ATOM      5  C   UNL     1       1.242  12.566  19.967  0.00  0.00    +0.000 A 
ATOM      6  C   UNL     1       1.851  13.432  20.884  0.00  0.00    +0.000 A 
ATOM      7  C   UNL     1       2.855  14.330  20.470  0.00  0.00    +0.000 A 
BRANCH   2   9
ATOM      8  C   UNL     1       3.774  16.311  17.899  0.00  0.00    +0.000 C 
ATOM      9  O   UNL     1       4.223  15.155  18.604  0.00  0.00    +0.000 OA
ENDBRANCH   2   9
ENDBRANCH   1   5
BRANCH   1  10
ATOM     10  S   UNL     1      -1.448  12.331  20.281  0.00  0.00    +0.000 S 
ATOM     11  O   UNL     1      -2.149  12.009  21.506  0.00  0.00    +0.000 OA
ATOM     12  O   UNL     1      -1.319  13.725  19.891  0.00  0.00    +0.000 OA
BRANCH  10  13
ATOM     13  C   UNL     1      -2.292  11.508  18.889  0.00  0.00    +0.000 A 
ATOM     14  C   UNL     1      -1.461  10.820  17.978  0.00  0.00    +0.000 A 
ATOM     15  C   UNL     1      -1.950  10.306  16.765  0.00  0.00    +0.000 A 
ATOM     16  C   UNL     1      -3.288  10.465  16.421  0.00  0.00    +0.000 A 
ATOM     17  C   UNL     1      -3.849   9.928  15.133  0.00  0.00    +0.000 C 
ATOM     18  C   UNL     1      -4.118  11.163  17.305  0.00  0.00    +0.000 A 
ATOM     19  C   UNL     1      -3.638  11.731  18.518  0.00  0.00    +0.000 A 
ATOM     20  C   UNL     1      -4.631  12.546  19.293  0.00  0.00    +0.000 C 
ENDBRANCH  10  13
ENDBRANCH   1  10
BRANCH   1  21
ATOM     21  C   UNL     1       0.450  10.677  21.412  0.00  0.00    +0.000 C 
BRANCH  21  22
ATOM     22  C   UNL     1      -0.128   9.298  21.045  0.00  0.00    +0.000 C 
BRANCH  22  23
ATOM     23  C   UNL     1       1.036   8.360  20.725  0.00  0.00    +0.000 C 
ATOM     24  O   UNL     1       1.491   7.631  21.608  0.00  0.00    +0.000 OA
ATOM     25  N   UNL     1       1.500   8.443  19.428  0.00  0.00    +0.000 N 
ATOM     26  C   UNL     1       2.477   7.601  18.904  0.00  0.00    +0.000 A 
ATOM     27  C   UNL     1       3.153   7.796  17.670  0.00  0.00    +0.000 A 
ATOM     28  C   UNL     1       4.030   6.739  17.555  0.00  0.00    +0.000 A 
ATOM     29  N   UNL     1       3.810   5.963  18.653  0.00  0.00    +0.000 N 
ATOM     30  C   UNL     1       4.413   4.688  18.961  0.00  0.00    +0.000 C 
ATOM     31  N   UNL     1       2.893   6.469  19.485  0.00  0.00    +0.000 NA
ATOM     32  H   UNL     1       1.183   9.184  18.823  0.00  0.00    +0.000 HD
ENDBRANCH  22  23
ENDBRANCH  21  22
ENDBRANCH   1  21
TORSDOF 7
ENDMDL
MODEL 6
REMARK VINA RESULT:      -8.1      6.247      9.715
REMARK  Name = 
REMARK  11 active torsions:
REMARK  status: ('A' for Active; 'I' for Inactive)
REMARK    1  A    between atoms: C_1  and  O_2
REMARK    2  A    between atoms: O_2  and  C_3
REMARK    3  A    between atoms: C_6  and  N_7
REMARK    4  A    between atoms: N_7  and  C_8
REMARK    5  A    between atoms: N_7  and  S_19
REMARK    6  A    between atoms: C_8  and  C_9
REMARK    7  A    between atoms: C_9  and  C_10
REMARK    8  A    between atoms: N_16  and  C_17
REMARK    9  A    between atoms: S_19  and  C_22
REMARK   10  A    between atoms: C_25  and  C_26
REMARK   11  A    between atoms: C_28  and  C_29
REMARK                            x       y       z     vdW  Elec       q    Type
REMARK                         _______ _______ _______ _____ _____    ______ ____
ROOT
ATOM      1  N   UNL     1      -0.102  11.272  20.160  0.00  0.00    +0.000 N 
ENDROOT
BRANCH   1   5
ATOM      2  C   UNL     1      -2.946  10.713  17.053  0.00  0.00    +0.000 A 
ATOM      3  C   UNL     1      -3.244  11.535  18.143  0.00  0.00    +0.000 A 
ATOM      4  C   UNL     1      -2.331  11.708  19.189  0.00  0.00    +0.000 A 
ATOM      5  C   UNL     1      -1.101  11.049  19.151  0.00  0.00    +0.000 A 
ATOM      6  C   UNL     1      -0.817  10.191  18.081  0.00  0.00    +0.000 A 
ATOM      7  C   UNL     1      -1.738  10.023  17.027  0.00  0.00    +0.000 A 
BRANCH   2   9
ATOM      8  C   UNL     1      -3.521  10.303  14.785  0.00  0.00    +0.000 C 
ATOM      9  O   UNL     1      -3.935  10.630  16.110  0.00  0.00    +0.000 OA
ENDBRANCH   2   9
ENDBRANCH   1   5
BRANCH   1  10
ATOM     10  S   UNL     1       0.224  12.880  20.661  0.00  0.00    +0.000 S 
ATOM     11  O   UNL     1       1.444  12.877  21.441  0.00  0.00    +0.000 OA
ATOM     12  O   UNL     1       0.165  13.688  19.455  0.00  0.00    +0.000 OA
BRANCH  10  13
ATOM     13  C   UNL     1      -1.145  13.468  21.713  0.00  0.00    +0.000 A 
ATOM     14  C   UNL     1      -1.463  14.840  21.609  0.00  0.00    +0.000 A 
ATOM     15  C   UNL     1      -2.360  15.466  22.491  0.00  0.00    +0.000 A 
ATOM     16  C   UNL     1      -2.968  14.740  23.510  0.00  0.00    +0.000 A 
ATOM     17  C   UNL     1      -3.934  15.374  24.474  0.00  0.00    +0.000 C 
ATOM     18  C   UNL     1      -2.645  13.384  23.638  0.00  0.00    +0.000 A 
ATOM     19  C   UNL     1      -1.708  12.738  22.785  0.00  0.00    +0.000 A 
ATOM     20  C   UNL     1      -1.389  11.313  23.131  0.00  0.00    +0.000 C 
ENDBRANCH  10  13
ENDBRANCH   1  10
BRANCH   1  21
ATOM     21  C   UNL     1       0.963  10.242  20.321  0.00  0.00    +0.000 C 
BRANCH  21  22
ATOM     22  C   UNL     1       0.462   8.940  20.973  0.00  0.00    +0.000 C 
BRANCH  22  23
ATOM     23  C   UNL     1       1.336   7.788  20.475  0.00  0.00    +0.000 C 
ATOM     24  O   UNL     1       1.407   6.750  21.134  0.00  0.00    +0.000 OA
ATOM     25  N   UNL     1       2.008   8.046  19.298  0.00  0.00    +0.000 N 
ATOM     26  C   UNL     1       2.767   7.094  18.621  0.00  0.00    +0.000 A 
ATOM     27  C   UNL     1       3.662   7.368  17.552  0.00  0.00    +0.000 A 
ATOM     28  C   UNL     1       4.196   6.149  17.193  0.00  0.00    +0.000 A 
ATOM     29  N   UNL     1       3.583   5.233  17.994  0.00  0.00    +0.000 N 
ATOM     30  C   UNL     1       3.726   3.798  17.954  0.00  0.00    +0.000 C 
ATOM     31  N   UNL     1       2.732   5.780  18.870  0.00  0.00    +0.000 NA
ATOM     32  H   UNL     1       2.026   8.979  18.918  0.00  0.00    +0.000 HD
ENDBRANCH  22  23
ENDBRANCH  21  22
ENDBRANCH   1  21
TORSDOF 7
ENDMDL
MODEL 7
REMARK VINA RESULT:      -8.1      5.679      9.499
REMARK  Name = 
REMARK  11 active torsions:
REMARK  status: ('A' for Active; 'I' for Inactive)
REMARK    1  A    between atoms: C_1  and  O_2
REMARK    2  A    between atoms: O_2  and  C_3
REMARK    3  A    between atoms: C_6  and  N_7
REMARK    4  A    between atoms: N_7  and  C_8
REMARK    5  A    between atoms: N_7  and  S_19
REMARK    6  A    between atoms: C_8  and  C_9
REMARK    7  A    between atoms: C_9  and  C_10
REMARK    8  A    between atoms: N_16  and  C_17
REMARK    9  A    between atoms: S_19  and  C_22
REMARK   10  A    between atoms: C_25  and  C_26
REMARK   11  A    between atoms: C_28  and  C_29
REMARK                            x       y       z     vdW  Elec       q    Type
REMARK                         _______ _______ _______ _____ _____    ______ ____
ROOT
ATOM      1  N   UNL     1       0.637  11.221  18.863  0.00  0.00    +0.000 N 
ENDROOT
BRANCH   1   5
ATOM      2  C   UNL     1       3.308  14.440  19.617  0.00  0.00    +0.000 A 
ATOM      3  C   UNL     1       2.813  13.672  20.673  0.00  0.00    +0.000 A 
ATOM      4  C   UNL     1       1.910  12.626  20.447  0.00  0.00    +0.000 A 
ATOM      5  C   UNL     1       1.492  12.343  19.146  0.00  0.00    +0.000 A 
ATOM      6  C   UNL     1       1.953  13.138  18.089  0.00  0.00    +0.000 A 
ATOM      7  C   UNL     1       2.865  14.187  18.322  0.00  0.00    +0.000 A 
BRANCH   2   9
ATOM      8  C   UNL     1       3.963  16.712  19.389  0.00  0.00    +0.000 C 
ATOM      9  O   UNL     1       4.174  15.433  19.986  0.00  0.00    +0.000 OA
ENDBRANCH   2   9
ENDBRANCH   1   5
BRANCH   1  10
ATOM     10  S   UNL     1      -1.061  11.421  18.998  0.00  0.00    +0.000 S 
ATOM     11  O   UNL     1      -1.501  12.312  17.945  0.00  0.00    +0.000 OA
ATOM     12  O   UNL     1      -1.612  10.078  19.057  0.00  0.00    +0.000 OA
BRANCH  10  13
ATOM     13  C   UNL     1      -1.449  12.181  20.610  0.00  0.00    +0.000 A 
ATOM     14  C   UNL     1      -1.860  13.532  20.577  0.00  0.00    +0.000 A 
ATOM     15  C   UNL     1      -2.006  14.295  21.748  0.00  0.00    +0.000 A 
ATOM     16  C   UNL     1      -1.743  13.733  22.992  0.00  0.00    +0.000 A 
ATOM     17  C   UNL     1      -1.889  14.517  24.268  0.00  0.00    +0.000 C 
ATOM     18  C   UNL     1      -1.315  12.401  23.038  0.00  0.00    +0.000 A 
ATOM     19  C   UNL     1      -1.117  11.621  21.865  0.00  0.00    +0.000 A 
ATOM     20  C   UNL     1      -0.544  10.251  22.084  0.00  0.00    +0.000 C 
ENDBRANCH  10  13
ENDBRANCH   1  10
BRANCH   1  21
ATOM     21  C   UNL     1       1.212   9.855  19.017  0.00  0.00    +0.000 C 
BRANCH  21  22
ATOM     22  C   UNL     1       2.254   9.505  17.939  0.00  0.00    +0.000 C 
BRANCH  22  23
ATOM     23  C   UNL     1       2.648   8.037  18.112  0.00  0.00    +0.000 C 
ATOM     24  O   UNL     1       3.342   7.488  17.256  0.00  0.00    +0.000 OA
ATOM     25  N   UNL     1       2.143   7.439  19.248  0.00  0.00    +0.000 N 
ATOM     26  C   UNL     1       2.470   6.145  19.647  0.00  0.00    +0.000 A 
ATOM     27  C   UNL     1       1.803   5.405  20.660  0.00  0.00    +0.000 A 
ATOM     28  C   UNL     1       2.447   4.188  20.716  0.00  0.00    +0.000 A 
ATOM     29  N   UNL     1       3.461   4.270  19.810  0.00  0.00    +0.000 N 
ATOM     30  C   UNL     1       4.486   3.288  19.548  0.00  0.00    +0.000 C 
ATOM     31  N   UNL     1       3.485   5.431  19.145  0.00  0.00    +0.000 NA
ATOM     32  H   UNL     1       1.447   7.910  19.804  0.00  0.00    +0.000 HD
ENDBRANCH  22  23
ENDBRANCH  21  22
ENDBRANCH   1  21
TORSDOF 7
ENDMDL
MODEL 8
REMARK VINA RESULT:      -8.1      6.474      9.689
REMARK  Name = 
REMARK  11 active torsions:
REMARK  status: ('A' for Active; 'I' for Inactive)
REMARK    1  A    between atoms: C_1  and  O_2
REMARK    2  A    between atoms: O_2  and  C_3
REMARK    3  A    between atoms: C_6  and  N_7
REMARK    4  A    between atoms: N_7  and  C_8
REMARK    5  A    between atoms: N_7  and  S_19
REMARK    6  A    between atoms: C_8  and  C_9
REMARK    7  A    between atoms: C_9  and  C_10
REMARK    8  A    between atoms: N_16  and  C_17
REMARK    9  A    between atoms: S_19  and  C_22
REMARK   10  A    between atoms: C_25  and  C_26
REMARK   11  A    between atoms: C_28  and  C_29
REMARK                            x       y       z     vdW  Elec       q    Type
REMARK                         _______ _______ _______ _____ _____    ______ ____
ROOT
ATOM      1  N   UNL     1      -0.433  10.763  19.979  0.00  0.00    +0.000 N 
ENDROOT
BRANCH   1   5
ATOM      2  C   UNL     1      -3.168  10.798  16.727  0.00  0.00    +0.000 A 
ATOM      3  C   UNL     1      -2.025   9.996  16.678  0.00  0.00    +0.000 A 
ATOM      4  C   UNL     1      -1.099   9.994  17.728  0.00  0.00    +0.000 A 
ATOM      5  C   UNL     1      -1.313  10.805  18.843  0.00  0.00    +0.000 A 
ATOM      6  C   UNL     1      -2.436  11.641  18.875  0.00  0.00    +0.000 A 
ATOM      7  C   UNL     1      -3.369  11.637  17.819  0.00  0.00    +0.000 A 
BRANCH   2   9
ATOM      8  C   UNL     1      -3.384  10.187  14.441  0.00  0.00    +0.000 C 
ATOM      9  O   UNL     1      -3.980  10.706  15.629  0.00  0.00    +0.000 OA
ENDBRANCH   2   9
ENDBRANCH   1   5
BRANCH   1  10
ATOM     10  S   UNL     1      -0.538  12.009  21.153  0.00  0.00    +0.000 S 
ATOM     11  O   UNL     1      -1.866  11.982  21.730  0.00  0.00    +0.000 OA
ATOM     12  O   UNL     1       0.610  11.826  22.025  0.00  0.00    +0.000 OA
BRANCH  10  13
ATOM     13  C   UNL     1      -0.284  13.621  20.339  0.00  0.00    +0.000 A 
ATOM     14  C   UNL     1      -1.316  14.571  20.506  0.00  0.00    +0.000 A 
ATOM     15  C   UNL     1      -1.343  15.777  19.785  0.00  0.00    +0.000 A 
ATOM     16  C   UNL     1      -0.339  16.072  18.870  0.00  0.00    +0.000 A 
ATOM     17  C   UNL     1      -0.332  17.352  18.080  0.00  0.00    +0.000 C 
ATOM     18  C   UNL     1       0.679  15.130  18.679  0.00  0.00    +0.000 A 
ATOM     19  C   UNL     1       0.706  13.884  19.364  0.00  0.00    +0.000 A 
ATOM     20  C   UNL     1       1.801  12.942  18.958  0.00  0.00    +0.000 C 
ENDBRANCH  10  13
ENDBRANCH   1  10
BRANCH   1  21
ATOM     21  C   UNL     1       0.852  10.022  19.834  0.00  0.00    +0.000 C 
BRANCH  21  22
ATOM     22  C   UNL     1       0.914   8.734  20.675  0.00  0.00    +0.000 C 
BRANCH  22  23
ATOM     23  C   UNL     1       1.812   7.731  19.951  0.00  0.00    +0.000 C 
ATOM     24  O   UNL     1       2.382   8.064  18.911  0.00  0.00    +0.000 OA
ATOM     25  N   UNL     1       1.879   6.488  20.546  0.00  0.00    +0.000 N 
ATOM     26  C   UNL     1       2.723   5.469  20.109  0.00  0.00    +0.000 A 
ATOM     27  C   UNL     1       2.657   4.114  20.527  0.00  0.00    +0.000 A 
ATOM     28  C   UNL     1       3.663   3.465  19.844  0.00  0.00    +0.000 A 
ATOM     29  N   UNL     1       4.293   4.431  19.119  0.00  0.00    +0.000 N 
ATOM     30  C   UNL     1       5.473   4.285  18.301  0.00  0.00    +0.000 C 
ATOM     31  N   UNL     1       3.735   5.640  19.250  0.00  0.00    +0.000 NA
ATOM     32  H   UNL     1       1.250   6.250  21.296  0.00  0.00    +0.000 HD
ENDBRANCH  22  23
ENDBRANCH  21  22
ENDBRANCH   1  21
TORSDOF 7
ENDMDL
MODEL 9
REMARK VINA RESULT:      -8.1      6.056      8.708
REMARK  Name = 
REMARK  11 active torsions:
REMARK  status: ('A' for Active; 'I' for Inactive)
REMARK    1  A    between atoms: C_1  and  O_2
REMARK    2  A    between atoms: O_2  and  C_3
REMARK    3  A    between atoms: C_6  and  N_7
REMARK    4  A    between atoms: N_7  and  C_8
REMARK    5  A    between atoms: N_7  and  S_19
REMARK    6  A    between atoms: C_8  and  C_9
REMARK    7  A    between atoms: C_9  and  C_10
REMARK    8  A    between atoms: N_16  and  C_17
REMARK    9  A    between atoms: S_19  and  C_22
REMARK   10  A    between atoms: C_25  and  C_26
REMARK   11  A    between atoms: C_28  and  C_29
REMARK                            x       y       z     vdW  Elec       q    Type
REMARK                         _______ _______ _______ _____ _____    ______ ____
ROOT
ATOM      1  N   UNL     1       1.336   8.970  19.901  0.00  0.00    +0.000 N 
ENDROOT
BRANCH   1   5
ATOM      2  C   UNL     1       3.735   6.108  17.873  0.00  0.00    +0.000 A 
ATOM      3  C   UNL     1       3.439   7.334  17.271  0.00  0.00    +0.000 A 
ATOM      4  C   UNL     1       2.627   8.277  17.912  0.00  0.00    +0.000 A 
ATOM      5  C   UNL     1       2.099   7.993  19.172  0.00  0.00    +0.000 A 
ATOM      6  C   UNL     1       2.358   6.749  19.760  0.00  0.00    +0.000 A 
ATOM      7  C   UNL     1       3.181   5.804  19.113  0.00  0.00    +0.000 A 
BRANCH   2   9
ATOM      8  C   UNL     1       5.921   5.280  17.452  0.00  0.00    +0.000 C 
ATOM      9  O   UNL     1       4.532   5.281  17.129  0.00  0.00    +0.000 OA
ENDBRANCH   2   9
ENDBRANCH   1   5
BRANCH   1  10
ATOM     10  S   UNL     1       1.184  10.551  19.253  0.00  0.00    +0.000 S 
ATOM     11  O   UNL     1       1.324  11.504  20.335  0.00  0.00    +0.000 OA
ATOM     12  O   UNL     1       2.116  10.612  18.139  0.00  0.00    +0.000 OA
BRANCH  10  13
ATOM     13  C   UNL     1      -0.474  10.740  18.517  0.00  0.00    +0.000 A 
ATOM     14  C   UNL     1      -0.961   9.631  17.791  0.00  0.00    +0.000 A 
ATOM     15  C   UNL     1      -2.131   9.703  17.017  0.00  0.00    +0.000 A 
ATOM     16  C   UNL     1      -2.853  10.889  16.940  0.00  0.00    +0.000 A 
ATOM     17  C   UNL     1      -4.111  11.005  16.123  0.00  0.00    +0.000 C 
ATOM     18  C   UNL     1      -2.370  12.002  17.638  0.00  0.00    +0.000 A 
ATOM     19  C   UNL     1      -1.166  11.967  18.394  0.00  0.00    +0.000 A 
ATOM     20  C   UNL     1      -0.729  13.276  18.983  0.00  0.00    +0.000 C 
ENDBRANCH  10  13
ENDBRANCH   1  10
BRANCH   1  21
ATOM     21  C   UNL     1       1.192   8.782  21.372  0.00  0.00    +0.000 C 
BRANCH  21  22
ATOM     22  C   UNL     1      -0.273   8.729  21.842  0.00  0.00    +0.000 C 
BRANCH  22  23
ATOM     23  C   UNL     1      -0.580  10.020  22.602  0.00  0.00    +0.000 C 
ATOM     24  O   UNL     1      -0.079  10.206  23.712  0.00  0.00    +0.000 OA
ATOM     25  N   UNL     1      -1.445  10.876  21.952  0.00  0.00    +0.000 N 
ATOM     26  C   UNL     1      -1.767  12.147  22.421  0.00  0.00    +0.000 A 
ATOM     27  C   UNL     1      -2.821  12.961  21.926  0.00  0.00    +0.000 A 
ATOM     28  C   UNL     1      -2.781  14.117  22.675  0.00  0.00    +0.000 A 
ATOM     29  N   UNL     1      -1.716  13.971  23.513  0.00  0.00    +0.000 N 
ATOM     30  C   UNL     1      -1.191  14.943  24.441  0.00  0.00    +0.000 C 
ATOM     31  N   UNL     1      -1.102  12.789  23.388  0.00  0.00    +0.000 NA
ATOM     32  H   UNL     1      -1.938  10.569  21.129  0.00  0.00    +0.000 HD
ENDBRANCH  22  23
ENDBRANCH  21  22
ENDBRANCH   1  21
TORSDOF 7
ENDMDL
