MODEL 1
REMARK VINA RESULT:      -7.1      0.000      0.000
REMARK  Name = 
REMARK  2 active torsions:
REMARK  status: ('A' for Active; 'I' for Inactive)
REMARK    1  A    between atoms: C_4  and  N_5
REMARK    2  A    between atoms: N_5  and  C_6
REMARK                            x       y       z     vdW  Elec       q    Type
REMARK                         _______ _______ _______ _____ _____    ______ ____
ROOT
ATOM      1  N   UNL     1       4.852   3.437  17.784  0.00  0.00    +0.000 N 
ATOM      2  H   UNL     1       5.054   2.688  17.132  0.00  0.00    +0.000 HD
ENDROOT
BRANCH   1   6
ATOM      3  O   UNL     1       2.752   2.537  21.945  0.00  0.00    +0.000 OA
ATOM      4  C   UNL     1       2.616   2.780  20.747  0.00  0.00    +0.000 C 
ATOM      5  C   UNL     1       3.814   3.029  19.916  0.00  0.00    +0.000 C 
ATOM      6  C   UNL     1       3.737   3.264  18.591  0.00  0.00    +0.000 C 
ATOM      7  C   UNL     1       2.391   3.393  17.906  0.00  0.00    +0.000 C 
ATOM      8  C   UNL     1       1.248   3.687  18.878  0.00  0.00    +0.000 C 
ATOM      9  C   UNL     1       1.272   2.742  20.069  0.00  0.00    +0.000 C 
ENDBRANCH   1   6
BRANCH   1  10
ATOM     10  C   UNL     1       5.638   4.597  17.664  0.00  0.00    +0.000 A 
ATOM     11  C   UNL     1       6.883   4.714  18.304  0.00  0.00    +0.000 A 
ATOM     12  C   UNL     1       7.599   5.908  18.283  0.00  0.00    +0.000 A 
ATOM     13  C   UNL     1       7.079   7.009  17.609  0.00  0.00    +0.000 A 
ATOM     14 CL   UNL     1       7.940   8.498  17.609  0.00  0.00    +0.000 Cl
ATOM     15  C   UNL     1       5.858   6.911  16.945  0.00  0.00    +0.000 A 
ATOM     16  C   UNL     1       5.142   5.710  16.972  0.00  0.00    +0.000 A 
ENDBRANCH   1  10
TORSDOF 2
ENDMDL
MODEL 2
REMARK VINA RESULT:      -6.9      1.257      1.672
REMARK  Name = 
REMARK  2 active torsions:
REMARK  status: ('A' for Active; 'I' for Inactive)
REMARK    1  A    between atoms: C_4  and  N_5
REMARK    2  A    between atoms: N_5  and  C_6
REMARK                            x       y       z     vdW  Elec       q    Type
REMARK                         _______ _______ _______ _____ _____    ______ ____
ROOT
ATOM      1  N   UNL     1       4.651   3.493  17.781  0.00  0.00    +0.000 N 
ATOM      2  H   UNL     1       4.874   2.700  17.189  0.00  0.00    +0.000 HD
ENDROOT
BRANCH   1   6
ATOM      3  O   UNL     1       0.174   2.049  18.414  0.00  0.00    +0.000 OA
ATOM      4  C   UNL     1       1.134   2.673  18.861  0.00  0.00    +0.000 C 
ATOM      5  C   UNL     1       2.400   2.705  18.098  0.00  0.00    +0.000 C 
ATOM      6  C   UNL     1       3.478   3.400  18.514  0.00  0.00    +0.000 C 
ATOM      7  C   UNL     1       3.472   4.101  19.858  0.00  0.00    +0.000 C 
ATOM      8  C   UNL     1       2.396   3.573  20.807  0.00  0.00    +0.000 C 
ATOM      9  C   UNL     1       1.041   3.490  20.123  0.00  0.00    +0.000 C 
ENDBRANCH   1   6
BRANCH   1  10
ATOM     10  C   UNL     1       5.480   4.621  17.649  0.00  0.00    +0.000 A 
ATOM     11  C   UNL     1       6.757   4.670  18.233  0.00  0.00    +0.000 A 
ATOM     12  C   UNL     1       7.522   5.833  18.205  0.00  0.00    +0.000 A 
ATOM     13  C   UNL     1       7.021   6.971  17.581  0.00  0.00    +0.000 A 
ATOM     14 CL   UNL     1       7.945   8.421  17.574  0.00  0.00    +0.000 Cl
ATOM     15  C   UNL     1       5.768   6.941  16.973  0.00  0.00    +0.000 A 
ATOM     16  C   UNL     1       5.002   5.771  17.007  0.00  0.00    +0.000 A 
ENDBRANCH   1  10
TORSDOF 2
ENDMDL
MODEL 3
REMARK VINA RESULT:      -6.8      0.424      1.309
REMARK  Name = 
REMARK  2 active torsions:
REMARK  status: ('A' for Active; 'I' for Inactive)
REMARK    1  A    between atoms: C_4  and  N_5
REMARK    2  A    between atoms: N_5  and  C_6
REMARK                            x       y       z     vdW  Elec       q    Type
REMARK                         _______ _______ _______ _____ _____    ______ ____
ROOT
ATOM      1  N   UNL     1       5.167   3.577  18.119  0.00  0.00    +0.000 N 
ATOM      2  H   UNL     1       5.598   2.824  17.596  0.00  0.00    +0.000 HD
ENDROOT
BRANCH   1   6
ATOM      3  O   UNL     1       2.305   2.626  21.785  0.00  0.00    +0.000 OA
ATOM      4  C   UNL     1       2.414   2.789  20.571  0.00  0.00    +0.000 C 
ATOM      5  C   UNL     1       3.731   3.147  20.001  0.00  0.00    +0.000 C 
ATOM      6  C   UNL     1       3.926   3.304  18.677  0.00  0.00    +0.000 C 
ATOM      7  C   UNL     1       2.762   3.226  17.710  0.00  0.00    +0.000 C 
ATOM      8  C   UNL     1       1.405   3.419  18.386  0.00  0.00    +0.000 C 
ATOM      9  C   UNL     1       1.268   2.547  19.623  0.00  0.00    +0.000 C 
ENDBRANCH   1   6
BRANCH   1  10
ATOM     10  C   UNL     1       5.816   4.824  18.069  0.00  0.00    +0.000 A 
ATOM     11  C   UNL     1       5.376   5.850  17.216  0.00  0.00    +0.000 A 
ATOM     12  C   UNL     1       6.094   7.036  17.080  0.00  0.00    +0.000 A 
ATOM     13  C   UNL     1       7.266   7.217  17.806  0.00  0.00    +0.000 A 
ATOM     14 CL   UNL     1       8.177   8.663  17.615  0.00  0.00    +0.000 Cl
ATOM     15  C   UNL     1       7.710   6.225  18.677  0.00  0.00    +0.000 A 
ATOM     16  C   UNL     1       6.987   5.034  18.808  0.00  0.00    +0.000 A 
ENDBRANCH   1  10
TORSDOF 2
ENDMDL
MODEL 4
REMARK VINA RESULT:      -6.7      1.113      1.247
REMARK  Name = 
REMARK  2 active torsions:
REMARK  status: ('A' for Active; 'I' for Inactive)
REMARK    1  A    between atoms: C_4  and  N_5
REMARK    2  A    between atoms: N_5  and  C_6
REMARK                            x       y       z     vdW  Elec       q    Type
REMARK                         _______ _______ _______ _____ _____    ______ ____
ROOT
ATOM      1  N   UNL     1       5.563   3.661  18.888  0.00  0.00    +0.000 N 
ATOM      2  H   UNL     1       6.158   2.857  19.055  0.00  0.00    +0.000 HD
ENDROOT
BRANCH   1   6
ATOM      3  O   UNL     1       1.237   4.272  20.742  0.00  0.00    +0.000 OA
ATOM      4  C   UNL     1       1.929   3.720  19.890  0.00  0.00    +0.000 C 
ATOM      5  C   UNL     1       3.374   4.029  19.816  0.00  0.00    +0.000 C 
ATOM      6  C   UNL     1       4.196   3.431  18.930  0.00  0.00    +0.000 C 
ATOM      7  C   UNL     1       3.645   2.484  17.883  0.00  0.00    +0.000 C 
ATOM      8  C   UNL     1       2.142   2.647  17.655  0.00  0.00    +0.000 C 
ATOM      9  C   UNL     1       1.378   2.663  18.969  0.00  0.00    +0.000 C 
ENDBRANCH   1   6
BRANCH   1  10
ATOM     10  C   UNL     1       6.210   4.844  18.489  0.00  0.00    +0.000 A 
ATOM     11  C   UNL     1       7.399   5.277  19.101  0.00  0.00    +0.000 A 
ATOM     12  C   UNL     1       7.969   6.508  18.787  0.00  0.00    +0.000 A 
ATOM     13  C   UNL     1       7.357   7.328  17.845  0.00  0.00    +0.000 A 
ATOM     14 CL   UNL     1       8.034   8.866  17.479  0.00  0.00    +0.000 Cl
ATOM     15  C   UNL     1       6.191   6.911  17.206  0.00  0.00    +0.000 A 
ATOM     16  C   UNL     1       5.622   5.674  17.526  0.00  0.00    +0.000 A 
ENDBRANCH   1  10
TORSDOF 2
ENDMDL
MODEL 5
REMARK VINA RESULT:      -6.7      1.607      2.085
REMARK  Name = 
REMARK  2 active torsions:
REMARK  status: ('A' for Active; 'I' for Inactive)
REMARK    1  A    between atoms: C_4  and  N_5
REMARK    2  A    between atoms: N_5  and  C_6
REMARK                            x       y       z     vdW  Elec       q    Type
REMARK                         _______ _______ _______ _____ _____    ______ ____
ROOT
ATOM      1  N   UNL     1       5.690   3.882  17.687  0.00  0.00    +0.000 N 
ATOM      2  H   UNL     1       6.115   3.119  17.173  0.00  0.00    +0.000 HD
ENDROOT
BRANCH   1   6
ATOM      3  O   UNL     1       0.973   4.099  17.214  0.00  0.00    +0.000 OA
ATOM      4  C   UNL     1       1.929   3.791  17.922  0.00  0.00    +0.000 C 
ATOM      5  C   UNL     1       3.303   3.956  17.400  0.00  0.00    +0.000 C 
ATOM      6  C   UNL     1       4.395   3.673  18.137  0.00  0.00    +0.000 C 
ATOM      7  C   UNL     1       4.258   3.059  19.516  0.00  0.00    +0.000 C 
ATOM      8  C   UNL     1       2.894   2.408  19.751  0.00  0.00    +0.000 C 
ATOM      9  C   UNL     1       1.758   3.333  19.346  0.00  0.00    +0.000 C 
ENDBRANCH   1   6
BRANCH   1  10
ATOM     10  C   UNL     1       6.417   5.085  17.731  0.00  0.00    +0.000 A 
ATOM     11  C   UNL     1       7.451   5.288  18.661  0.00  0.00    +0.000 A 
ATOM     12  C   UNL     1       8.084   6.523  18.782  0.00  0.00    +0.000 A 
ATOM     13  C   UNL     1       7.694   7.578  17.963  0.00  0.00    +0.000 A 
ATOM     14 CL   UNL     1       8.446   9.115  18.132  0.00  0.00    +0.000 Cl
ATOM     15  C   UNL     1       6.689   7.395  17.016  0.00  0.00    +0.000 A 
ATOM     16  C   UNL     1       6.055   6.153  16.901  0.00  0.00    +0.000 A 
ENDBRANCH   1  10
TORSDOF 2
ENDMDL
MODEL 6
REMARK VINA RESULT:      -6.6      1.270      1.327
REMARK  Name = 
REMARK  2 active torsions:
REMARK  status: ('A' for Active; 'I' for Inactive)
REMARK    1  A    between atoms: C_4  and  N_5
REMARK    2  A    between atoms: N_5  and  C_6
REMARK                            x       y       z     vdW  Elec       q    Type
REMARK                         _______ _______ _______ _____ _____    ______ ____
ROOT
ATOM      1  N   UNL     1       4.117   3.759  17.272  0.00  0.00    +0.000 N 
ATOM      2  H   UNL     1       4.118   3.162  16.452  0.00  0.00    +0.000 HD
ENDROOT
BRANCH   1   6
ATOM      3  O   UNL     1       1.256   5.246  20.754  0.00  0.00    +0.000 OA
ATOM      4  C   UNL     1       1.559   4.343  19.977  0.00  0.00    +0.000 C 
ATOM      5  C   UNL     1       2.649   4.558  19.002  0.00  0.00    +0.000 C 
ATOM      6  C   UNL     1       3.055   3.597  18.148  0.00  0.00    +0.000 C 
ATOM      7  C   UNL     1       2.325   2.271  18.076  0.00  0.00    +0.000 C 
ATOM      8  C   UNL     1       0.918   2.326  18.670  0.00  0.00    +0.000 C 
ATOM      9  C   UNL     1       0.917   2.982  20.041  0.00  0.00    +0.000 C 
ENDBRANCH   1   6
BRANCH   1  10
ATOM     10  C   UNL     1       5.104   4.761  17.314  0.00  0.00    +0.000 A 
ATOM     11  C   UNL     1       6.243   4.639  18.127  0.00  0.00    +0.000 A 
ATOM     12  C   UNL     1       7.154   5.685  18.259  0.00  0.00    +0.000 A 
ATOM     13  C   UNL     1       6.940   6.874  17.569  0.00  0.00    +0.000 A 
ATOM     14 CL   UNL     1       8.040   8.182  17.756  0.00  0.00    +0.000 Cl
ATOM     15  C   UNL     1       5.831   7.010  16.737  0.00  0.00    +0.000 A 
ATOM     16  C   UNL     1       4.918   5.957  16.610  0.00  0.00    +0.000 A 
ENDBRANCH   1  10
TORSDOF 2
ENDMDL
MODEL 7
REMARK VINA RESULT:      -6.6      4.313      5.017
REMARK  Name = 
REMARK  2 active torsions:
REMARK  status: ('A' for Active; 'I' for Inactive)
REMARK    1  A    between atoms: C_4  and  N_5
REMARK    2  A    between atoms: N_5  and  C_6
REMARK                            x       y       z     vdW  Elec       q    Type
REMARK                         _______ _______ _______ _____ _____    ______ ____
ROOT
ATOM      1  N   UNL     1       2.686   6.407  19.870  0.00  0.00    +0.000 N 
ATOM      2  H   UNL     1       3.626   6.449  20.247  0.00  0.00    +0.000 HD
ENDROOT
BRANCH   1   6
ATOM      3  O   UNL     1       2.309   2.599  17.062  0.00  0.00    +0.000 OA
ATOM      4  C   UNL     1       1.977   3.150  18.109  0.00  0.00    +0.000 C 
ATOM      5  C   UNL     1       2.554   4.468  18.451  0.00  0.00    +0.000 C 
ATOM      6  C   UNL     1       2.204   5.142  19.565  0.00  0.00    +0.000 C 
ATOM      7  C   UNL     1       1.273   4.518  20.585  0.00  0.00    +0.000 C 
ATOM      8  C   UNL     1       1.176   2.997  20.460  0.00  0.00    +0.000 C 
ATOM      9  C   UNL     1       0.928   2.571  19.022  0.00  0.00    +0.000 C 
ENDBRANCH   1   6
BRANCH   1  10
ATOM     10  C   UNL     1       2.077   7.639  19.571  0.00  0.00    +0.000 A 
ATOM     11  C   UNL     1       2.236   8.254  18.317  0.00  0.00    +0.000 A 
ATOM     12  C   UNL     1       1.735   9.529  18.067  0.00  0.00    +0.000 A 
ATOM     13  C   UNL     1       1.056  10.209  19.073  0.00  0.00    +0.000 A 
ATOM     14 CL   UNL     1       0.467  11.799  18.783  0.00  0.00    +0.000 Cl
ATOM     15  C   UNL     1       0.864   9.612  20.316  0.00  0.00    +0.000 A 
ATOM     16  C   UNL     1       1.372   8.331  20.563  0.00  0.00    +0.000 A 
ENDBRANCH   1  10
TORSDOF 2
ENDMDL
MODEL 8
REMARK VINA RESULT:      -6.6      2.041      2.494
REMARK  Name = 
REMARK  2 active torsions:
REMARK  status: ('A' for Active; 'I' for Inactive)
REMARK    1  A    between atoms: C_4  and  N_5
REMARK    2  A    between atoms: N_5  and  C_6
REMARK                            x       y       z     vdW  Elec       q    Type
REMARK                         _______ _______ _______ _____ _____    ______ ____
ROOT
ATOM      1  N   UNL     1       5.112   3.550  19.112  0.00  0.00    +0.000 N 
ATOM      2  H   UNL     1       5.711   2.890  19.595  0.00  0.00    +0.000 HD
ENDROOT
BRANCH   1   6
ATOM      3  O   UNL     1       1.489   2.400  21.954  0.00  0.00    +0.000 OA
ATOM      4  C   UNL     1       1.961   3.202  21.151  0.00  0.00    +0.000 C 
ATOM      5  C   UNL     1       3.312   2.968  20.599  0.00  0.00    +0.000 C 
ATOM      6  C   UNL     1       3.873   3.788  19.688  0.00  0.00    +0.000 C 
ATOM      7  C   UNL     1       3.174   5.065  19.265  0.00  0.00    +0.000 C 
ATOM      8  C   UNL     1       2.100   5.519  20.255  0.00  0.00    +0.000 C 
ATOM      9  C   UNL     1       1.172   4.376  20.633  0.00  0.00    +0.000 C 
ENDBRANCH   1   6
BRANCH   1  10
ATOM     10  C   UNL     1       5.564   4.001  17.859  0.00  0.00    +0.000 A 
ATOM     11  C   UNL     1       4.840   3.749  16.681  0.00  0.00    +0.000 A 
ATOM     12  C   UNL     1       5.351   4.089  15.431  0.00  0.00    +0.000 A 
ATOM     13  C   UNL     1       6.599   4.697  15.341  0.00  0.00    +0.000 A 
ATOM     14 CL   UNL     1       7.253   5.087  13.798  0.00  0.00    +0.000 Cl
ATOM     15  C   UNL     1       7.325   4.980  16.496  0.00  0.00    +0.000 A 
ATOM     16  C   UNL     1       6.808   4.634  17.749  0.00  0.00    +0.000 A 
ENDBRANCH   1  10
TORSDOF 2
ENDMDL
MODEL 9
REMARK VINA RESULT:      -6.6      4.093      4.630
REMARK  Name = 
REMARK  2 active torsions:
REMARK  status: ('A' for Active; 'I' for Inactive)
REMARK    1  A    between atoms: C_4  and  N_5
REMARK    2  A    between atoms: N_5  and  C_6
REMARK                            x       y       z     vdW  Elec       q    Type
REMARK                         _______ _______ _______ _____ _____    ______ ____
ROOT
ATOM      1  N   UNL     1       3.036   6.303  19.344  0.00  0.00    +0.000 N 
ATOM      2  H   UNL     1       4.015   6.329  19.084  0.00  0.00    +0.000 HD
ENDROOT
BRANCH   1   6
ATOM      3  O   UNL     1       1.780   2.742  22.220  0.00  0.00    +0.000 OA
ATOM      4  C   UNL     1       1.851   3.168  21.069  0.00  0.00    +0.000 C 
ATOM      5  C   UNL     1       2.362   4.535  20.830  0.00  0.00    +0.000 C 
ATOM      6  C   UNL     1       2.499   5.048  19.591  0.00  0.00    +0.000 C 
ATOM      7  C   UNL     1       2.025   4.273  18.377  0.00  0.00    +0.000 C 
ATOM      8  C   UNL     1       1.027   3.168  18.721  0.00  0.00    +0.000 C 
ATOM      9  C   UNL     1       1.520   2.311  19.875  0.00  0.00    +0.000 C 
ENDBRANCH   1   6
BRANCH   1  10
ATOM     10  C   UNL     1       2.337   7.521  19.263  0.00  0.00    +0.000 A 
ATOM     11  C   UNL     1       1.674   8.066  20.375  0.00  0.00    +0.000 A 
ATOM     12  C   UNL     1       0.882   9.206  20.260  0.00  0.00    +0.000 A 
ATOM     13  C   UNL     1       0.747   9.826  19.022  0.00  0.00    +0.000 A 
ATOM     14 CL   UNL     1      -0.258  11.213  18.865  0.00  0.00    +0.000 Cl
ATOM     15  C   UNL     1       1.414   9.320  17.909  0.00  0.00    +0.000 A 
ATOM     16  C   UNL     1       2.206   8.173  18.030  0.00  0.00    +0.000 A 
ENDBRANCH   1  10
TORSDOF 2
ENDMDL
