MODEL 1
REMARK VINA RESULT:      -7.1      0.000      0.000
REMARK  Name = 
REMARK  9 active torsions:
REMARK  status: ('A' for Active; 'I' for Inactive)
REMARK    1  A    between atoms: C_1  and  C_2
REMARK    2  A    between atoms: C_2  and  C_3
REMARK    3  A    between atoms: C_2  and  C_4
REMARK    4  A    between atoms: C_2  and  C_5
REMARK    5  A    between atoms: C_5  and  C_6
REMARK    6  A    between atoms: N_13  and  C_14
REMARK    7  A    between atoms: C_17  and  O_18
REMARK    8  A    between atoms: O_18  and  C_19
REMARK    9  A    between atoms: C_19  and  C_20
REMARK                            x       y       z     vdW  Elec       q    Type
REMARK                         _______ _______ _______ _____ _____    ______ ____
ROOT
ATOM      1  C   UNL     1      -4.423  12.750  21.753  0.00  0.00    +0.000 C 
ATOM      2  O   UNL     1      -4.404  13.182  22.910  0.00  0.00    +0.000 OA
ATOM      3  N   UNL     1      -3.244  12.570  21.077  0.00  0.00    +0.000 N 
ATOM      4  C   UNL     1      -1.984  12.804  21.750  0.00  0.00    +0.000 C 
ATOM      5  C   UNL     1      -1.024  13.139  20.623  0.00  0.00    +0.000 C 
ATOM      6  C   UNL     1       0.431  12.892  20.944  0.00  0.00    +0.000 C 
ATOM      7  C   UNL     1       0.735  11.410  21.040  0.00  0.00    +0.000 C 
ATOM      8  N   UNL     1       0.297  10.669  19.860  0.00  0.00    +0.000 N 
ATOM      9  C   UNL     1      -1.002  10.875  19.366  0.00  0.00    +0.000 C 
ATOM     10  O   UNL     1      -1.659  10.031  18.758  0.00  0.00    +0.000 OA
ATOM     11  C   UNL     1      -1.535  12.299  19.458  0.00  0.00    +0.000 C 
ATOM     12  C   UNL     1      -3.056  12.317  19.653  0.00  0.00    +0.000 C 
ENDROOT
BRANCH   8  13
ATOM     13  C   UNL     1       1.065   9.529  19.439  0.00  0.00    +0.000 A 
ATOM     14  C   UNL     1       1.339   8.490  20.335  0.00  0.00    +0.000 A 
ATOM     15  C   UNL     1       2.065   7.363  19.932  0.00  0.00    +0.000 A 
ATOM     16  C   UNL     1       2.500   7.239  18.622  0.00  0.00    +0.000 A 
ATOM     17  C   UNL     1       2.238   8.254  17.715  0.00  0.00    +0.000 A 
ATOM     18  C   UNL     1       1.521   9.388  18.118  0.00  0.00    +0.000 A 
BRANCH  16  19
ATOM     19  O   UNL     1       3.194   6.098  18.351  0.00  0.00    +0.000 OA
BRANCH  19  20
ATOM     20  C   UNL     1       2.669   4.894  18.917  0.00  0.00    +0.000 C 
BRANCH  20  21
ATOM     21  C   UNL     1       1.955   4.072  17.850  0.00  0.00    +0.000 C 
ATOM     22  F   UNL     1       0.987   4.762  17.209  0.00  0.00    +0.000 F 
ATOM     23  F   UNL     1       2.835   3.648  16.909  0.00  0.00    +0.000 F 
ATOM     24  F   UNL     1       1.384   2.971  18.388  0.00  0.00    +0.000 F 
ENDBRANCH  20  21
ENDBRANCH  19  20
ENDBRANCH  16  19
ENDBRANCH   8  13
BRANCH   1  25
ATOM     25  C   UNL     1      -5.712  12.364  21.032  0.00  0.00    +0.000 C 
BRANCH  25  27
ATOM     26  C   UNL     1      -5.819  14.846  20.472  0.00  0.00    +0.000 C 
ATOM     27  C   UNL     1      -6.636  13.555  20.658  0.00  0.00    +0.000 C 
ATOM     28  C   UNL     1      -7.738  13.762  21.715  0.00  0.00    +0.000 C 
ATOM     29  C   UNL     1      -7.333  13.254  19.316  0.00  0.00    +0.000 C 
ENDBRANCH  25  27
ENDBRANCH   1  25
TORSDOF 6
ENDMDL
MODEL 2
REMARK VINA RESULT:      -6.8      1.340      2.007
REMARK  Name = 
REMARK  9 active torsions:
REMARK  status: ('A' for Active; 'I' for Inactive)
REMARK    1  A    between atoms: C_1  and  C_2
REMARK    2  A    between atoms: C_2  and  C_3
REMARK    3  A    between atoms: C_2  and  C_4
REMARK    4  A    between atoms: C_2  and  C_5
REMARK    5  A    between atoms: C_5  and  C_6
REMARK    6  A    between atoms: N_13  and  C_14
REMARK    7  A    between atoms: C_17  and  O_18
REMARK    8  A    between atoms: O_18  and  C_19
REMARK    9  A    between atoms: C_19  and  C_20
REMARK                            x       y       z     vdW  Elec       q    Type
REMARK                         _______ _______ _______ _____ _____    ______ ____
ROOT
ATOM      1  C   UNL     1      -4.450  12.780  21.516  0.00  0.00    +0.000 C 
ATOM      2  O   UNL     1      -4.434  13.257  22.655  0.00  0.00    +0.000 OA
ATOM      3  N   UNL     1      -3.270  12.590  20.843  0.00  0.00    +0.000 N 
ATOM      4  C   UNL     1      -2.012  12.870  21.501  0.00  0.00    +0.000 C 
ATOM      5  C   UNL     1      -1.061  13.174  20.358  0.00  0.00    +0.000 C 
ATOM      6  C   UNL     1       0.399  12.961  20.683  0.00  0.00    +0.000 C 
ATOM      7  C   UNL     1       0.724  11.488  20.836  0.00  0.00    +0.000 C 
ATOM      8  N   UNL     1       0.293  10.695  19.688  0.00  0.00    +0.000 N 
ATOM      9  C   UNL     1      -1.010  10.863  19.191  0.00  0.00    +0.000 C 
ATOM     10  O   UNL     1      -1.657   9.986  18.619  0.00  0.00    +0.000 OA
ATOM     11  C   UNL     1      -1.563  12.281  19.229  0.00  0.00    +0.000 C 
ATOM     12  C   UNL     1      -3.084  12.285  19.429  0.00  0.00    +0.000 C 
ENDROOT
BRANCH   8  13
ATOM     13  C   UNL     1       1.077   9.551  19.309  0.00  0.00    +0.000 A 
ATOM     14  C   UNL     1       1.622   9.460  18.024  0.00  0.00    +0.000 A 
ATOM     15  C   UNL     1       2.407   8.364  17.648  0.00  0.00    +0.000 A 
ATOM     16  C   UNL     1       2.689   7.358  18.558  0.00  0.00    +0.000 A 
ATOM     17  C   UNL     1       2.163   7.427  19.840  0.00  0.00    +0.000 A 
ATOM     18  C   UNL     1       1.369   8.517  20.214  0.00  0.00    +0.000 A 
BRANCH  16  19
ATOM     19  O   UNL     1       3.464   6.346  18.076  0.00  0.00    +0.000 OA
BRANCH  19  20
ATOM     20  C   UNL     1       4.634   6.740  17.354  0.00  0.00    +0.000 C 
BRANCH  20  21
ATOM     21  C   UNL     1       5.067   5.634  16.398  0.00  0.00    +0.000 C 
ATOM     22  F   UNL     1       5.118   6.036  15.110  0.00  0.00    +0.000 F 
ATOM     23  F   UNL     1       6.303   5.181  16.725  0.00  0.00    +0.000 F 
ATOM     24  F   UNL     1       4.224   4.579  16.464  0.00  0.00    +0.000 F 
ENDBRANCH  20  21
ENDBRANCH  19  20
ENDBRANCH  16  19
ENDBRANCH   8  13
BRANCH   1  25
ATOM     25  C   UNL     1      -5.735  12.347  20.816  0.00  0.00    +0.000 C 
BRANCH  25  27
ATOM     26  C   UNL     1      -7.577  13.908  21.626  0.00  0.00    +0.000 C 
ATOM     27  C   UNL     1      -6.695  13.507  20.430  0.00  0.00    +0.000 C 
ATOM     28  C   UNL     1      -7.567  13.133  19.217  0.00  0.00    +0.000 C 
ATOM     29  C   UNL     1      -5.862  14.744  20.038  0.00  0.00    +0.000 C 
ENDBRANCH  25  27
ENDBRANCH   1  25
TORSDOF 6
ENDMDL
MODEL 3
REMARK VINA RESULT:      -6.8      0.671      1.372
REMARK  Name = 
REMARK  9 active torsions:
REMARK  status: ('A' for Active; 'I' for Inactive)
REMARK    1  A    between atoms: C_1  and  C_2
REMARK    2  A    between atoms: C_2  and  C_3
REMARK    3  A    between atoms: C_2  and  C_4
REMARK    4  A    between atoms: C_2  and  C_5
REMARK    5  A    between atoms: C_5  and  C_6
REMARK    6  A    between atoms: N_13  and  C_14
REMARK    7  A    between atoms: C_17  and  O_18
REMARK    8  A    between atoms: O_18  and  C_19
REMARK    9  A    between atoms: C_19  and  C_20
REMARK                            x       y       z     vdW  Elec       q    Type
REMARK                         _______ _______ _______ _____ _____    ______ ____
ROOT
ATOM      1  C   UNL     1      -4.193  13.155  21.406  0.00  0.00    +0.000 C 
ATOM      2  O   UNL     1      -4.063  13.829  22.432  0.00  0.00    +0.000 OA
ATOM      3  N   UNL     1      -3.085  12.821  20.670  0.00  0.00    +0.000 N 
ATOM      4  C   UNL     1      -1.767  13.184  21.144  0.00  0.00    +0.000 C 
ATOM      5  C   UNL     1      -0.930  13.256  19.880  0.00  0.00    +0.000 C 
ATOM      6  C   UNL     1       0.553  13.071  20.098  0.00  0.00    +0.000 C 
ATOM      7  C   UNL     1       0.884  11.643  20.484  0.00  0.00    +0.000 C 
ATOM      8  N   UNL     1       0.339  10.666  19.545  0.00  0.00    +0.000 N 
ATOM      9  C   UNL     1      -1.006  10.772  19.151  0.00  0.00    +0.000 C 
ATOM     10  O   UNL     1      -1.710   9.822  18.812  0.00  0.00    +0.000 OA
ATOM     11  C   UNL     1      -1.545  12.186  18.984  0.00  0.00    +0.000 C 
ATOM     12  C   UNL     1      -3.039  12.261  19.324  0.00  0.00    +0.000 C 
ENDROOT
BRANCH   8  13
ATOM     13  C   UNL     1       1.075   9.455  19.307  0.00  0.00    +0.000 A 
ATOM     14  C   UNL     1       1.661   9.216  18.060  0.00  0.00    +0.000 A 
ATOM     15  C   UNL     1       2.402   8.052  17.821  0.00  0.00    +0.000 A 
ATOM     16  C   UNL     1       2.598   7.125  18.832  0.00  0.00    +0.000 A 
ATOM     17  C   UNL     1       2.031   7.341  20.079  0.00  0.00    +0.000 A 
ATOM     18  C   UNL     1       1.280   8.500  20.317  0.00  0.00    +0.000 A 
BRANCH  16  19
ATOM     19  O   UNL     1       3.337   6.036  18.479  0.00  0.00    +0.000 OA
BRANCH  19  20
ATOM     20  C   UNL     1       3.150   4.865  19.278  0.00  0.00    +0.000 C 
BRANCH  20  21
ATOM     21  C   UNL     1       1.993   4.031  18.740  0.00  0.00    +0.000 C 
ATOM     22  F   UNL     1       1.605   4.401  17.500  0.00  0.00    +0.000 F 
ATOM     23  F   UNL     1       2.340   2.722  18.676  0.00  0.00    +0.000 F 
ATOM     24  F   UNL     1       0.913   4.120  19.549  0.00  0.00    +0.000 F 
ENDBRANCH  20  21
ENDBRANCH  19  20
ENDBRANCH  16  19
ENDBRANCH   8  13
BRANCH   1  25
ATOM     25  C   UNL     1      -5.542  12.633  20.920  0.00  0.00    +0.000 C 
BRANCH  25  27
ATOM     26  C   UNL     1      -6.568  13.111  18.640  0.00  0.00    +0.000 C 
ATOM     27  C   UNL     1      -6.367  13.639  20.071  0.00  0.00    +0.000 C 
ATOM     28  C   UNL     1      -5.703  15.028  20.046  0.00  0.00    +0.000 C 
ATOM     29  C   UNL     1      -7.766  13.806  20.701  0.00  0.00    +0.000 C 
ENDBRANCH  25  27
ENDBRANCH   1  25
TORSDOF 6
ENDMDL
MODEL 4
REMARK VINA RESULT:      -6.8      1.603      2.171
REMARK  Name = 
REMARK  9 active torsions:
REMARK  status: ('A' for Active; 'I' for Inactive)
REMARK    1  A    between atoms: C_1  and  C_2
REMARK    2  A    between atoms: C_2  and  C_3
REMARK    3  A    between atoms: C_2  and  C_4
REMARK    4  A    between atoms: C_2  and  C_5
REMARK    5  A    between atoms: C_5  and  C_6
REMARK    6  A    between atoms: N_13  and  C_14
REMARK    7  A    between atoms: C_17  and  O_18
REMARK    8  A    between atoms: O_18  and  C_19
REMARK    9  A    between atoms: C_19  and  C_20
REMARK                            x       y       z     vdW  Elec       q    Type
REMARK                         _______ _______ _______ _____ _____    ______ ____
ROOT
ATOM      1  C   UNL     1      -3.022  14.194  21.096  0.00  0.00    +0.000 C 
ATOM      2  O   UNL     1      -2.575  15.182  21.685  0.00  0.00    +0.000 OA
ATOM      3  N   UNL     1      -2.215  13.495  20.235  0.00  0.00    +0.000 N 
ATOM      4  C   UNL     1      -0.824  13.867  20.087  0.00  0.00    +0.000 C 
ATOM      5  C   UNL     1      -0.459  13.375  18.698  0.00  0.00    +0.000 C 
ATOM      6  C   UNL     1       1.016  13.130  18.488  0.00  0.00    +0.000 C 
ATOM      7  C   UNL     1       1.494  11.920  19.267  0.00  0.00    +0.000 C 
ATOM      8  N   UNL     1       0.693  10.728  19.002  0.00  0.00    +0.000 N 
ATOM      9  C   UNL     1      -0.708  10.822  19.047  0.00  0.00    +0.000 C 
ATOM     10  O   UNL     1      -1.460   9.894  19.343  0.00  0.00    +0.000 OA
ATOM     11  C   UNL     1      -1.309  12.121  18.529  0.00  0.00    +0.000 C 
ATOM     12  C   UNL     1      -2.606  12.474  19.269  0.00  0.00    +0.000 C 
ENDROOT
BRANCH   8  13
ATOM     13  C   UNL     1       1.339   9.445  19.028  0.00  0.00    +0.000 A 
ATOM     14  C   UNL     1       1.401   8.706  20.215  0.00  0.00    +0.000 A 
ATOM     15  C   UNL     1       2.006   7.445  20.250  0.00  0.00    +0.000 A 
ATOM     16  C   UNL     1       2.529   6.884  19.096  0.00  0.00    +0.000 A 
ATOM     17  C   UNL     1       2.477   7.595  17.906  0.00  0.00    +0.000 A 
ATOM     18  C   UNL     1       1.881   8.862  17.871  0.00  0.00    +0.000 A 
BRANCH  16  19
ATOM     19  O   UNL     1       3.089   5.653  19.256  0.00  0.00    +0.000 OA
BRANCH  19  20
ATOM     20  C   UNL     1       2.619   4.889  20.370  0.00  0.00    +0.000 C 
BRANCH  20  21
ATOM     21  C   UNL     1       1.500   3.949  19.938  0.00  0.00    +0.000 C 
ATOM     22  F   UNL     1       1.653   2.692  20.406  0.00  0.00    +0.000 F 
ATOM     23  F   UNL     1       0.301   4.400  20.385  0.00  0.00    +0.000 F 
ATOM     24  F   UNL     1       1.422   3.876  18.590  0.00  0.00    +0.000 F 
ENDBRANCH  20  21
ENDBRANCH  19  20
ENDBRANCH  16  19
ENDBRANCH   8  13
BRANCH   1  25
ATOM     25  C   UNL     1      -4.442  13.674  21.305  0.00  0.00    +0.000 C 
BRANCH  25  27
ATOM     26  C   UNL     1      -5.058  14.931  23.432  0.00  0.00    +0.000 C 
ATOM     27  C   UNL     1      -4.881  13.544  22.789  0.00  0.00    +0.000 C 
ATOM     28  C   UNL     1      -3.878  12.698  23.598  0.00  0.00    +0.000 C 
ATOM     29  C   UNL     1      -6.246  12.829  22.853  0.00  0.00    +0.000 C 
ENDBRANCH  25  27
ENDBRANCH   1  25
TORSDOF 6
ENDMDL
MODEL 5
REMARK VINA RESULT:      -6.7      1.898      2.455
REMARK  Name = 
REMARK  9 active torsions:
REMARK  status: ('A' for Active; 'I' for Inactive)
REMARK    1  A    between atoms: C_1  and  C_2
REMARK    2  A    between atoms: C_2  and  C_3
REMARK    3  A    between atoms: C_2  and  C_4
REMARK    4  A    between atoms: C_2  and  C_5
REMARK    5  A    between atoms: C_5  and  C_6
REMARK    6  A    between atoms: N_13  and  C_14
REMARK    7  A    between atoms: C_17  and  O_18
REMARK    8  A    between atoms: O_18  and  C_19
REMARK    9  A    between atoms: C_19  and  C_20
REMARK                            x       y       z     vdW  Elec       q    Type
REMARK                         _______ _______ _______ _____ _____    ______ ____
ROOT
ATOM      1  C   UNL     1      -2.468  14.487  21.195  0.00  0.00    +0.000 C 
ATOM      2  O   UNL     1      -1.919  15.467  21.706  0.00  0.00    +0.000 OA
ATOM      3  N   UNL     1      -1.771  13.702  20.312  0.00  0.00    +0.000 N 
ATOM      4  C   UNL     1      -0.373  13.975  20.053  0.00  0.00    +0.000 C 
ATOM      5  C   UNL     1      -0.140  13.405  18.665  0.00  0.00    +0.000 C 
ATOM      6  C   UNL     1       1.297  13.054  18.365  0.00  0.00    +0.000 C 
ATOM      7  C   UNL     1       1.753  11.848  19.163  0.00  0.00    +0.000 C 
ATOM      8  N   UNL     1       0.862  10.702  19.008  0.00  0.00    +0.000 N 
ATOM      9  C   UNL     1      -0.524  10.890  19.146  0.00  0.00    +0.000 C 
ATOM     10  O   UNL     1      -1.310  10.026  19.534  0.00  0.00    +0.000 OA
ATOM     11  C   UNL     1      -1.078  12.204  18.612  0.00  0.00    +0.000 C 
ATOM     12  C   UNL     1      -2.293  12.671  19.423  0.00  0.00    +0.000 C 
ENDROOT
BRANCH   8  13
ATOM     13  C   UNL     1       1.426   9.381  19.048  0.00  0.00    +0.000 A 
ATOM     14  C   UNL     1       1.426   8.646  20.238  0.00  0.00    +0.000 A 
ATOM     15  C   UNL     1       1.951   7.349  20.286  0.00  0.00    +0.000 A 
ATOM     16  C   UNL     1       2.452   6.752  19.141  0.00  0.00    +0.000 A 
ATOM     17  C   UNL     1       2.460   7.458  17.947  0.00  0.00    +0.000 A 
ATOM     18  C   UNL     1       1.946   8.760  17.899  0.00  0.00    +0.000 A 
BRANCH  16  19
ATOM     19  O   UNL     1       2.932   5.489  19.312  0.00  0.00    +0.000 OA
BRANCH  19  20
ATOM     20  C   UNL     1       2.155   4.437  18.733  0.00  0.00    +0.000 C 
BRANCH  20  21
ATOM     21  C   UNL     1       1.424   3.655  19.818  0.00  0.00    +0.000 C 
ATOM     22  F   UNL     1       0.843   2.526  19.358  0.00  0.00    +0.000 F 
ATOM     23  F   UNL     1       2.283   3.290  20.802  0.00  0.00    +0.000 F 
ATOM     24  F   UNL     1       0.457   4.409  20.391  0.00  0.00    +0.000 F 
ENDBRANCH  20  21
ENDBRANCH  19  20
ENDBRANCH  16  19
ENDBRANCH   8  13
BRANCH   1  25
ATOM     25  C   UNL     1      -3.900  14.071  21.524  0.00  0.00    +0.000 C 
BRANCH  25  27
ATOM     26  C   UNL     1      -3.089  12.324  23.190  0.00  0.00    +0.000 C 
ATOM     27  C   UNL     1      -4.097  13.460  22.938  0.00  0.00    +0.000 C 
ATOM     28  C   UNL     1      -5.539  12.955  23.135  0.00  0.00    +0.000 C 
ATOM     29  C   UNL     1      -3.838  14.548  24.001  0.00  0.00    +0.000 C 
ENDBRANCH  25  27
ENDBRANCH   1  25
TORSDOF 6
ENDMDL
MODEL 6
REMARK VINA RESULT:      -6.7      1.266      1.792
REMARK  Name = 
REMARK  9 active torsions:
REMARK  status: ('A' for Active; 'I' for Inactive)
REMARK    1  A    between atoms: C_1  and  C_2
REMARK    2  A    between atoms: C_2  and  C_3
REMARK    3  A    between atoms: C_2  and  C_4
REMARK    4  A    between atoms: C_2  and  C_5
REMARK    5  A    between atoms: C_5  and  C_6
REMARK    6  A    between atoms: N_13  and  C_14
REMARK    7  A    between atoms: C_17  and  O_18
REMARK    8  A    between atoms: O_18  and  C_19
REMARK    9  A    between atoms: C_19  and  C_20
REMARK                            x       y       z     vdW  Elec       q    Type
REMARK                         _______ _______ _______ _____ _____    ______ ____
ROOT
ATOM      1  C   UNL     1      -4.133  12.799  20.259  0.00  0.00    +0.000 C 
ATOM      2  O   UNL     1      -4.535  13.015  21.406  0.00  0.00    +0.000 OA
ATOM      3  N   UNL     1      -2.814  12.485  20.051  0.00  0.00    +0.000 N 
ATOM      4  C   UNL     1      -1.923  12.326  21.180  0.00  0.00    +0.000 C 
ATOM      5  C   UNL     1      -0.550  12.631  20.609  0.00  0.00    +0.000 C 
ATOM      6  C   UNL     1       0.598  12.026  21.381  0.00  0.00    +0.000 C 
ATOM      7  C   UNL     1       0.640  10.518  21.223  0.00  0.00    +0.000 C 
ATOM      8  N   UNL     1       0.633  10.098  19.824  0.00  0.00    +0.000 N 
ATOM      9  C   UNL     1      -0.309  10.661  18.946  0.00  0.00    +0.000 C 
ATOM     10  O   UNL     1      -0.762  10.093  17.953  0.00  0.00    +0.000 OA
ATOM     11  C   UNL     1      -0.642  12.129  19.172  0.00  0.00    +0.000 C 
ATOM     12  C   UNL     1      -2.093  12.442  18.784  0.00  0.00    +0.000 C 
ENDROOT
BRANCH   8  13
ATOM     13  C   UNL     1       1.350   8.908  19.460  0.00  0.00    +0.000 A 
ATOM     14  C   UNL     1       1.969   8.809  18.208  0.00  0.00    +0.000 A 
ATOM     15  C   UNL     1       2.691   7.665  17.849  0.00  0.00    +0.000 A 
ATOM     16  C   UNL     1       2.838   6.617  18.743  0.00  0.00    +0.000 A 
ATOM     17  C   UNL     1       2.237   6.693  19.991  0.00  0.00    +0.000 A 
ATOM     18  C   UNL     1       1.505   7.832  20.349  0.00  0.00    +0.000 A 
BRANCH  16  19
ATOM     19  O   UNL     1       3.563   5.562  18.279  0.00  0.00    +0.000 OA
BRANCH  19  20
ATOM     20  C   UNL     1       3.133   4.267  18.707  0.00  0.00    +0.000 C 
BRANCH  20  21
ATOM     21  C   UNL     1       2.122   3.690  17.723  0.00  0.00    +0.000 C 
ATOM     22  F   UNL     1       1.175   4.580  17.352  0.00  0.00    +0.000 F 
ATOM     23  F   UNL     1       2.744   3.273  16.592  0.00  0.00    +0.000 F 
ATOM     24  F   UNL     1       1.490   2.617  18.250  0.00  0.00    +0.000 F 
ENDBRANCH  20  21
ENDBRANCH  19  20
ENDBRANCH  16  19
ENDBRANCH   8  13
BRANCH   1  25
ATOM     25  C   UNL     1      -5.050  12.827  19.039  0.00  0.00    +0.000 C 
BRANCH  25  27
ATOM     26  C   UNL     1      -7.141  11.917  17.906  0.00  0.00    +0.000 C 
ATOM     27  C   UNL     1      -6.022  11.621  18.921  0.00  0.00    +0.000 C 
ATOM     28  C   UNL     1      -6.620  11.247  20.290  0.00  0.00    +0.000 C 
ATOM     29  C   UNL     1      -5.245  10.393  18.404  0.00  0.00    +0.000 C 
ENDBRANCH  25  27
ENDBRANCH   1  25
TORSDOF 6
ENDMDL
MODEL 7
REMARK VINA RESULT:      -6.7      1.220      1.597
REMARK  Name = 
REMARK  9 active torsions:
REMARK  status: ('A' for Active; 'I' for Inactive)
REMARK    1  A    between atoms: C_1  and  C_2
REMARK    2  A    between atoms: C_2  and  C_3
REMARK    3  A    between atoms: C_2  and  C_4
REMARK    4  A    between atoms: C_2  and  C_5
REMARK    5  A    between atoms: C_5  and  C_6
REMARK    6  A    between atoms: N_13  and  C_14
REMARK    7  A    between atoms: C_17  and  O_18
REMARK    8  A    between atoms: O_18  and  C_19
REMARK    9  A    between atoms: C_19  and  C_20
REMARK                            x       y       z     vdW  Elec       q    Type
REMARK                         _______ _______ _______ _____ _____    ______ ____
ROOT
ATOM      1  C   UNL     1      -4.170  12.498  20.042  0.00  0.00    +0.000 C 
ATOM      2  O   UNL     1      -4.458  12.839  21.193  0.00  0.00    +0.000 OA
ATOM      3  N   UNL     1      -2.860  12.262  19.712  0.00  0.00    +0.000 N 
ATOM      4  C   UNL     1      -1.836  12.330  20.732  0.00  0.00    +0.000 C 
ATOM      5  C   UNL     1      -0.571  12.658  19.959  0.00  0.00    +0.000 C 
ATOM      6  C   UNL     1       0.709  12.257  20.652  0.00  0.00    +0.000 C 
ATOM      7  C   UNL     1       0.873  10.750  20.685  0.00  0.00    +0.000 C 
ATOM      8  N   UNL     1       0.747  10.141  19.364  0.00  0.00    +0.000 N 
ATOM      9  C   UNL     1      -0.337  10.501  18.545  0.00  0.00    +0.000 C 
ATOM     10  O   UNL     1      -0.845   9.768  17.698  0.00  0.00    +0.000 OA
ATOM     11  C   UNL     1      -0.778  11.957  18.621  0.00  0.00    +0.000 C 
ATOM     12  C   UNL     1      -2.287  12.099  18.380  0.00  0.00    +0.000 C 
ENDROOT
BRANCH   8  13
ATOM     13  C   UNL     1       1.527   8.971  19.068  0.00  0.00    +0.000 A 
ATOM     14  C   UNL     1       2.222   8.870  17.857  0.00  0.00    +0.000 A 
ATOM     15  C   UNL     1       3.005   7.747  17.566  0.00  0.00    +0.000 A 
ATOM     16  C   UNL     1       3.134   6.722  18.489  0.00  0.00    +0.000 A 
ATOM     17  C   UNL     1       2.458   6.800  19.698  0.00  0.00    +0.000 A 
ATOM     18  C   UNL     1       1.666   7.918  19.988  0.00  0.00    +0.000 A 
BRANCH  16  19
ATOM     19  O   UNL     1       3.923   5.685  18.092  0.00  0.00    +0.000 OA
BRANCH  19  20
ATOM     20  C   UNL     1       3.594   4.403  18.633  0.00  0.00    +0.000 C 
BRANCH  20  21
ATOM     21  C   UNL     1       3.285   3.416  17.513  0.00  0.00    +0.000 C 
ATOM     22  F   UNL     1       2.048   3.574  16.994  0.00  0.00    +0.000 F 
ATOM     23  F   UNL     1       4.168   3.563  16.493  0.00  0.00    +0.000 F 
ATOM     24  F   UNL     1       3.386   2.140  17.949  0.00  0.00    +0.000 F 
ENDBRANCH  20  21
ENDBRANCH  19  20
ENDBRANCH  16  19
ENDBRANCH   8  13
BRANCH   1  25
ATOM     25  C   UNL     1      -5.218  12.286  18.952  0.00  0.00    +0.000 C 
BRANCH  25  27
ATOM     26  C   UNL     1      -6.314  14.527  19.463  0.00  0.00    +0.000 C 
ATOM     27  C   UNL     1      -6.560  13.034  19.179  0.00  0.00    +0.000 C 
ATOM     28  C   UNL     1      -7.374  12.394  20.320  0.00  0.00    +0.000 C 
ATOM     29  C   UNL     1      -7.413  12.945  17.896  0.00  0.00    +0.000 C 
ENDBRANCH  25  27
ENDBRANCH   1  25
TORSDOF 6
ENDMDL
MODEL 8
REMARK VINA RESULT:      -6.7      1.075      1.875
REMARK  Name = 
REMARK  9 active torsions:
REMARK  status: ('A' for Active; 'I' for Inactive)
REMARK    1  A    between atoms: C_1  and  C_2
REMARK    2  A    between atoms: C_2  and  C_3
REMARK    3  A    between atoms: C_2  and  C_4
REMARK    4  A    between atoms: C_2  and  C_5
REMARK    5  A    between atoms: C_5  and  C_6
REMARK    6  A    between atoms: N_13  and  C_14
REMARK    7  A    between atoms: C_17  and  O_18
REMARK    8  A    between atoms: O_18  and  C_19
REMARK    9  A    between atoms: C_19  and  C_20
REMARK                            x       y       z     vdW  Elec       q    Type
REMARK                         _______ _______ _______ _____ _____    ______ ____
ROOT
ATOM      1  C   UNL     1      -4.345  12.876  21.730  0.00  0.00    +0.000 C 
ATOM      2  O   UNL     1      -4.292  13.379  22.856  0.00  0.00    +0.000 OA
ATOM      3  N   UNL     1      -3.186  12.649  21.032  0.00  0.00    +0.000 N 
ATOM      4  C   UNL     1      -1.907  12.921  21.652  0.00  0.00    +0.000 C 
ATOM      5  C   UNL     1      -0.980  13.181  20.478  0.00  0.00    +0.000 C 
ATOM      6  C   UNL     1       0.483  12.950  20.772  0.00  0.00    +0.000 C 
ATOM      7  C   UNL     1       0.787  11.475  20.952  0.00  0.00    +0.000 C 
ATOM      8  N   UNL     1       0.313  10.663  19.835  0.00  0.00    +0.000 N 
ATOM      9  C   UNL     1      -0.999  10.843  19.366  0.00  0.00    +0.000 C 
ATOM     10  O   UNL     1      -1.675   9.964  18.832  0.00  0.00    +0.000 OA
ATOM     11  C   UNL     1      -1.526  12.271  19.384  0.00  0.00    +0.000 C 
ATOM     12  C   UNL     1      -3.042  12.307  19.622  0.00  0.00    +0.000 C 
ENDROOT
BRANCH   8  13
ATOM     13  C   UNL     1       1.067   9.497  19.464  0.00  0.00    +0.000 A 
ATOM     14  C   UNL     1       1.655   9.406  18.198  0.00  0.00    +0.000 A 
ATOM     15  C   UNL     1       2.412   8.287  17.831  0.00  0.00    +0.000 A 
ATOM     16  C   UNL     1       2.623   7.256  18.732  0.00  0.00    +0.000 A 
ATOM     17  C   UNL     1       2.053   7.324  19.995  0.00  0.00    +0.000 A 
ATOM     18  C   UNL     1       1.286   8.438  20.360  0.00  0.00    +0.000 A 
BRANCH  16  19
ATOM     19  O   UNL     1       3.376   6.224  18.261  0.00  0.00    +0.000 OA
BRANCH  19  20
ATOM     20  C   UNL     1       4.216   5.572  19.217  0.00  0.00    +0.000 C 
BRANCH  20  21
ATOM     21  C   UNL     1       4.751   4.262  18.650  0.00  0.00    +0.000 C 
ATOM     22  F   UNL     1       4.618   3.222  19.501  0.00  0.00    +0.000 F 
ATOM     23  F   UNL     1       4.092   3.933  17.511  0.00  0.00    +0.000 F 
ATOM     24  F   UNL     1       6.062   4.369  18.337  0.00  0.00    +0.000 F 
ENDBRANCH  20  21
ENDBRANCH  19  20
ENDBRANCH  16  19
ENDBRANCH   8  13
BRANCH   1  25
ATOM     25  C   UNL     1      -5.655  12.450  21.073  0.00  0.00    +0.000 C 
BRANCH  25  27
ATOM     26  C   UNL     1      -7.455  13.189  19.429  0.00  0.00    +0.000 C 
ATOM     27  C   UNL     1      -6.568  13.619  20.612  0.00  0.00    +0.000 C 
ATOM     28  C   UNL     1      -5.740  14.864  20.240  0.00  0.00    +0.000 C 
ATOM     29  C   UNL     1      -7.507  14.016  21.770  0.00  0.00    +0.000 C 
ENDBRANCH  25  27
ENDBRANCH   1  25
TORSDOF 6
ENDMDL
MODEL 9
REMARK VINA RESULT:      -6.7      1.219      1.652
REMARK  Name = 
REMARK  9 active torsions:
REMARK  status: ('A' for Active; 'I' for Inactive)
REMARK    1  A    between atoms: C_1  and  C_2
REMARK    2  A    between atoms: C_2  and  C_3
REMARK    3  A    between atoms: C_2  and  C_4
REMARK    4  A    between atoms: C_2  and  C_5
REMARK    5  A    between atoms: C_5  and  C_6
REMARK    6  A    between atoms: N_13  and  C_14
REMARK    7  A    between atoms: C_17  and  O_18
REMARK    8  A    between atoms: O_18  and  C_19
REMARK    9  A    between atoms: C_19  and  C_20
REMARK                            x       y       z     vdW  Elec       q    Type
REMARK                         _______ _______ _______ _____ _____    ______ ____
ROOT
ATOM      1  C   UNL     1      -4.647  12.758  20.892  0.00  0.00    +0.000 C 
ATOM      2  O   UNL     1      -4.719  13.307  21.995  0.00  0.00    +0.000 OA
ATOM      3  N   UNL     1      -3.419  12.545  20.319  0.00  0.00    +0.000 N 
ATOM      4  C   UNL     1      -2.215  12.886  21.046  0.00  0.00    +0.000 C 
ATOM      5  C   UNL     1      -1.186  13.132  19.956  0.00  0.00    +0.000 C 
ATOM      6  C   UNL     1       0.248  12.965  20.399  0.00  0.00    +0.000 C 
ATOM      7  C   UNL     1       0.579  11.510  20.670  0.00  0.00    +0.000 C 
ATOM      8  N   UNL     1       0.242  10.638  19.548  0.00  0.00    +0.000 N 
ATOM      9  C   UNL     1      -1.024  10.753  18.949  0.00  0.00    +0.000 C 
ATOM     10  O   UNL     1      -1.617   9.830  18.391  0.00  0.00    +0.000 OA
ATOM     11  C   UNL     1      -1.595  12.161  18.855  0.00  0.00    +0.000 C 
ATOM     12  C   UNL     1      -3.126  12.153  18.945  0.00  0.00    +0.000 C 
ENDROOT
BRANCH   8  13
ATOM     13  C   UNL     1       1.064   9.486  19.302  0.00  0.00    +0.000 A 
ATOM     14  C   UNL     1       1.212   8.498  20.282  0.00  0.00    +0.000 A 
ATOM     15  C   UNL     1       1.990   7.358  20.046  0.00  0.00    +0.000 A 
ATOM     16  C   UNL     1       2.605   7.169  18.820  0.00  0.00    +0.000 A 
ATOM     17  C   UNL     1       2.471   8.132  17.831  0.00  0.00    +0.000 A 
ATOM     18  C   UNL     1       1.702   9.278  18.067  0.00  0.00    +0.000 A 
BRANCH  16  19
ATOM     19  O   UNL     1       3.333   6.022  18.711  0.00  0.00    +0.000 OA
BRANCH  19  20
ATOM     20  C   UNL     1       4.080   5.865  17.502  0.00  0.00    +0.000 C 
BRANCH  20  21
ATOM     21  C   UNL     1       4.620   4.443  17.391  0.00  0.00    +0.000 C 
ATOM     22  F   UNL     1       3.938   3.557  18.149  0.00  0.00    +0.000 F 
ATOM     23  F   UNL     1       4.551   4.008  16.108  0.00  0.00    +0.000 F 
ATOM     24  F   UNL     1       5.918   4.387  17.764  0.00  0.00    +0.000 F 
ENDBRANCH  20  21
ENDBRANCH  19  20
ENDBRANCH  16  19
ENDBRANCH   8  13
BRANCH   1  25
ATOM     25  C   UNL     1      -5.872  12.260  20.130  0.00  0.00    +0.000 C 
BRANCH  25  27
ATOM     26  C   UNL     1      -7.916  13.636  20.773  0.00  0.00    +0.000 C 
ATOM     27  C   UNL     1      -6.862  13.371  19.683  0.00  0.00    +0.000 C 
ATOM     28  C   UNL     1      -7.544  13.010  18.350  0.00  0.00    +0.000 C 
ATOM     29  C   UNL     1      -6.084  14.684  19.464  0.00  0.00    +0.000 C 
ENDBRANCH  25  27
ENDBRANCH   1  25
TORSDOF 6
ENDMDL
