MODEL 1
REMARK VINA RESULT:      -6.0      0.000      0.000
REMARK  Name = 
REMARK  7 active torsions:
REMARK  status: ('A' for Active; 'I' for Inactive)
REMARK    1  A    between atoms: C_1  and  C_2
REMARK    2  A    between atoms: C_3  and  C_4
REMARK    3  A    between atoms: N_6  and  C_7
REMARK    4  A    between atoms: N_14  and  C_15
REMARK    5  A    between atoms: C_24  and  N_25
REMARK    6  A    between atoms: C_26  and  C_27
REMARK    7  A    between atoms: C_30  and  C_31
REMARK                            x       y       z     vdW  Elec       q    Type
REMARK                         _______ _______ _______ _____ _____    ______ ____
ROOT
ATOM      1  C   UNL     1       2.104  12.846  20.936  0.00  0.00    +0.000 C 
ATOM      2  C   UNL     1       0.672  12.448  21.033  0.00  0.00    +0.000 A 
ATOM      3  C   UNL     1       0.219  11.097  21.209  0.00  0.00    +0.000 A 
ATOM      4  N   UNL     1      -1.112  11.056  21.350  0.00  0.00    +0.000 NA
ATOM      5  N   UNL     1      -1.548  12.340  21.209  0.00  0.00    +0.000 N 
ATOM      6  C   UNL     1      -0.483  13.234  21.075  0.00  0.00    +0.000 A 
ENDROOT
BRANCH   5   7
ATOM      7  C   UNL     1      -2.960  12.516  21.106  0.00  0.00    +0.000 A 
ATOM      8  C   UNL     1      -3.728  12.690  22.284  0.00  0.00    +0.000 A 
ATOM      9 CL   UNL     1      -3.055  12.888  23.874  0.00  0.00    +0.000 Cl
ATOM     10  C   UNL     1      -5.118  12.840  22.217  0.00  0.00    +0.000 A 
ATOM     11  C   UNL     1      -5.753  12.861  20.984  0.00  0.00    +0.000 A 
ATOM     12 CL   UNL     1      -7.459  13.060  20.906  0.00  0.00    +0.000 Cl
ATOM     13  C   UNL     1      -5.018  12.707  19.815  0.00  0.00    +0.000 A 
ATOM     14  C   UNL     1      -3.633  12.492  19.871  0.00  0.00    +0.000 A 
ATOM     15 CL   UNL     1      -2.905  12.045  18.367  0.00  0.00    +0.000 Cl
ENDBRANCH   5   7
BRANCH   6  16
ATOM     16  N   UNL     1      -0.587  14.654  21.055  0.00  0.00    +0.000 N 
ATOM     17  C   UNL     1      -0.824  15.510  22.149  0.00  0.00    +0.000 A 
ATOM     18  C   UNL     1      -0.885  15.133  23.589  0.00  0.00    +0.000 C 
ATOM     19  C   UNL     1      -0.931  16.813  21.695  0.00  0.00    +0.000 A 
ATOM     20  C   UNL     1      -0.690  16.809  20.323  0.00  0.00    +0.000 A 
ATOM     21  C   UNL     1      -0.495  15.499  19.930  0.00  0.00    +0.000 A 
ATOM     22  C   UNL     1      -0.351  15.080  18.507  0.00  0.00    +0.000 C 
ENDBRANCH   6  16
BRANCH   3  23
ATOM     23  C   UNL     1       1.046   9.864  21.253  0.00  0.00    +0.000 C 
ATOM     24  O   UNL     1       1.645   9.519  22.272  0.00  0.00    +0.000 OA
ATOM     25  N   UNL     1       1.122   9.115  20.081  0.00  0.00    +0.000 N 
ATOM     26  H   UNL     1       0.534   9.417  19.303  0.00  0.00    +0.000 HD
BRANCH  25  27
ATOM     27  C   UNL     1       1.885   7.883  20.053  0.00  0.00    +0.000 C 
ATOM     28  C   UNL     1       2.413   7.496  18.664  0.00  0.00    +0.000 C 
ATOM     29  C   UNL     1       3.384   6.314  18.787  0.00  0.00    +0.000 C 
ATOM     30  C   UNL     1       2.768   5.111  19.504  0.00  0.00    +0.000 C 
ATOM     31  C   UNL     1       2.059   5.488  20.806  0.00  0.00    +0.000 C 
ATOM     32  C   UNL     1       1.121   6.686  20.635  0.00  0.00    +0.000 C 
ENDBRANCH  25  27
ENDBRANCH   3  23
TORSDOF 4
ENDMDL
MODEL 2
REMARK VINA RESULT:      -6.0      2.087      4.192
REMARK  Name = 
REMARK  7 active torsions:
REMARK  status: ('A' for Active; 'I' for Inactive)
REMARK    1  A    between atoms: C_1  and  C_2
REMARK    2  A    between atoms: C_3  and  C_4
REMARK    3  A    between atoms: N_6  and  C_7
REMARK    4  A    between atoms: N_14  and  C_15
REMARK    5  A    between atoms: C_24  and  N_25
REMARK    6  A    between atoms: C_26  and  C_27
REMARK    7  A    between atoms: C_30  and  C_31
REMARK                            x       y       z     vdW  Elec       q    Type
REMARK                         _______ _______ _______ _____ _____    ______ ____
ROOT
ATOM      1  C   UNL     1      -1.305  10.393  23.202  0.00  0.00    +0.000 C 
ATOM      2  C   UNL     1      -0.659  11.288  22.202  0.00  0.00    +0.000 A 
ATOM      3  C   UNL     1       0.476  10.920  21.404  0.00  0.00    +0.000 A 
ATOM      4  N   UNL     1       0.780  11.892  20.534  0.00  0.00    +0.000 NA
ATOM      5  N   UNL     1      -0.090  12.912  20.784  0.00  0.00    +0.000 N 
ATOM      6  C   UNL     1      -1.028  12.560  21.756  0.00  0.00    +0.000 A 
ENDROOT
BRANCH   5   7
ATOM      7  C   UNL     1       0.182  14.145  20.122  0.00  0.00    +0.000 A 
ATOM      8  C   UNL     1      -0.129  14.281  18.746  0.00  0.00    +0.000 A 
ATOM      9 CL   UNL     1      -0.997  13.098  17.816  0.00  0.00    +0.000 Cl
ATOM     10  C   UNL     1       0.149  15.471  18.063  0.00  0.00    +0.000 A 
ATOM     11  C   UNL     1       0.696  16.548  18.744  0.00  0.00    +0.000 A 
ATOM     12 CL   UNL     1       1.022  18.012  17.904  0.00  0.00    +0.000 Cl
ATOM     13  C   UNL     1       0.996  16.443  20.097  0.00  0.00    +0.000 A 
ATOM     14  C   UNL     1       0.782  15.235  20.779  0.00  0.00    +0.000 A 
ATOM     15 CL   UNL     1       1.455  15.171  22.371  0.00  0.00    +0.000 Cl
ENDBRANCH   5   7
BRANCH   6  16
ATOM     16  N   UNL     1      -2.157  13.338  22.142  0.00  0.00    +0.000 N 
ATOM     17  C   UNL     1      -2.284  14.155  23.283  0.00  0.00    +0.000 A 
ATOM     18  C   UNL     1      -1.219  14.495  24.268  0.00  0.00    +0.000 C 
ATOM     19  C   UNL     1      -3.565  14.676  23.332  0.00  0.00    +0.000 A 
ATOM     20  C   UNL     1      -4.242  14.257  22.190  0.00  0.00    +0.000 A 
ATOM     21  C   UNL     1      -3.395  13.433  21.472  0.00  0.00    +0.000 A 
ATOM     22  C   UNL     1      -3.815  12.676  20.260  0.00  0.00    +0.000 C 
ENDBRANCH   6  16
BRANCH   3  23
ATOM     23  C   UNL     1       1.253   9.655  21.463  0.00  0.00    +0.000 C 
ATOM     24  O   UNL     1       1.883   9.326  22.469  0.00  0.00    +0.000 OA
ATOM     25  N   UNL     1       1.246   8.859  20.321  0.00  0.00    +0.000 N 
ATOM     26  H   UNL     1       0.637   9.154  19.557  0.00  0.00    +0.000 HD
BRANCH  25  27
ATOM     27  C   UNL     1       1.957   7.595  20.311  0.00  0.00    +0.000 C 
ATOM     28  C   UNL     1       2.559   7.217  18.950  0.00  0.00    +0.000 C 
ATOM     29  C   UNL     1       3.469   5.991  19.106  0.00  0.00    +0.000 C 
ATOM     30  C   UNL     1       2.755   4.800  19.750  0.00  0.00    +0.000 C 
ATOM     31  C   UNL     1       1.978   5.178  21.012  0.00  0.00    +0.000 C 
ATOM     32  C   UNL     1       1.105   6.420  20.811  0.00  0.00    +0.000 C 
ENDBRANCH  25  27
ENDBRANCH   3  23
TORSDOF 4
ENDMDL
MODEL 3
REMARK VINA RESULT:      -6.0      4.300      5.807
REMARK  Name = 
REMARK  7 active torsions:
REMARK  status: ('A' for Active; 'I' for Inactive)
REMARK    1  A    between atoms: C_1  and  C_2
REMARK    2  A    between atoms: C_3  and  C_4
REMARK    3  A    between atoms: N_6  and  C_7
REMARK    4  A    between atoms: N_14  and  C_15
REMARK    5  A    between atoms: C_24  and  N_25
REMARK    6  A    between atoms: C_26  and  C_27
REMARK    7  A    between atoms: C_30  and  C_31
REMARK                            x       y       z     vdW  Elec       q    Type
REMARK                         _______ _______ _______ _____ _____    ______ ____
ROOT
ATOM      1  C   UNL     1       4.320  17.261  20.811  0.00  0.00    +0.000 C 
ATOM      2  C   UNL     1       3.287  16.189  20.835  0.00  0.00    +0.000 A 
ATOM      3  C   UNL     1       3.272  15.102  21.773  0.00  0.00    +0.000 A 
ATOM      4  N   UNL     1       2.179  14.347  21.609  0.00  0.00    +0.000 NA
ATOM      5  N   UNL     1       1.508  14.877  20.547  0.00  0.00    +0.000 N 
ATOM      6  C   UNL     1       2.119  16.043  20.082  0.00  0.00    +0.000 A 
ENDROOT
BRANCH   5   7
ATOM      7  C   UNL     1       0.416  14.106  20.048  0.00  0.00    +0.000 A 
ATOM      8  C   UNL     1      -0.798  14.063  20.778  0.00  0.00    +0.000 A 
ATOM      9 CL   UNL     1      -1.135  15.034  22.179  0.00  0.00    +0.000 Cl
ATOM     10  C   UNL     1      -1.878  13.296  20.326  0.00  0.00    +0.000 A 
ATOM     11  C   UNL     1      -1.782  12.602  19.128  0.00  0.00    +0.000 A 
ATOM     12 CL   UNL     1      -3.117  11.674  18.571  0.00  0.00    +0.000 Cl
ATOM     13  C   UNL     1      -0.607  12.643  18.388  0.00  0.00    +0.000 A 
ATOM     14  C   UNL     1       0.506  13.355  18.861  0.00  0.00    +0.000 A 
ATOM     15 CL   UNL     1       1.969  13.087  17.979  0.00  0.00    +0.000 Cl
ENDBRANCH   5   7
BRANCH   6  16
ATOM     16  N   UNL     1       1.595  16.916  19.085  0.00  0.00    +0.000 N 
ATOM     17  C   UNL     1       0.463  17.748  19.186  0.00  0.00    +0.000 A 
ATOM     18  C   UNL     1      -0.360  18.003  20.402  0.00  0.00    +0.000 C 
ATOM     19  C   UNL     1       0.247  18.375  17.972  0.00  0.00    +0.000 A 
ATOM     20  C   UNL     1       1.278  18.008  17.111  0.00  0.00    +0.000 A 
ATOM     21  C   UNL     1       2.090  17.111  17.779  0.00  0.00    +0.000 A 
ATOM     22  C   UNL     1       3.220  16.385  17.134  0.00  0.00    +0.000 C 
ENDBRANCH   6  16
BRANCH   3  23
ATOM     23  C   UNL     1       4.283  14.795  22.818  0.00  0.00    +0.000 C 
ATOM     24  O   UNL     1       4.324  15.412  23.884  0.00  0.00    +0.000 OA
ATOM     25  N   UNL     1       5.193  13.780  22.534  0.00  0.00    +0.000 N 
ATOM     26  H   UNL     1       5.045  13.258  21.669  0.00  0.00    +0.000 HD
BRANCH  25  27
ATOM     27  C   UNL     1       6.190  13.401  23.517  0.00  0.00    +0.000 C 
ATOM     28  C   UNL     1       7.593  13.963  23.243  0.00  0.00    +0.000 C 
ATOM     29  C   UNL     1       8.505  13.693  24.448  0.00  0.00    +0.000 C 
ATOM     30  C   UNL     1       8.561  12.213  24.831  0.00  0.00    +0.000 C 
ATOM     31  C   UNL     1       7.179  11.565  24.924  0.00  0.00    +0.000 C 
ATOM     32  C   UNL     1       6.301  11.883  23.711  0.00  0.00    +0.000 C 
ENDBRANCH  25  27
ENDBRANCH   3  23
TORSDOF 4
ENDMDL
MODEL 4
REMARK VINA RESULT:      -6.0      4.784     10.654
REMARK  Name = 
REMARK  7 active torsions:
REMARK  status: ('A' for Active; 'I' for Inactive)
REMARK    1  A    between atoms: C_1  and  C_2
REMARK    2  A    between atoms: C_3  and  C_4
REMARK    3  A    between atoms: N_6  and  C_7
REMARK    4  A    between atoms: N_14  and  C_15
REMARK    5  A    between atoms: C_24  and  N_25
REMARK    6  A    between atoms: C_26  and  C_27
REMARK    7  A    between atoms: C_30  and  C_31
REMARK                            x       y       z     vdW  Elec       q    Type
REMARK                         _______ _______ _______ _____ _____    ______ ____
ROOT
ATOM      1  C   UNL     1       1.464   6.705  20.829  0.00  0.00    +0.000 C 
ATOM      2  C   UNL     1       2.286   6.690  19.587  0.00  0.00    +0.000 A 
ATOM      3  C   UNL     1       2.417   7.805  18.692  0.00  0.00    +0.000 A 
ATOM      4  N   UNL     1       3.287   7.528  17.712  0.00  0.00    +0.000 NA
ATOM      5  N   UNL     1       3.683   6.238  17.909  0.00  0.00    +0.000 N 
ATOM      6  C   UNL     1       3.141   5.707  19.082  0.00  0.00    +0.000 A 
ENDROOT
BRANCH   5   7
ATOM      7  C   UNL     1       4.450   5.650  16.860  0.00  0.00    +0.000 A 
ATOM      8  C   UNL     1       4.025   4.423  16.291  0.00  0.00    +0.000 A 
ATOM      9 CL   UNL     1       2.515   3.644  16.654  0.00  0.00    +0.000 Cl
ATOM     10  C   UNL     1       4.770   3.809  15.277  0.00  0.00    +0.000 A 
ATOM     11  C   UNL     1       5.915   4.423  14.790  0.00  0.00    +0.000 A 
ATOM     12 CL   UNL     1       6.817   3.671  13.535  0.00  0.00    +0.000 Cl
ATOM     13  C   UNL     1       6.341   5.633  15.323  0.00  0.00    +0.000 A 
ATOM     14  C   UNL     1       5.640   6.228  16.383  0.00  0.00    +0.000 A 
ATOM     15 CL   UNL     1       6.439   7.574  17.118  0.00  0.00    +0.000 Cl
ENDBRANCH   5   7
BRANCH   6  16
ATOM     16  N   UNL     1       3.468   4.443  19.651  0.00  0.00    +0.000 N 
ATOM     17  C   UNL     1       4.751   3.882  19.810  0.00  0.00    +0.000 A 
ATOM     18  C   UNL     1       6.060   4.541  19.542  0.00  0.00    +0.000 C 
ATOM     19  C   UNL     1       4.630   2.607  20.333  0.00  0.00    +0.000 A 
ATOM     20  C   UNL     1       3.280   2.372  20.581  0.00  0.00    +0.000 A 
ATOM     21  C   UNL     1       2.571   3.479  20.156  0.00  0.00    +0.000 A 
ATOM     22  C   UNL     1       1.083   3.541  20.126  0.00  0.00    +0.000 C 
ENDBRANCH   6  16
BRANCH   3  23
ATOM     23  C   UNL     1       1.730   9.119  18.776  0.00  0.00    +0.000 C 
ATOM     24  O   UNL     1       2.047  10.066  18.054  0.00  0.00    +0.000 OA
ATOM     25  N   UNL     1       0.712   9.238  19.718  0.00  0.00    +0.000 N 
ATOM     26  H   UNL     1       0.449   8.390  20.222  0.00  0.00    +0.000 HD
BRANCH  25  27
ATOM     27  C   UNL     1      -0.026  10.480  19.839  0.00  0.00    +0.000 C 
ATOM     28  C   UNL     1      -0.455  10.824  21.273  0.00  0.00    +0.000 C 
ATOM     29  C   UNL     1      -1.022  12.250  21.319  0.00  0.00    +0.000 C 
ATOM     30  C   UNL     1      -2.167  12.465  20.326  0.00  0.00    +0.000 C 
ATOM     31  C   UNL     1      -1.847  11.954  18.921  0.00  0.00    +0.000 C 
ATOM     32  C   UNL     1      -1.263  10.539  18.933  0.00  0.00    +0.000 C 
ENDBRANCH  25  27
ENDBRANCH   3  23
TORSDOF 4
ENDMDL
MODEL 5
REMARK VINA RESULT:      -6.0      4.282      6.019
REMARK  Name = 
REMARK  7 active torsions:
REMARK  status: ('A' for Active; 'I' for Inactive)
REMARK    1  A    between atoms: C_1  and  C_2
REMARK    2  A    between atoms: C_3  and  C_4
REMARK    3  A    between atoms: N_6  and  C_7
REMARK    4  A    between atoms: N_14  and  C_15
REMARK    5  A    between atoms: C_24  and  N_25
REMARK    6  A    between atoms: C_26  and  C_27
REMARK    7  A    between atoms: C_30  and  C_31
REMARK                            x       y       z     vdW  Elec       q    Type
REMARK                         _______ _______ _______ _____ _____    ______ ____
ROOT
ATOM      1  C   UNL     1       4.398  17.185  20.811  0.00  0.00    +0.000 C 
ATOM      2  C   UNL     1       3.342  16.136  20.856  0.00  0.00    +0.000 A 
ATOM      3  C   UNL     1       3.306  15.069  21.816  0.00  0.00    +0.000 A 
ATOM      4  N   UNL     1       2.196  14.334  21.667  0.00  0.00    +0.000 NA
ATOM      5  N   UNL     1       1.535  14.857  20.595  0.00  0.00    +0.000 N 
ATOM      6  C   UNL     1       2.171  16.000  20.107  0.00  0.00    +0.000 A 
ENDROOT
BRANCH   5   7
ATOM      7  C   UNL     1       0.427  14.101  20.112  0.00  0.00    +0.000 A 
ATOM      8  C   UNL     1       0.569  13.335  18.928  0.00  0.00    +0.000 A 
ATOM      9 CL   UNL     1       2.072  13.095  18.090  0.00  0.00    +0.000 Cl
ATOM     10  C   UNL     1      -0.508  12.602  18.416  0.00  0.00    +0.000 A 
ATOM     11  C   UNL     1      -1.719  12.587  19.091  0.00  0.00    +0.000 A 
ATOM     12 CL   UNL     1      -3.034  11.675  18.465  0.00  0.00    +0.000 Cl
ATOM     13  C   UNL     1      -1.877  13.318  20.262  0.00  0.00    +0.000 A 
ATOM     14  C   UNL     1      -0.826  14.108  20.753  0.00  0.00    +0.000 A 
ATOM     15 CL   UNL     1      -1.257  15.168  22.050  0.00  0.00    +0.000 Cl
ENDBRANCH   5   7
BRANCH   6  16
ATOM     16  N   UNL     1       1.665  16.864  19.094  0.00  0.00    +0.000 N 
ATOM     17  C   UNL     1       0.533  17.700  19.168  0.00  0.00    +0.000 A 
ATOM     18  C   UNL     1      -0.308  17.969  20.369  0.00  0.00    +0.000 C 
ATOM     19  C   UNL     1       0.338  18.316  17.945  0.00  0.00    +0.000 A 
ATOM     20  C   UNL     1       1.382  17.938  17.104  0.00  0.00    +0.000 A 
ATOM     21  C   UNL     1       2.181  17.046  17.794  0.00  0.00    +0.000 A 
ATOM     22  C   UNL     1       3.318  16.310  17.173  0.00  0.00    +0.000 C 
ENDBRANCH   6  16
BRANCH   3  23
ATOM     23  C   UNL     1       4.310  14.760  22.866  0.00  0.00    +0.000 C 
ATOM     24  O   UNL     1       4.334  15.364  23.940  0.00  0.00    +0.000 OA
ATOM     25  N   UNL     1       5.235  13.760  22.578  0.00  0.00    +0.000 N 
ATOM     26  H   UNL     1       5.102  13.248  21.705  0.00  0.00    +0.000 HD
BRANCH  25  27
ATOM     27  C   UNL     1       6.228  13.381  23.565  0.00  0.00    +0.000 C 
ATOM     28  C   UNL     1       7.621  13.980  23.322  0.00  0.00    +0.000 C 
ATOM     29  C   UNL     1       8.524  13.703  24.533  0.00  0.00    +0.000 C 
ATOM     30  C   UNL     1       8.608  12.216  24.883  0.00  0.00    +0.000 C 
ATOM     31  C   UNL     1       7.240  11.535  24.942  0.00  0.00    +0.000 C 
ATOM     32  C   UNL     1       6.371  11.862  23.725  0.00  0.00    +0.000 C 
ENDBRANCH  25  27
ENDBRANCH   3  23
TORSDOF 4
ENDMDL
MODEL 6
REMARK VINA RESULT:      -6.0      0.089      2.213
REMARK  Name = 
REMARK  7 active torsions:
REMARK  status: ('A' for Active; 'I' for Inactive)
REMARK    1  A    between atoms: C_1  and  C_2
REMARK    2  A    between atoms: C_3  and  C_4
REMARK    3  A    between atoms: N_6  and  C_7
REMARK    4  A    between atoms: N_14  and  C_15
REMARK    5  A    between atoms: C_24  and  N_25
REMARK    6  A    between atoms: C_26  and  C_27
REMARK    7  A    between atoms: C_30  and  C_31
REMARK                            x       y       z     vdW  Elec       q    Type
REMARK                         _______ _______ _______ _____ _____    ______ ____
ROOT
ATOM      1  C   UNL     1       2.079  12.881  20.873  0.00  0.00    +0.000 C 
ATOM      2  C   UNL     1       0.653  12.483  21.031  0.00  0.00    +0.000 A 
ATOM      3  C   UNL     1       0.210  11.134  21.244  0.00  0.00    +0.000 A 
ATOM      4  N   UNL     1      -1.114  11.094  21.438  0.00  0.00    +0.000 NA
ATOM      5  N   UNL     1      -1.558  12.375  21.296  0.00  0.00    +0.000 N 
ATOM      6  C   UNL     1      -0.501  13.268  21.108  0.00  0.00    +0.000 A 
ENDROOT
BRANCH   5   7
ATOM      7  C   UNL     1      -2.973  12.547  21.246  0.00  0.00    +0.000 A 
ATOM      8  C   UNL     1      -3.631  12.549  19.991  0.00  0.00    +0.000 A 
ATOM      9 CL   UNL     1      -2.860  12.175  18.479  0.00  0.00    +0.000 Cl
ATOM     10  C   UNL     1      -5.015  12.741  19.909  0.00  0.00    +0.000 A 
ATOM     11  C   UNL     1      -5.763  12.889  21.067  0.00  0.00    +0.000 A 
ATOM     12 CL   UNL     1      -7.465  13.110  20.960  0.00  0.00    +0.000 Cl
ATOM     13  C   UNL     1      -5.142  12.875  22.309  0.00  0.00    +0.000 A 
ATOM     14  C   UNL     1      -3.748  12.748  22.403  0.00  0.00    +0.000 A 
ATOM     15 CL   UNL     1      -3.098  13.025  23.982  0.00  0.00    +0.000 Cl
ENDBRANCH   5   7
BRANCH   6  16
ATOM     16  N   UNL     1      -0.607  14.688  21.073  0.00  0.00    +0.000 N 
ATOM     17  C   UNL     1      -0.491  15.527  19.947  0.00  0.00    +0.000 A 
ATOM     18  C   UNL     1      -0.367  15.107  18.522  0.00  0.00    +0.000 C 
ATOM     19  C   UNL     1      -0.579  16.847  20.350  0.00  0.00    +0.000 A 
ATOM     20  C   UNL     1      -0.825  16.861  21.720  0.00  0.00    +0.000 A 
ATOM     21  C   UNL     1      -0.828  15.553  22.165  0.00  0.00    +0.000 A 
ATOM     22  C   UNL     1      -0.917  15.172  23.602  0.00  0.00    +0.000 C 
ENDBRANCH   6  16
BRANCH   3  23
ATOM     23  C   UNL     1       1.040   9.902  21.273  0.00  0.00    +0.000 C 
ATOM     24  O   UNL     1       1.656   9.556  22.282  0.00  0.00    +0.000 OA
ATOM     25  N   UNL     1       1.100   9.156  20.099  0.00  0.00    +0.000 N 
ATOM     26  H   UNL     1       0.499   9.458  19.330  0.00  0.00    +0.000 HD
BRANCH  25  27
ATOM     27  C   UNL     1       1.865   7.925  20.057  0.00  0.00    +0.000 C 
ATOM     28  C   UNL     1       2.387   7.552  18.662  0.00  0.00    +0.000 C 
ATOM     29  C   UNL     1       3.361   6.370  18.770  0.00  0.00    +0.000 C 
ATOM     30  C   UNL     1       2.750   5.160  19.480  0.00  0.00    +0.000 C 
ATOM     31  C   UNL     1       2.046   5.524  20.788  0.00  0.00    +0.000 C 
ATOM     32  C   UNL     1       1.105   6.722  20.631  0.00  0.00    +0.000 C 
ENDBRANCH  25  27
ENDBRANCH   3  23
TORSDOF 4
ENDMDL
MODEL 7
REMARK VINA RESULT:      -5.9      8.457     11.977
REMARK  Name = 
REMARK  7 active torsions:
REMARK  status: ('A' for Active; 'I' for Inactive)
REMARK    1  A    between atoms: C_1  and  C_2
REMARK    2  A    between atoms: C_3  and  C_4
REMARK    3  A    between atoms: N_6  and  C_7
REMARK    4  A    between atoms: N_14  and  C_15
REMARK    5  A    between atoms: C_24  and  N_25
REMARK    6  A    between atoms: C_26  and  C_27
REMARK    7  A    between atoms: C_30  and  C_31
REMARK                            x       y       z     vdW  Elec       q    Type
REMARK                         _______ _______ _______ _____ _____    ______ ____
ROOT
ATOM      1  C   UNL     1       7.476  13.317  17.391  0.00  0.00    +0.000 C 
ATOM      2  C   UNL     1       7.803  14.129  18.596  0.00  0.00    +0.000 A 
ATOM      3  C   UNL     1       6.867  14.979  19.276  0.00  0.00    +0.000 A 
ATOM      4  N   UNL     1       7.418  15.512  20.373  0.00  0.00    +0.000 NA
ATOM      5  N   UNL     1       8.712  15.081  20.396  0.00  0.00    +0.000 N 
ATOM      6  C   UNL     1       8.972  14.181  19.360  0.00  0.00    +0.000 A 
ENDROOT
BRANCH   5   7
ATOM      7  C   UNL     1       9.561  15.696  21.362  0.00  0.00    +0.000 A 
ATOM      8  C   UNL     1      10.510  16.660  20.942  0.00  0.00    +0.000 A 
ATOM      9 CL   UNL     1      10.610  17.301  19.330  0.00  0.00    +0.000 Cl
ATOM     10  C   UNL     1      11.375  17.263  21.864  0.00  0.00    +0.000 A 
ATOM     11  C   UNL     1      11.279  16.948  23.211  0.00  0.00    +0.000 A 
ATOM     12 CL   UNL     1      12.333  17.702  24.340  0.00  0.00    +0.000 Cl
ATOM     13  C   UNL     1      10.345  16.017  23.648  0.00  0.00    +0.000 A 
ATOM     14  C   UNL     1       9.516  15.358  22.727  0.00  0.00    +0.000 A 
ATOM     15 CL   UNL     1       8.610  14.038  23.381  0.00  0.00    +0.000 Cl
ENDBRANCH   5   7
BRANCH   6  16
ATOM     16  N   UNL     1      10.175  13.438  19.187  0.00  0.00    +0.000 N 
ATOM     17  C   UNL     1      11.144  13.602  18.178  0.00  0.00    +0.000 A 
ATOM     18  C   UNL     1      11.197  14.678  17.148  0.00  0.00    +0.000 C 
ATOM     19  C   UNL     1      12.119  12.630  18.318  0.00  0.00    +0.000 A 
ATOM     20  C   UNL     1      11.820  11.886  19.457  0.00  0.00    +0.000 A 
ATOM     21  C   UNL     1      10.634  12.364  19.978  0.00  0.00    +0.000 A 
ATOM     22  C   UNL     1       9.918  11.725  21.118  0.00  0.00    +0.000 C 
ENDBRANCH   6  16
BRANCH   3  23
ATOM     23  C   UNL     1       5.462  15.270  18.889  0.00  0.00    +0.000 C 
ATOM     24  O   UNL     1       5.186  16.096  18.018  0.00  0.00    +0.000 OA
ATOM     25  N   UNL     1       4.465  14.571  19.565  0.00  0.00    +0.000 N 
ATOM     26  H   UNL     1       4.772  13.845  20.214  0.00  0.00    +0.000 HD
BRANCH  25  27
ATOM     27  C   UNL     1       3.072  14.779  19.223  0.00  0.00    +0.000 C 
ATOM     28  C   UNL     1       2.348  15.802  20.111  0.00  0.00    +0.000 C 
ATOM     29  C   UNL     1       0.962  16.109  19.526  0.00  0.00    +0.000 C 
ATOM     30  C   UNL     1       0.114  14.852  19.318  0.00  0.00    +0.000 C 
ATOM     31  C   UNL     1       0.870  13.730  18.603  0.00  0.00    +0.000 C 
ATOM     32  C   UNL     1       2.254  13.480  19.209  0.00  0.00    +0.000 C 
ENDBRANCH  25  27
ENDBRANCH   3  23
TORSDOF 4
ENDMDL
MODEL 8
REMARK VINA RESULT:      -5.9      0.088      1.464
REMARK  Name = 
REMARK  7 active torsions:
REMARK  status: ('A' for Active; 'I' for Inactive)
REMARK    1  A    between atoms: C_1  and  C_2
REMARK    2  A    between atoms: C_3  and  C_4
REMARK    3  A    between atoms: N_6  and  C_7
REMARK    4  A    between atoms: N_14  and  C_15
REMARK    5  A    between atoms: C_24  and  N_25
REMARK    6  A    between atoms: C_26  and  C_27
REMARK    7  A    between atoms: C_30  and  C_31
REMARK                            x       y       z     vdW  Elec       q    Type
REMARK                         _______ _______ _______ _____ _____    ______ ____
ROOT
ATOM      1  C   UNL     1       2.161  12.827  20.915  0.00  0.00    +0.000 C 
ATOM      2  C   UNL     1       0.729  12.434  21.027  0.00  0.00    +0.000 A 
ATOM      3  C   UNL     1       0.275  11.083  21.206  0.00  0.00    +0.000 A 
ATOM      4  N   UNL     1      -1.055  11.046  21.361  0.00  0.00    +0.000 NA
ATOM      5  N   UNL     1      -1.489  12.332  21.229  0.00  0.00    +0.000 N 
ATOM      6  C   UNL     1      -0.423  13.222  21.085  0.00  0.00    +0.000 A 
ENDROOT
BRANCH   5   7
ATOM      7  C   UNL     1      -2.901  12.512  21.143  0.00  0.00    +0.000 A 
ATOM      8  C   UNL     1      -3.654  12.698  22.329  0.00  0.00    +0.000 A 
ATOM      9 CL   UNL     1      -2.960  12.905  23.908  0.00  0.00    +0.000 Cl
ATOM     10  C   UNL     1      -5.044  12.852  22.278  0.00  0.00    +0.000 A 
ATOM     11  C   UNL     1      -5.695  12.866  21.053  0.00  0.00    +0.000 A 
ATOM     12 CL   UNL     1      -7.400  13.070  20.995  0.00  0.00    +0.000 Cl
ATOM     13  C   UNL     1      -4.975  12.701  19.876  0.00  0.00    +0.000 A 
ATOM     14  C   UNL     1      -3.590  12.481  19.916  0.00  0.00    +0.000 A 
ATOM     15 CL   UNL     1      -2.883  12.019  18.407  0.00  0.00    +0.000 Cl
ENDBRANCH   5   7
BRANCH   6  16
ATOM     16  N   UNL     1      -0.522  14.643  21.070  0.00  0.00    +0.000 N 
ATOM     17  C   UNL     1      -0.417  15.497  19.954  0.00  0.00    +0.000 A 
ATOM     18  C   UNL     1      -0.314  15.096  18.522  0.00  0.00    +0.000 C 
ATOM     19  C   UNL     1      -0.492  16.812  20.376  0.00  0.00    +0.000 A 
ATOM     20  C   UNL     1      -0.720  16.809  21.750  0.00  0.00    +0.000 A 
ATOM     21  C   UNL     1      -0.725  15.494  22.176  0.00  0.00    +0.000 A 
ATOM     22  C   UNL     1      -0.796  15.095  23.610  0.00  0.00    +0.000 C 
ENDBRANCH   6  16
BRANCH   3  23
ATOM     23  C   UNL     1       1.098   9.847  21.237  0.00  0.00    +0.000 C 
ATOM     24  O   UNL     1       1.719   9.505  22.245  0.00  0.00    +0.000 OA
ATOM     25  N   UNL     1       1.147   9.094  20.067  0.00  0.00    +0.000 N 
ATOM     26  H   UNL     1       0.542   9.394  19.301  0.00  0.00    +0.000 HD
BRANCH  25  27
ATOM     27  C   UNL     1       1.905   7.858  20.028  0.00  0.00    +0.000 C 
ATOM     28  C   UNL     1       2.376   7.449  18.625  0.00  0.00    +0.000 C 
ATOM     29  C   UNL     1       3.348   6.265  18.728  0.00  0.00    +0.000 C 
ATOM     30  C   UNL     1       2.758   5.076  19.488  0.00  0.00    +0.000 C 
ATOM     31  C   UNL     1       2.102   5.475  20.811  0.00  0.00    +0.000 C 
ATOM     32  C   UNL     1       1.161   6.673  20.658  0.00  0.00    +0.000 C 
ENDBRANCH  25  27
ENDBRANCH   3  23
TORSDOF 4
ENDMDL
MODEL 9
REMARK VINA RESULT:      -5.9      4.782     10.625
REMARK  Name = 
REMARK  7 active torsions:
REMARK  status: ('A' for Active; 'I' for Inactive)
REMARK    1  A    between atoms: C_1  and  C_2
REMARK    2  A    between atoms: C_3  and  C_4
REMARK    3  A    between atoms: N_6  and  C_7
REMARK    4  A    between atoms: N_14  and  C_15
REMARK    5  A    between atoms: C_24  and  N_25
REMARK    6  A    between atoms: C_26  and  C_27
REMARK    7  A    between atoms: C_30  and  C_31
REMARK                            x       y       z     vdW  Elec       q    Type
REMARK                         _______ _______ _______ _____ _____    ______ ____
ROOT
ATOM      1  C   UNL     1       1.447   6.713  20.816  0.00  0.00    +0.000 C 
ATOM      2  C   UNL     1       2.273   6.693  19.577  0.00  0.00    +0.000 A 
ATOM      3  C   UNL     1       2.421   7.810  18.687  0.00  0.00    +0.000 A 
ATOM      4  N   UNL     1       3.291   7.527  17.710  0.00  0.00    +0.000 NA
ATOM      5  N   UNL     1       3.671   6.232  17.903  0.00  0.00    +0.000 N 
ATOM      6  C   UNL     1       3.119   5.703  19.071  0.00  0.00    +0.000 A 
ENDROOT
BRANCH   5   7
ATOM      7  C   UNL     1       4.435   5.638  16.854  0.00  0.00    +0.000 A 
ATOM      8  C   UNL     1       4.006   4.412  16.289  0.00  0.00    +0.000 A 
ATOM      9 CL   UNL     1       2.495   3.637  16.655  0.00  0.00    +0.000 Cl
ATOM     10  C   UNL     1       4.748   3.793  15.276  0.00  0.00    +0.000 A 
ATOM     11  C   UNL     1       5.894   4.403  14.785  0.00  0.00    +0.000 A 
ATOM     12 CL   UNL     1       6.793   3.645  13.531  0.00  0.00    +0.000 Cl
ATOM     13  C   UNL     1       6.324   5.613  15.314  0.00  0.00    +0.000 A 
ATOM     14  C   UNL     1       5.626   6.212  16.374  0.00  0.00    +0.000 A 
ATOM     15 CL   UNL     1       6.430   7.558  17.105  0.00  0.00    +0.000 Cl
ENDBRANCH   5   7
BRANCH   6  16
ATOM     16  N   UNL     1       3.429   4.433  19.637  0.00  0.00    +0.000 N 
ATOM     17  C   UNL     1       2.526   3.482  20.152  0.00  0.00    +0.000 A 
ATOM     18  C   UNL     1       1.038   3.534  20.097  0.00  0.00    +0.000 C 
ATOM     19  C   UNL     1       3.235   2.417  20.679  0.00  0.00    +0.000 A 
ATOM     20  C   UNL     1       4.588   2.643  20.440  0.00  0.00    +0.000 A 
ATOM     21  C   UNL     1       4.710   3.872  19.820  0.00  0.00    +0.000 A 
ATOM     22  C   UNL     1       6.020   4.523  19.535  0.00  0.00    +0.000 C 
ENDBRANCH   6  16
BRANCH   3  23
ATOM     23  C   UNL     1       1.749   9.132  18.773  0.00  0.00    +0.000 C 
ATOM     24  O   UNL     1       2.126  10.098  18.108  0.00  0.00    +0.000 OA
ATOM     25  N   UNL     1       0.673   9.235  19.652  0.00  0.00    +0.000 N 
ATOM     26  H   UNL     1       0.366   8.374  20.107  0.00  0.00    +0.000 HD
BRANCH  25  27
ATOM     27  C   UNL     1      -0.053  10.484  19.770  0.00  0.00    +0.000 C 
ATOM     28  C   UNL     1      -0.459  10.847  21.206  0.00  0.00    +0.000 C 
ATOM     29  C   UNL     1      -1.014  12.278  21.244  0.00  0.00    +0.000 C 
ATOM     30  C   UNL     1      -2.171  12.492  20.266  0.00  0.00    +0.000 C 
ATOM     31  C   UNL     1      -1.875  11.962  18.861  0.00  0.00    +0.000 C 
ATOM     32  C   UNL     1      -1.302  10.543  18.881  0.00  0.00    +0.000 C 
ENDBRANCH  25  27
ENDBRANCH   3  23
TORSDOF 4
ENDMDL
