MODEL 1
REMARK VINA RESULT:      -7.7      0.000      0.000
REMARK  Name = 
REMARK  8 active torsions:
REMARK  status: ('A' for Active; 'I' for Inactive)
REMARK    1  A    between atoms: S_2  and  C_4
REMARK    2  A    between atoms: S_2  and  C_13
REMARK    3  A    between atoms: C_5  and  C_6
REMARK    4  A    between atoms: C_16  and  O_17
REMARK    5  A    between atoms: O_17  and  C_18
REMARK    6  A    between atoms: C_18  and  C_19
REMARK    7  A    between atoms: C_19  and  C_20
REMARK    8  A    between atoms: C_20  and  N_21
REMARK                            x       y       z     vdW  Elec       q    Type
REMARK                         _______ _______ _______ _____ _____    ______ ____
ROOT
ATOM      1  C   UNL     1       6.512   5.554  16.802  0.00  0.00    +0.000 A 
ATOM      2  C   UNL     1       6.308   6.894  16.477  0.00  0.00    +0.000 A 
ATOM      3  C   UNL     1       7.000   7.884  17.170  0.00  0.00    +0.000 A 
ATOM      4  C   UNL     1       7.898   7.547  18.188  0.00  0.00    +0.000 A 
ATOM      5  C   UNL     1       8.072   6.200  18.527  0.00  0.00    +0.000 A 
ATOM      6  C   UNL     1       7.374   5.198  17.842  0.00  0.00    +0.000 A 
ENDROOT
BRANCH   1   8
ATOM      7  O   UNL     1       6.600   3.314  15.477  0.00  0.00    +0.000 OA
ATOM      8  S   UNL     1       5.626   4.307  15.887  0.00  0.00    +0.000 S 
ATOM      9  O   UNL     1       4.816   4.996  14.900  0.00  0.00    +0.000 OA
BRANCH   8  10
ATOM     10  C   UNL     1       4.608   3.613  17.106  0.00  0.00    +0.000 C 
ATOM     11  C   UNL     1       3.729   4.378  17.769  0.00  0.00    +0.000 C 
BRANCH  11  12
ATOM     12  C   UNL     1       2.871   3.880  18.856  0.00  0.00    +0.000 A 
ATOM     13  C   UNL     1       3.472   3.384  20.021  0.00  0.00    +0.000 A 
ATOM     14  C   UNL     1       2.694   2.870  21.064  0.00  0.00    +0.000 A 
ATOM     15  C   UNL     1       1.304   2.835  20.952  0.00  0.00    +0.000 A 
ATOM     16  C   UNL     1       0.693   3.308  19.795  0.00  0.00    +0.000 A 
ATOM     17  C   UNL     1       1.473   3.815  18.758  0.00  0.00    +0.000 A 
ATOM     18  F   UNL     1       0.843   4.231  17.648  0.00  0.00    +0.000 F 
ENDBRANCH  11  12
ENDBRANCH   8  10
ENDBRANCH   1   8
BRANCH   4  19
ATOM     19  O   UNL     1       8.641   8.453  18.904  0.00  0.00    +0.000 OA
BRANCH  19  20
ATOM     20  C   UNL     1       8.644   9.789  18.385  0.00  0.00    +0.000 C 
BRANCH  20  21
ATOM     21  C   UNL     1       9.757  10.617  19.022  0.00  0.00    +0.000 C 
BRANCH  21  22
ATOM     22  C   UNL     1      10.221  11.720  18.069  0.00  0.00    +0.000 C 
BRANCH  22  23
ATOM     23  N   UNL     1      11.664  12.008  18.111  0.00  0.00    +0.000 NA
ATOM     24  C   UNL     1      12.054  12.427  19.480  0.00  0.00    +0.000 C 
ATOM     25  C   UNL     1      11.558  13.838  19.847  0.00  0.00    +0.000 C 
ATOM     26  O   UNL     1      12.063  14.811  18.926  0.00  0.00    +0.000 OA
ATOM     27  C   UNL     1      11.690  14.493  17.578  0.00  0.00    +0.000 C 
ATOM     28  C   UNL     1      12.109  13.067  17.180  0.00  0.00    +0.000 C 
ENDBRANCH  22  23
ENDBRANCH  21  22
ENDBRANCH  20  21
ENDBRANCH  19  20
ENDBRANCH   4  19
TORSDOF 8
ENDMDL
MODEL 2
REMARK VINA RESULT:      -7.6      6.581      8.784
REMARK  Name = 
REMARK  8 active torsions:
REMARK  status: ('A' for Active; 'I' for Inactive)
REMARK    1  A    between atoms: S_2  and  C_4
REMARK    2  A    between atoms: S_2  and  C_13
REMARK    3  A    between atoms: C_5  and  C_6
REMARK    4  A    between atoms: C_16  and  O_17
REMARK    5  A    between atoms: O_17  and  C_18
REMARK    6  A    between atoms: C_18  and  C_19
REMARK    7  A    between atoms: C_19  and  C_20
REMARK    8  A    between atoms: C_20  and  N_21
REMARK                            x       y       z     vdW  Elec       q    Type
REMARK                         _______ _______ _______ _____ _____    ______ ____
ROOT
ATOM      1  C   UNL     1       1.304   9.137  20.061  0.00  0.00    +0.000 A 
ATOM      2  C   UNL     1       1.752   8.941  18.756  0.00  0.00    +0.000 A 
ATOM      3  C   UNL     1       2.224   7.688  18.371  0.00  0.00    +0.000 A 
ATOM      4  C   UNL     1       2.252   6.626  19.280  0.00  0.00    +0.000 A 
ATOM      5  C   UNL     1       1.829   6.843  20.598  0.00  0.00    +0.000 A 
ATOM      6  C   UNL     1       1.362   8.101  20.996  0.00  0.00    +0.000 A 
ENDROOT
BRANCH   1   8
ATOM      7  O   UNL     1       1.446  11.720  19.759  0.00  0.00    +0.000 OA
ATOM      8  S   UNL     1       0.689  10.745  20.522  0.00  0.00    +0.000 S 
ATOM      9  O   UNL     1       0.674  10.797  21.972  0.00  0.00    +0.000 OA
BRANCH   8  10
ATOM     10  C   UNL     1      -0.933  10.706  19.915  0.00  0.00    +0.000 C 
ATOM     11  C   UNL     1      -1.254  11.377  18.800  0.00  0.00    +0.000 C 
BRANCH  11  12
ATOM     12  C   UNL     1      -2.618  11.443  18.251  0.00  0.00    +0.000 A 
ATOM     13  C   UNL     1      -2.840  11.019  16.933  0.00  0.00    +0.000 A 
ATOM     14  C   UNL     1      -4.115  11.097  16.362  0.00  0.00    +0.000 A 
ATOM     15  C   UNL     1      -5.183  11.609  17.097  0.00  0.00    +0.000 A 
ATOM     16  C   UNL     1      -4.977  12.049  18.400  0.00  0.00    +0.000 A 
ATOM     17  C   UNL     1      -3.705  11.973  18.963  0.00  0.00    +0.000 A 
ATOM     18  F   UNL     1      -3.545  12.440  20.211  0.00  0.00    +0.000 F 
ENDBRANCH  11  12
ENDBRANCH   8  10
ENDBRANCH   1   8
BRANCH   4  19
ATOM     19  O   UNL     1       2.675   5.355  18.982  0.00  0.00    +0.000 OA
BRANCH  19  20
ATOM     20  C   UNL     1       3.752   5.273  18.040  0.00  0.00    +0.000 C 
BRANCH  20  21
ATOM     21  C   UNL     1       4.874   4.386  18.572  0.00  0.00    +0.000 C 
BRANCH  21  22
ATOM     22  C   UNL     1       5.928   5.225  19.298  0.00  0.00    +0.000 C 
BRANCH  22  23
ATOM     23  N   UNL     1       7.298   5.081  18.779  0.00  0.00    +0.000 NA
ATOM     24  C   UNL     1       7.968   6.405  18.753  0.00  0.00    +0.000 C 
ATOM     25  C   UNL     1       7.431   7.334  17.648  0.00  0.00    +0.000 C 
ATOM     26  O   UNL     1       7.587   6.735  16.357  0.00  0.00    +0.000 OA
ATOM     27  C   UNL     1       6.928   5.462  16.293  0.00  0.00    +0.000 C 
ATOM     28  C   UNL     1       7.384   4.514  17.416  0.00  0.00    +0.000 C 
ENDBRANCH  22  23
ENDBRANCH  21  22
ENDBRANCH  20  21
ENDBRANCH  19  20
ENDBRANCH   4  19
TORSDOF 8
ENDMDL
MODEL 3
REMARK VINA RESULT:      -7.6      6.832     10.355
REMARK  Name = 
REMARK  8 active torsions:
REMARK  status: ('A' for Active; 'I' for Inactive)
REMARK    1  A    between atoms: S_2  and  C_4
REMARK    2  A    between atoms: S_2  and  C_13
REMARK    3  A    between atoms: C_5  and  C_6
REMARK    4  A    between atoms: C_16  and  O_17
REMARK    5  A    between atoms: O_17  and  C_18
REMARK    6  A    between atoms: C_18  and  C_19
REMARK    7  A    between atoms: C_19  and  C_20
REMARK    8  A    between atoms: C_20  and  N_21
REMARK                            x       y       z     vdW  Elec       q    Type
REMARK                         _______ _______ _______ _____ _____    ______ ____
ROOT
ATOM      1  C   UNL     1       1.094   9.359  20.392  0.00  0.00    +0.000 A 
ATOM      2  C   UNL     1       1.601   9.237  19.100  0.00  0.00    +0.000 A 
ATOM      3  C   UNL     1       2.212   8.047  18.709  0.00  0.00    +0.000 A 
ATOM      4  C   UNL     1       2.320   6.975  19.600  0.00  0.00    +0.000 A 
ATOM      5  C   UNL     1       1.835   7.120  20.906  0.00  0.00    +0.000 A 
ATOM      6  C   UNL     1       1.228   8.315  21.310  0.00  0.00    +0.000 A 
ENDROOT
BRANCH   1   8
ATOM      7  O   UNL     1       1.350  11.883  20.980  0.00  0.00    +0.000 OA
ATOM      8  S   UNL     1       0.303  10.886  20.860  0.00  0.00    +0.000 S 
ATOM      9  O   UNL     1      -0.565  10.591  21.984  0.00  0.00    +0.000 OA
BRANCH   8  10
ATOM     10  C   UNL     1      -0.649  11.250  19.458  0.00  0.00    +0.000 C 
ATOM     11  C   UNL     1      -1.727  10.509  19.163  0.00  0.00    +0.000 C 
BRANCH  11  12
ATOM     12  C   UNL     1      -2.555  10.715  17.963  0.00  0.00    +0.000 A 
ATOM     13  C   UNL     1      -3.722  11.483  18.069  0.00  0.00    +0.000 A 
ATOM     14  C   UNL     1      -4.554  11.674  16.960  0.00  0.00    +0.000 A 
ATOM     15  C   UNL     1      -4.236  11.093  15.734  0.00  0.00    +0.000 A 
ATOM     16  C   UNL     1      -3.090  10.313  15.617  0.00  0.00    +0.000 A 
ATOM     17  C   UNL     1      -2.267  10.123  16.724  0.00  0.00    +0.000 A 
ATOM     18  F   UNL     1      -1.188   9.337  16.574  0.00  0.00    +0.000 F 
ENDBRANCH  11  12
ENDBRANCH   8  10
ENDBRANCH   1   8
BRANCH   4  19
ATOM     19  O   UNL     1       2.881   5.760  19.294  0.00  0.00    +0.000 OA
BRANCH  19  20
ATOM     20  C   UNL     1       3.744   5.755  18.150  0.00  0.00    +0.000 C 
BRANCH  20  21
ATOM     21  C   UNL     1       3.502   4.516  17.292  0.00  0.00    +0.000 C 
BRANCH  21  22
ATOM     22  C   UNL     1       2.079   3.990  17.493  0.00  0.00    +0.000 C 
BRANCH  22  23
ATOM     23  N   UNL     1       1.992   2.569  17.867  0.00  0.00    +0.000 NA
ATOM     24  C   UNL     1       0.818   2.352  18.748  0.00  0.00    +0.000 C 
ATOM     25  C   UNL     1       1.010   2.921  20.166  0.00  0.00    +0.000 C 
ATOM     26  O   UNL     1       2.152   2.335  20.800  0.00  0.00    +0.000 OA
ATOM     27  C   UNL     1       3.340   2.541  20.022  0.00  0.00    +0.000 C 
ATOM     28  C   UNL     1       3.179   2.044  18.574  0.00  0.00    +0.000 C 
ENDBRANCH  22  23
ENDBRANCH  21  22
ENDBRANCH  20  21
ENDBRANCH  19  20
ENDBRANCH   4  19
TORSDOF 8
ENDMDL
MODEL 4
REMARK VINA RESULT:      -7.5      6.574     10.051
REMARK  Name = 
REMARK  8 active torsions:
REMARK  status: ('A' for Active; 'I' for Inactive)
REMARK    1  A    between atoms: S_2  and  C_4
REMARK    2  A    between atoms: S_2  and  C_13
REMARK    3  A    between atoms: C_5  and  C_6
REMARK    4  A    between atoms: C_16  and  O_17
REMARK    5  A    between atoms: O_17  and  C_18
REMARK    6  A    between atoms: C_18  and  C_19
REMARK    7  A    between atoms: C_19  and  C_20
REMARK    8  A    between atoms: C_20  and  N_21
REMARK                            x       y       z     vdW  Elec       q    Type
REMARK                         _______ _______ _______ _____ _____    ______ ____
ROOT
ATOM      1  C   UNL     1       1.620   8.700  19.391  0.00  0.00    +0.000 A 
ATOM      2  C   UNL     1       2.165   8.965  18.136  0.00  0.00    +0.000 A 
ATOM      3  C   UNL     1       3.015   8.035  17.543  0.00  0.00    +0.000 A 
ATOM      4  C   UNL     1       3.326   6.837  18.194  0.00  0.00    +0.000 A 
ATOM      5  C   UNL     1       2.798   6.594  19.468  0.00  0.00    +0.000 A 
ATOM      6  C   UNL     1       1.950   7.528  20.075  0.00  0.00    +0.000 A 
ENDROOT
BRANCH   1   8
ATOM      7  O   UNL     1       1.343  11.017  20.546  0.00  0.00    +0.000 OA
ATOM      8  S   UNL     1       0.522   9.900  20.118  0.00  0.00    +0.000 S 
ATOM      9  O   UNL     1      -0.313   9.193  21.071  0.00  0.00    +0.000 OA
BRANCH   8  10
ATOM     10  C   UNL     1      -0.427  10.401  18.758  0.00  0.00    +0.000 C 
ATOM     11  C   UNL     1      -1.693   9.979  18.625  0.00  0.00    +0.000 C 
BRANCH  11  12
ATOM     12  C   UNL     1      -2.547  10.310  17.473  0.00  0.00    +0.000 A 
ATOM     13  C   UNL     1      -2.208   9.804  16.211  0.00  0.00    +0.000 A 
ATOM     14  C   UNL     1      -2.973  10.122  15.084  0.00  0.00    +0.000 A 
ATOM     15  C   UNL     1      -4.082  10.959  15.201  0.00  0.00    +0.000 A 
ATOM     16  C   UNL     1      -4.423  11.483  16.444  0.00  0.00    +0.000 A 
ATOM     17  C   UNL     1      -3.655  11.166  17.562  0.00  0.00    +0.000 A 
ATOM     18  F   UNL     1      -4.001  11.720  18.735  0.00  0.00    +0.000 F 
ENDBRANCH  11  12
ENDBRANCH   8  10
ENDBRANCH   1   8
BRANCH   4  19
ATOM     19  O   UNL     1       4.131   5.853  17.675  0.00  0.00    +0.000 OA
BRANCH  19  20
ATOM     20  C   UNL     1       3.445   4.692  17.191  0.00  0.00    +0.000 C 
BRANCH  20  21
ATOM     21  C   UNL     1       4.128   3.416  17.674  0.00  0.00    +0.000 C 
BRANCH  21  22
ATOM     22  C   UNL     1       4.159   3.367  19.204  0.00  0.00    +0.000 C 
BRANCH  22  23
ATOM     23  N   UNL     1       3.433   2.234  19.801  0.00  0.00    +0.000 NA
ATOM     24  C   UNL     1       2.110   2.082  19.147  0.00  0.00    +0.000 C 
ATOM     25  C   UNL     1       1.111   3.188  19.535  0.00  0.00    +0.000 C 
ATOM     26  O   UNL     1       0.903   3.212  20.952  0.00  0.00    +0.000 OA
ATOM     27  C   UNL     1       2.139   3.397  21.655  0.00  0.00    +0.000 C 
ATOM     28  C   UNL     1       3.197   2.352  21.256  0.00  0.00    +0.000 C 
ENDBRANCH  22  23
ENDBRANCH  21  22
ENDBRANCH  20  21
ENDBRANCH  19  20
ENDBRANCH   4  19
TORSDOF 8
ENDMDL
MODEL 5
REMARK VINA RESULT:      -7.5      6.515      9.351
REMARK  Name = 
REMARK  8 active torsions:
REMARK  status: ('A' for Active; 'I' for Inactive)
REMARK    1  A    between atoms: S_2  and  C_4
REMARK    2  A    between atoms: S_2  and  C_13
REMARK    3  A    between atoms: C_5  and  C_6
REMARK    4  A    between atoms: C_16  and  O_17
REMARK    5  A    between atoms: O_17  and  C_18
REMARK    6  A    between atoms: C_18  and  C_19
REMARK    7  A    between atoms: C_19  and  C_20
REMARK    8  A    between atoms: C_20  and  N_21
REMARK                            x       y       z     vdW  Elec       q    Type
REMARK                         _______ _______ _______ _____ _____    ______ ____
ROOT
ATOM      1  C   UNL     1       1.097   9.308  19.523  0.00  0.00    +0.000 A 
ATOM      2  C   UNL     1       1.465   8.224  20.317  0.00  0.00    +0.000 A 
ATOM      3  C   UNL     1       2.296   7.236  19.793  0.00  0.00    +0.000 A 
ATOM      4  C   UNL     1       2.764   7.322  18.478  0.00  0.00    +0.000 A 
ATOM      5  C   UNL     1       2.363   8.399  17.679  0.00  0.00    +0.000 A 
ATOM      6  C   UNL     1       1.521   9.392  18.194  0.00  0.00    +0.000 A 
ENDROOT
BRANCH   1   8
ATOM      7  O   UNL     1      -0.015  10.314  21.652  0.00  0.00    +0.000 OA
ATOM      8  S   UNL     1       0.048  10.566  20.224  0.00  0.00    +0.000 S 
ATOM      9  O   UNL     1      -1.165  10.603  19.429  0.00  0.00    +0.000 OA
BRANCH   8  10
ATOM     10  C   UNL     1       0.973  12.007  19.958  0.00  0.00    +0.000 C 
ATOM     11  C   UNL     1       0.650  12.842  18.960  0.00  0.00    +0.000 C 
BRANCH  11  12
ATOM     12  C   UNL     1       1.417  14.054  18.630  0.00  0.00    +0.000 A 
ATOM     13  C   UNL     1       2.713  13.916  18.114  0.00  0.00    +0.000 A 
ATOM     14  C   UNL     1       3.488  15.043  17.819  0.00  0.00    +0.000 A 
ATOM     15  C   UNL     1       2.983  16.322  18.045  0.00  0.00    +0.000 A 
ATOM     16  C   UNL     1       1.704  16.476  18.572  0.00  0.00    +0.000 A 
ATOM     17  C   UNL     1       0.938  15.351  18.868  0.00  0.00    +0.000 A 
ATOM     18  F   UNL     1      -0.277  15.546  19.404  0.00  0.00    +0.000 F 
ENDBRANCH  11  12
ENDBRANCH   8  10
ENDBRANCH   1   8
BRANCH   4  19
ATOM     19  O   UNL     1       3.605   6.411  17.889  0.00  0.00    +0.000 OA
BRANCH  19  20
ATOM     20  C   UNL     1       3.256   5.036  18.090  0.00  0.00    +0.000 C 
BRANCH  20  21
ATOM     21  C   UNL     1       4.417   4.265  18.713  0.00  0.00    +0.000 C 
BRANCH  21  22
ATOM     22  C   UNL     1       5.531   5.223  19.142  0.00  0.00    +0.000 C 
BRANCH  22  23
ATOM     23  N   UNL     1       6.876   4.861  18.666  0.00  0.00    +0.000 NA
ATOM     24  C   UNL     1       7.794   6.015  18.824  0.00  0.00    +0.000 C 
ATOM     25  C   UNL     1       7.523   7.148  17.818  0.00  0.00    +0.000 C 
ATOM     26  O   UNL     1       7.640   6.673  16.472  0.00  0.00    +0.000 OA
ATOM     27  C   UNL     1       6.748   5.576  16.230  0.00  0.00    +0.000 C 
ATOM     28  C   UNL     1       6.935   4.439  17.250  0.00  0.00    +0.000 C 
ENDBRANCH  22  23
ENDBRANCH  21  22
ENDBRANCH  20  21
ENDBRANCH  19  20
ENDBRANCH   4  19
TORSDOF 8
ENDMDL
MODEL 6
REMARK VINA RESULT:      -7.5      6.322      8.689
REMARK  Name = 
REMARK  8 active torsions:
REMARK  status: ('A' for Active; 'I' for Inactive)
REMARK    1  A    between atoms: S_2  and  C_4
REMARK    2  A    between atoms: S_2  and  C_13
REMARK    3  A    between atoms: C_5  and  C_6
REMARK    4  A    between atoms: C_16  and  O_17
REMARK    5  A    between atoms: O_17  and  C_18
REMARK    6  A    between atoms: C_18  and  C_19
REMARK    7  A    between atoms: C_19  and  C_20
REMARK    8  A    between atoms: C_20  and  N_21
REMARK                            x       y       z     vdW  Elec       q    Type
REMARK                         _______ _______ _______ _____ _____    ______ ____
ROOT
ATOM      1  C   UNL     1       1.486   8.733  19.800  0.00  0.00    +0.000 A 
ATOM      2  C   UNL     1       1.290   7.775  20.793  0.00  0.00    +0.000 A 
ATOM      3  C   UNL     1       1.671   6.455  20.562  0.00  0.00    +0.000 A 
ATOM      4  C   UNL     1       2.250   6.082  19.345  0.00  0.00    +0.000 A 
ATOM      5  C   UNL     1       2.414   7.046  18.343  0.00  0.00    +0.000 A 
ATOM      6  C   UNL     1       2.025   8.373  18.562  0.00  0.00    +0.000 A 
ENDROOT
BRANCH   1   8
ATOM      7  O   UNL     1       1.779  11.258  19.236  0.00  0.00    +0.000 OA
ATOM      8  S   UNL     1       1.005  10.417  20.128  0.00  0.00    +0.000 S 
ATOM      9  O   UNL     1       1.073  10.608  21.565  0.00  0.00    +0.000 OA
BRANCH   8  10
ATOM     10  C   UNL     1      -0.648  10.434  19.609  0.00  0.00    +0.000 C 
ATOM     11  C   UNL     1      -0.995  11.069  18.479  0.00  0.00    +0.000 C 
BRANCH  11  12
ATOM     12  C   UNL     1      -2.382  11.180  17.999  0.00  0.00    +0.000 A 
ATOM     13  C   UNL     1      -2.705  10.667  16.735  0.00  0.00    +0.000 A 
ATOM     14  C   UNL     1      -4.003  10.783  16.227  0.00  0.00    +0.000 A 
ATOM     15  C   UNL     1      -4.994  11.422  16.971  0.00  0.00    +0.000 A 
ATOM     16  C   UNL     1      -4.686  11.951  18.220  0.00  0.00    +0.000 A 
ATOM     17  C   UNL     1      -3.391  11.837  18.720  0.00  0.00    +0.000 A 
ATOM     18  F   UNL     1      -3.131  12.390  19.915  0.00  0.00    +0.000 F 
ENDBRANCH  11  12
ENDBRANCH   8  10
ENDBRANCH   1   8
BRANCH   4  19
ATOM     19  O   UNL     1       2.679   4.814  19.041  0.00  0.00    +0.000 OA
BRANCH  19  20
ATOM     20  C   UNL     1       3.545   4.212  20.011  0.00  0.00    +0.000 C 
BRANCH  20  21
ATOM     21  C   UNL     1       4.881   3.826  19.382  0.00  0.00    +0.000 C 
BRANCH  21  22
ATOM     22  C   UNL     1       5.573   5.056  18.789  0.00  0.00    +0.000 C 
BRANCH  22  23
ATOM     23  N   UNL     1       7.006   4.881  18.502  0.00  0.00    +0.000 NA
ATOM     24  C   UNL     1       7.722   6.163  18.714  0.00  0.00    +0.000 C 
ATOM     25  C   UNL     1       7.425   7.210  17.624  0.00  0.00    +0.000 C 
ATOM     26  O   UNL     1       7.782   6.714  16.329  0.00  0.00    +0.000 OA
ATOM     27  C   UNL     1       7.095   5.490  16.035  0.00  0.00    +0.000 C 
ATOM     28  C   UNL     1       7.308   4.427  17.127  0.00  0.00    +0.000 C 
ENDBRANCH  22  23
ENDBRANCH  21  22
ENDBRANCH  20  21
ENDBRANCH  19  20
ENDBRANCH   4  19
TORSDOF 8
ENDMDL
MODEL 7
REMARK VINA RESULT:      -7.3      6.933     10.297
REMARK  Name = 
REMARK  8 active torsions:
REMARK  status: ('A' for Active; 'I' for Inactive)
REMARK    1  A    between atoms: S_2  and  C_4
REMARK    2  A    between atoms: S_2  and  C_13
REMARK    3  A    between atoms: C_5  and  C_6
REMARK    4  A    between atoms: C_16  and  O_17
REMARK    5  A    between atoms: O_17  and  C_18
REMARK    6  A    between atoms: C_18  and  C_19
REMARK    7  A    between atoms: C_19  and  C_20
REMARK    8  A    between atoms: C_20  and  N_21
REMARK                            x       y       z     vdW  Elec       q    Type
REMARK                         _______ _______ _______ _____ _____    ______ ____
ROOT
ATOM      1  C   UNL     1       1.485   9.240  19.472  0.00  0.00    +0.000 A 
ATOM      2  C   UNL     1       1.626   8.146  20.324  0.00  0.00    +0.000 A 
ATOM      3  C   UNL     1       2.234   6.983  19.858  0.00  0.00    +0.000 A 
ATOM      4  C   UNL     1       2.705   6.902  18.544  0.00  0.00    +0.000 A 
ATOM      5  C   UNL     1       2.531   7.995  17.687  0.00  0.00    +0.000 A 
ATOM      6  C   UNL     1       1.913   9.165  18.144  0.00  0.00    +0.000 A 
ENDROOT
BRANCH   1   8
ATOM      7  O   UNL     1       1.422  11.843  19.507  0.00  0.00    +0.000 OA
ATOM      8  S   UNL     1       0.719  10.721  20.100  0.00  0.00    +0.000 S 
ATOM      9  O   UNL     1       0.638  10.582  21.542  0.00  0.00    +0.000 OA
BRANCH   8  10
ATOM     10  C   UNL     1      -0.868  10.634  19.409  0.00  0.00    +0.000 C 
ATOM     11  C   UNL     1      -1.500  11.753  19.026  0.00  0.00    +0.000 C 
BRANCH  11  12
ATOM     12  C   UNL     1      -2.869  11.772  18.486  0.00  0.00    +0.000 A 
ATOM     13  C   UNL     1      -3.928  12.125  19.335  0.00  0.00    +0.000 A 
ATOM     14  C   UNL     1      -5.247  12.122  18.870  0.00  0.00    +0.000 A 
ATOM     15  C   UNL     1      -5.528  11.759  17.553  0.00  0.00    +0.000 A 
ATOM     16  C   UNL     1      -4.490  11.390  16.703  0.00  0.00    +0.000 A 
ATOM     17  C   UNL     1      -3.179  11.390  17.172  0.00  0.00    +0.000 A 
ATOM     18  F   UNL     1      -2.213  10.997  16.327  0.00  0.00    +0.000 F 
ENDBRANCH  11  12
ENDBRANCH   8  10
ENDBRANCH   1   8
BRANCH   4  19
ATOM     19  O   UNL     1       3.339   5.808  18.009  0.00  0.00    +0.000 OA
BRANCH  19  20
ATOM     20  C   UNL     1       4.681   5.595  18.463  0.00  0.00    +0.000 C 
BRANCH  20  21
ATOM     21  C   UNL     1       4.813   4.240  19.153  0.00  0.00    +0.000 C 
BRANCH  21  22
ATOM     22  C   UNL     1       3.934   3.195  18.463  0.00  0.00    +0.000 C 
BRANCH  22  23
ATOM     23  N   UNL     1       3.351   2.186  19.362  0.00  0.00    +0.000 NA
ATOM     24  C   UNL     1       1.942   1.925  18.980  0.00  0.00    +0.000 C 
ATOM     25  C   UNL     1       0.992   3.083  19.337  0.00  0.00    +0.000 C 
ATOM     26  O   UNL     1       1.026   3.355  20.743  0.00  0.00    +0.000 OA
ATOM     27  C   UNL     1       2.357   3.658  21.181  0.00  0.00    +0.000 C 
ATOM     28  C   UNL     1       3.361   2.557  20.794  0.00  0.00    +0.000 C 
ENDBRANCH  22  23
ENDBRANCH  21  22
ENDBRANCH  20  21
ENDBRANCH  19  20
ENDBRANCH   4  19
TORSDOF 8
ENDMDL
MODEL 8
REMARK VINA RESULT:      -7.3      6.482      9.143
REMARK  Name = 
REMARK  8 active torsions:
REMARK  status: ('A' for Active; 'I' for Inactive)
REMARK    1  A    between atoms: S_2  and  C_4
REMARK    2  A    between atoms: S_2  and  C_13
REMARK    3  A    between atoms: C_5  and  C_6
REMARK    4  A    between atoms: C_16  and  O_17
REMARK    5  A    between atoms: O_17  and  C_18
REMARK    6  A    between atoms: C_18  and  C_19
REMARK    7  A    between atoms: C_19  and  C_20
REMARK    8  A    between atoms: C_20  and  N_21
REMARK                            x       y       z     vdW  Elec       q    Type
REMARK                         _______ _______ _______ _____ _____    ______ ____
ROOT
ATOM      1  C   UNL     1       0.996   9.407  20.322  0.00  0.00    +0.000 A 
ATOM      2  C   UNL     1       1.098   8.300  21.162  0.00  0.00    +0.000 A 
ATOM      3  C   UNL     1       1.736   7.148  20.709  0.00  0.00    +0.000 A 
ATOM      4  C   UNL     1       2.276   7.091  19.421  0.00  0.00    +0.000 A 
ATOM      5  C   UNL     1       2.141   8.198  18.574  0.00  0.00    +0.000 A 
ATOM      6  C   UNL     1       1.493   9.357  19.017  0.00  0.00    +0.000 A 
ENDROOT
BRANCH   1   8
ATOM      7  O   UNL     1       1.201  11.912  21.004  0.00  0.00    +0.000 OA
ATOM      8  S   UNL     1       0.190  10.874  20.933  0.00  0.00    +0.000 S 
ATOM      9  O   UNL     1      -0.555  10.490  22.118  0.00  0.00    +0.000 OA
BRANCH   8  10
ATOM     10  C   UNL     1      -0.905  11.255  19.645  0.00  0.00    +0.000 C 
ATOM     11  C   UNL     1      -1.538  10.275  18.985  0.00  0.00    +0.000 C 
BRANCH  11  12
ATOM     12  C   UNL     1      -2.438  10.509  17.843  0.00  0.00    +0.000 A 
ATOM     13  C   UNL     1      -2.122   9.936  16.603  0.00  0.00    +0.000 A 
ATOM     14  C   UNL     1      -2.931  10.162  15.485  0.00  0.00    +0.000 A 
ATOM     15  C   UNL     1      -4.062  10.971  15.588  0.00  0.00    +0.000 A 
ATOM     16  C   UNL     1      -4.380  11.561  16.807  0.00  0.00    +0.000 A 
ATOM     17  C   UNL     1      -3.568  11.336  17.917  0.00  0.00    +0.000 A 
ATOM     18  F   UNL     1      -3.895  11.950  19.065  0.00  0.00    +0.000 F 
ENDBRANCH  11  12
ENDBRANCH   8  10
ENDBRANCH   1   8
BRANCH   4  19
ATOM     19  O   UNL     1       2.943   6.009  18.901  0.00  0.00    +0.000 OA
BRANCH  19  20
ATOM     20  C   UNL     1       3.351   5.024  19.859  0.00  0.00    +0.000 C 
BRANCH  20  21
ATOM     21  C   UNL     1       4.054   3.857  19.171  0.00  0.00    +0.000 C 
BRANCH  21  22
ATOM     22  C   UNL     1       4.498   4.249  17.760  0.00  0.00    +0.000 C 
BRANCH  22  23
ATOM     23  N   UNL     1       5.325   5.465  17.688  0.00  0.00    +0.000 NA
ATOM     24  C   UNL     1       5.480   5.885  16.273  0.00  0.00    +0.000 C 
ATOM     25  C   UNL     1       6.411   4.961  15.465  0.00  0.00    +0.000 C 
ATOM     26  O   UNL     1       7.714   4.908  16.056  0.00  0.00    +0.000 OA
ATOM     27  C   UNL     1       7.648   4.469  17.420  0.00  0.00    +0.000 C 
ATOM     28  C   UNL     1       6.681   5.323  18.259  0.00  0.00    +0.000 C 
ENDBRANCH  22  23
ENDBRANCH  21  22
ENDBRANCH  20  21
ENDBRANCH  19  20
ENDBRANCH   4  19
TORSDOF 8
ENDMDL
MODEL 9
REMARK VINA RESULT:      -7.3      7.084     10.244
REMARK  Name = 
REMARK  8 active torsions:
REMARK  status: ('A' for Active; 'I' for Inactive)
REMARK    1  A    between atoms: S_2  and  C_4
REMARK    2  A    between atoms: S_2  and  C_13
REMARK    3  A    between atoms: C_5  and  C_6
REMARK    4  A    between atoms: C_16  and  O_17
REMARK    5  A    between atoms: O_17  and  C_18
REMARK    6  A    between atoms: C_18  and  C_19
REMARK    7  A    between atoms: C_19  and  C_20
REMARK    8  A    between atoms: C_20  and  N_21
REMARK                            x       y       z     vdW  Elec       q    Type
REMARK                         _______ _______ _______ _____ _____    ______ ____
ROOT
ATOM      1  C   UNL     1       1.242   9.595  19.611  0.00  0.00    +0.000 A 
ATOM      2  C   UNL     1       1.606   9.617  18.266  0.00  0.00    +0.000 A 
ATOM      3  C   UNL     1       2.209   8.497  17.698  0.00  0.00    +0.000 A 
ATOM      4  C   UNL     1       2.452   7.352  18.462  0.00  0.00    +0.000 A 
ATOM      5  C   UNL     1       2.111   7.353  19.821  0.00  0.00    +0.000 A 
ATOM      6  C   UNL     1       1.513   8.477  20.403  0.00  0.00    +0.000 A 
ENDROOT
BRANCH   1   8
ATOM      7  O   UNL     1       1.074  12.193  19.689  0.00  0.00    +0.000 OA
ATOM      8  S   UNL     1       0.457  11.035  20.308  0.00  0.00    +0.000 S 
ATOM      9  O   UNL     1       0.474  10.875  21.750  0.00  0.00    +0.000 OA
BRANCH   8  10
ATOM     10  C   UNL     1      -1.166  10.891  19.717  0.00  0.00    +0.000 C 
ATOM     11  C   UNL     1      -1.798  11.960  19.212  0.00  0.00    +0.000 C 
BRANCH  11  12
ATOM     12  C   UNL     1      -3.193  11.937  18.743  0.00  0.00    +0.000 A 
ATOM     13  C   UNL     1      -4.206  12.377  19.607  0.00  0.00    +0.000 A 
ATOM     14  C   UNL     1      -5.547  12.339  19.214  0.00  0.00    +0.000 A 
ATOM     15  C   UNL     1      -5.897  11.852  17.955  0.00  0.00    +0.000 A 
ATOM     16  C   UNL     1      -4.906  11.395  17.092  0.00  0.00    +0.000 A 
ATOM     17  C   UNL     1      -3.571  11.431  17.491  0.00  0.00    +0.000 A 
ATOM     18  F   UNL     1      -2.652  10.951  16.639  0.00  0.00    +0.000 F 
ENDBRANCH  11  12
ENDBRANCH   8  10
ENDBRANCH   1   8
BRANCH   4  19
ATOM     19  O   UNL     1       3.016   6.197  17.980  0.00  0.00    +0.000 OA
BRANCH  19  20
ATOM     20  C   UNL     1       4.358   6.327  17.495  0.00  0.00    +0.000 C 
BRANCH  20  21
ATOM     21  C   UNL     1       4.914   4.972  17.067  0.00  0.00    +0.000 C 
BRANCH  21  22
ATOM     22  C   UNL     1       3.819   3.904  17.099  0.00  0.00    +0.000 C 
BRANCH  22  23
ATOM     23  N   UNL     1       4.078   2.779  18.013  0.00  0.00    +0.000 NA
ATOM     24  C   UNL     1       2.936   1.833  17.984  0.00  0.00    +0.000 C 
ATOM     25  C   UNL     1       1.679   2.378  18.688  0.00  0.00    +0.000 C 
ATOM     26  O   UNL     1       1.958   2.692  20.057  0.00  0.00    +0.000 OA
ATOM     27  C   UNL     1       3.031   3.638  20.165  0.00  0.00    +0.000 C 
ATOM     28  C   UNL     1       4.295   3.169  19.423  0.00  0.00    +0.000 C 
ENDBRANCH  22  23
ENDBRANCH  21  22
ENDBRANCH  20  21
ENDBRANCH  19  20
ENDBRANCH   4  19
TORSDOF 8
ENDMDL
