MODEL 1
REMARK VINA RESULT:      -7.2      0.000      0.000
REMARK  Name = 
REMARK  2 active torsions:
REMARK  status: ('A' for Active; 'I' for Inactive)
REMARK    1  A    between atoms: N_7  and  C_8
REMARK    2  A    between atoms: C_11  and  N_12
REMARK                            x       y       z     vdW  Elec       q    Type
REMARK                         _______ _______ _______ _____ _____    ______ ____
ROOT
ATOM      1  N   UNL     1       5.814   4.842  14.485  0.00  0.00    +0.000 NA
ATOM      2  C   UNL     1       7.071   5.003  14.703  0.00  0.00    +0.000 C 
ATOM      3  N   UNL     1       7.936   5.364  13.732  0.00  0.00    +0.000 N 
ATOM      4  N   UNL     1       7.586   4.801  15.955  0.00  0.00    +0.000 N 
ATOM      5  C   UNL     1       6.958   4.486  17.148  0.00  0.00    +0.000 C 
ATOM      6  O   UNL     1       7.645   4.437  18.167  0.00  0.00    +0.000 OA
ATOM      7  N   UNL     1       5.613   4.255  17.054  0.00  0.00    +0.000 N 
ATOM      8  H   UNL     1       5.612   5.083  13.510  0.00  0.00    +0.000 HD
ATOM      9  H   UNL     1       7.637   5.213  12.777  0.00  0.00    +0.000 HD
ATOM     10  H   UNL     1       8.914   5.144  13.874  0.00  0.00    +0.000 HD
ATOM     11  H   UNL     1       8.567   4.980  16.096  0.00  0.00    +0.000 HD
ATOM     12  H   UNL     1       5.270   4.243  16.091  0.00  0.00    +0.000 HD
ENDROOT
BRANCH   7  13
ATOM     13  C   UNL     1       4.705   4.008  18.094  0.00  0.00    +0.000 A 
ATOM     14  C   UNL     1       4.323   4.988  19.014  0.00  0.00    +0.000 A 
ATOM     15  C   UNL     1       3.409   4.696  20.029  0.00  0.00    +0.000 A 
ATOM     16  C   UNL     1       2.879   3.407  20.130  0.00  0.00    +0.000 A 
ATOM     17  C   UNL     1       3.245   2.415  19.211  0.00  0.00    +0.000 A 
ATOM     18  C   UNL     1       4.149   2.726  18.188  0.00  0.00    +0.000 A 
BRANCH  16  19
ATOM     19  N   UNL     1       1.931   3.096  21.205  0.00  0.00    +0.000 N 
ATOM     20  O   UNL     1       2.383   2.953  22.350  0.00  0.00    +0.000 OA
ATOM     21  O   UNL     1       0.732   2.995  20.906  0.00  0.00    +0.000 OA
ENDBRANCH  16  19
ENDBRANCH   7  13
TORSDOF 2
ENDMDL
MODEL 2
REMARK VINA RESULT:      -7.2      0.090      1.213
REMARK  Name = 
REMARK  2 active torsions:
REMARK  status: ('A' for Active; 'I' for Inactive)
REMARK    1  A    between atoms: N_7  and  C_8
REMARK    2  A    between atoms: C_11  and  N_12
REMARK                            x       y       z     vdW  Elec       q    Type
REMARK                         _______ _______ _______ _____ _____    ______ ____
ROOT
ATOM      1  N   UNL     1       5.880   4.804  14.459  0.00  0.00    +0.000 NA
ATOM      2  C   UNL     1       7.121   5.026  14.708  0.00  0.00    +0.000 C 
ATOM      3  N   UNL     1       7.990   5.434  13.759  0.00  0.00    +0.000 N 
ATOM      4  N   UNL     1       7.616   4.844  15.971  0.00  0.00    +0.000 N 
ATOM      5  C   UNL     1       6.977   4.493  17.147  0.00  0.00    +0.000 C 
ATOM      6  O   UNL     1       7.641   4.473  18.182  0.00  0.00    +0.000 OA
ATOM      7  N   UNL     1       5.647   4.195  17.021  0.00  0.00    +0.000 N 
ATOM      8  H   UNL     1       5.690   5.039  13.481  0.00  0.00    +0.000 HD
ATOM      9  H   UNL     1       7.722   5.272  12.796  0.00  0.00    +0.000 HD
ATOM     10  H   UNL     1       8.975   5.262  13.923  0.00  0.00    +0.000 HD
ATOM     11  H   UNL     1       8.584   5.071  16.136  0.00  0.00    +0.000 HD
ATOM     12  H   UNL     1       5.328   4.171  16.050  0.00  0.00    +0.000 HD
ENDROOT
BRANCH   7  13
ATOM     13  C   UNL     1       4.729   3.899  18.037  0.00  0.00    +0.000 A 
ATOM     14  C   UNL     1       4.195   2.622  18.229  0.00  0.00    +0.000 A 
ATOM     15  C   UNL     1       3.288   2.374  19.261  0.00  0.00    +0.000 A 
ATOM     16  C   UNL     1       2.903   3.419  20.106  0.00  0.00    +0.000 A 
ATOM     17  C   UNL     1       3.434   4.704  19.934  0.00  0.00    +0.000 A 
ATOM     18  C   UNL     1       4.355   4.934  18.906  0.00  0.00    +0.000 A 
BRANCH  16  19
ATOM     19  N   UNL     1       1.938   3.162  21.181  0.00  0.00    +0.000 N 
ATOM     20  O   UNL     1       2.383   2.951  22.318  0.00  0.00    +0.000 OA
ATOM     21  O   UNL     1       0.734   3.171  20.889  0.00  0.00    +0.000 OA
ENDBRANCH  16  19
ENDBRANCH   7  13
TORSDOF 2
ENDMDL
MODEL 3
REMARK VINA RESULT:      -7.0      2.150      6.565
REMARK  Name = 
REMARK  2 active torsions:
REMARK  status: ('A' for Active; 'I' for Inactive)
REMARK    1  A    between atoms: N_7  and  C_8
REMARK    2  A    between atoms: C_11  and  N_12
REMARK                            x       y       z     vdW  Elec       q    Type
REMARK                         _______ _______ _______ _____ _____    ______ ____
ROOT
ATOM      1  N   UNL     1       1.457   3.878  20.508  0.00  0.00    +0.000 NA
ATOM      2  C   UNL     1       1.808   2.963  21.340  0.00  0.00    +0.000 C 
ATOM      3  N   UNL     1       1.001   2.536  22.333  0.00  0.00    +0.000 N 
ATOM      4  N   UNL     1       3.045   2.385  21.248  0.00  0.00    +0.000 N 
ATOM      5  C   UNL     1       4.058   2.564  20.322  0.00  0.00    +0.000 C 
ATOM      6  O   UNL     1       5.058   1.854  20.414  0.00  0.00    +0.000 OA
ATOM      7  N   UNL     1       3.828   3.539  19.390  0.00  0.00    +0.000 N 
ATOM      8  H   UNL     1       0.490   4.153  20.705  0.00  0.00    +0.000 HD
ATOM      9  H   UNL     1       0.242   3.151  22.599  0.00  0.00    +0.000 HD
ATOM     10  H   UNL     1       1.438   2.090  23.130  0.00  0.00    +0.000 HD
ATOM     11  H   UNL     1       3.267   1.640  21.890  0.00  0.00    +0.000 HD
ATOM     12  H   UNL     1       2.978   4.078  19.569  0.00  0.00    +0.000 HD
ENDROOT
BRANCH   7  13
ATOM     13  C   UNL     1       4.621   3.882  18.286  0.00  0.00    +0.000 A 
ATOM     14  C   UNL     1       5.874   4.488  18.411  0.00  0.00    +0.000 A 
ATOM     15  C   UNL     1       6.630   4.804  17.281  0.00  0.00    +0.000 A 
ATOM     16  C   UNL     1       6.124   4.518  16.010  0.00  0.00    +0.000 A 
ATOM     17  C   UNL     1       4.874   3.903  15.866  0.00  0.00    +0.000 A 
ATOM     18  C   UNL     1       4.133   3.576  17.008  0.00  0.00    +0.000 A 
BRANCH  16  19
ATOM     19  N   UNL     1       6.912   4.864  14.822  0.00  0.00    +0.000 N 
ATOM     20  O   UNL     1       6.649   4.276  13.763  0.00  0.00    +0.000 OA
ATOM     21  O   UNL     1       7.795   5.725  14.947  0.00  0.00    +0.000 OA
ENDBRANCH  16  19
ENDBRANCH   7  13
TORSDOF 2
ENDMDL
MODEL 4
REMARK VINA RESULT:      -6.9      2.144      6.600
REMARK  Name = 
REMARK  2 active torsions:
REMARK  status: ('A' for Active; 'I' for Inactive)
REMARK    1  A    between atoms: N_7  and  C_8
REMARK    2  A    between atoms: C_11  and  N_12
REMARK                            x       y       z     vdW  Elec       q    Type
REMARK                         _______ _______ _______ _____ _____    ______ ____
ROOT
ATOM      1  N   UNL     1       1.431   3.910  20.552  0.00  0.00    +0.000 NA
ATOM      2  C   UNL     1       1.806   3.003  21.381  0.00  0.00    +0.000 C 
ATOM      3  N   UNL     1       1.034   2.596  22.411  0.00  0.00    +0.000 N 
ATOM      4  N   UNL     1       3.034   2.413  21.250  0.00  0.00    +0.000 N 
ATOM      5  C   UNL     1       4.012   2.571  20.283  0.00  0.00    +0.000 C 
ATOM      6  O   UNL     1       5.009   1.854  20.345  0.00  0.00    +0.000 OA
ATOM      7  N   UNL     1       3.754   3.536  19.347  0.00  0.00    +0.000 N 
ATOM      8  H   UNL     1       0.474   4.196  20.782  0.00  0.00    +0.000 HD
ATOM      9  H   UNL     1       0.291   3.221  22.697  0.00  0.00    +0.000 HD
ATOM     10  H   UNL     1       1.499   2.156  23.196  0.00  0.00    +0.000 HD
ATOM     11  H   UNL     1       3.275   1.675  21.893  0.00  0.00    +0.000 HD
ATOM     12  H   UNL     1       2.915   4.085  19.552  0.00  0.00    +0.000 HD
ENDROOT
BRANCH   7  13
ATOM     13  C   UNL     1       4.506   3.857  18.209  0.00  0.00    +0.000 A 
ATOM     14  C   UNL     1       4.030   3.670  16.908  0.00  0.00    +0.000 A 
ATOM     15  C   UNL     1       4.814   4.012  15.805  0.00  0.00    +0.000 A 
ATOM     16  C   UNL     1       6.093   4.540  16.005  0.00  0.00    +0.000 A 
ATOM     17  C   UNL     1       6.583   4.742  17.302  0.00  0.00    +0.000 A 
ATOM     18  C   UNL     1       5.779   4.410  18.399  0.00  0.00    +0.000 A 
BRANCH  16  19
ATOM     19  N   UNL     1       6.923   4.885  14.845  0.00  0.00    +0.000 N 
ATOM     20  O   UNL     1       7.801   5.746  15.000  0.00  0.00    +0.000 OA
ATOM     21  O   UNL     1       6.698   4.295  13.779  0.00  0.00    +0.000 OA
ENDBRANCH  16  19
ENDBRANCH   7  13
TORSDOF 2
ENDMDL
MODEL 5
REMARK VINA RESULT:      -6.8      1.349      1.624
REMARK  Name = 
REMARK  2 active torsions:
REMARK  status: ('A' for Active; 'I' for Inactive)
REMARK    1  A    between atoms: N_7  and  C_8
REMARK    2  A    between atoms: C_11  and  N_12
REMARK                            x       y       z     vdW  Elec       q    Type
REMARK                         _______ _______ _______ _____ _____    ______ ____
ROOT
ATOM      1  N   UNL     1       6.383   4.233  13.909  0.00  0.00    +0.000 NA
ATOM      2  C   UNL     1       7.240   5.109  14.294  0.00  0.00    +0.000 C 
ATOM      3  N   UNL     1       8.215   5.577  13.486  0.00  0.00    +0.000 N 
ATOM      4  N   UNL     1       7.197   5.603  15.570  0.00  0.00    +0.000 N 
ATOM      5  C   UNL     1       6.299   5.368  16.597  0.00  0.00    +0.000 C 
ATOM      6  O   UNL     1       6.434   6.006  17.640  0.00  0.00    +0.000 OA
ATOM      7  N   UNL     1       5.344   4.425  16.332  0.00  0.00    +0.000 N 
ATOM      8  H   UNL     1       6.545   4.023  12.919  0.00  0.00    +0.000 HD
ATOM      9  H   UNL     1       8.447   5.011  12.679  0.00  0.00    +0.000 HD
ATOM     10  H   UNL     1       9.033   5.980  13.927  0.00  0.00    +0.000 HD
ATOM     11  H   UNL     1       7.858   6.321  15.822  0.00  0.00    +0.000 HD
ATOM     12  H   UNL     1       5.488   3.943  15.441  0.00  0.00    +0.000 HD
ENDROOT
BRANCH   7  13
ATOM     13  C   UNL     1       4.260   4.045  17.134  0.00  0.00    +0.000 A 
ATOM     14  C   UNL     1       3.269   4.941  17.544  0.00  0.00    +0.000 A 
ATOM     15  C   UNL     1       2.203   4.514  18.338  0.00  0.00    +0.000 A 
ATOM     16  C   UNL     1       2.132   3.176  18.734  0.00  0.00    +0.000 A 
ATOM     17  C   UNL     1       3.112   2.261  18.326  0.00  0.00    +0.000 A 
ATOM     18  C   UNL     1       4.166   2.700  17.517  0.00  0.00    +0.000 A 
BRANCH  16  19
ATOM     19  N   UNL     1       1.020   2.730  19.582  0.00  0.00    +0.000 N 
ATOM     20  O   UNL     1       0.025   2.249  19.022  0.00  0.00    +0.000 OA
ATOM     21  O   UNL     1       1.142   2.860  20.808  0.00  0.00    +0.000 OA
ENDBRANCH  16  19
ENDBRANCH   7  13
TORSDOF 2
ENDMDL
MODEL 6
REMARK VINA RESULT:      -6.8      1.089      1.365
REMARK  Name = 
REMARK  2 active torsions:
REMARK  status: ('A' for Active; 'I' for Inactive)
REMARK    1  A    between atoms: N_7  and  C_8
REMARK    2  A    between atoms: C_11  and  N_12
REMARK                            x       y       z     vdW  Elec       q    Type
REMARK                         _______ _______ _______ _____ _____    ______ ____
ROOT
ATOM      1  N   UNL     1       6.376   4.077  14.459  0.00  0.00    +0.000 NA
ATOM      2  C   UNL     1       7.163   5.084  14.589  0.00  0.00    +0.000 C 
ATOM      3  N   UNL     1       8.012   5.474  13.614  0.00  0.00    +0.000 N 
ATOM      4  N   UNL     1       7.173   5.808  15.751  0.00  0.00    +0.000 N 
ATOM      5  C   UNL     1       6.394   5.695  16.889  0.00  0.00    +0.000 C 
ATOM      6  O   UNL     1       6.545   6.531  17.779  0.00  0.00    +0.000 OA
ATOM      7  N   UNL     1       5.527   4.636  16.899  0.00  0.00    +0.000 N 
ATOM      8  H   UNL     1       6.477   3.696  13.513  0.00  0.00    +0.000 HD
ATOM      9  H   UNL     1       8.236   4.787  12.905  0.00  0.00    +0.000 HD
ATOM     10  H   UNL     1       8.815   6.026  13.889  0.00  0.00    +0.000 HD
ATOM     11  H   UNL     1       7.771   6.617  15.798  0.00  0.00    +0.000 HD
ATOM     12  H   UNL     1       5.647   4.007  16.101  0.00  0.00    +0.000 HD
ENDROOT
BRANCH   7  13
ATOM     13  C   UNL     1       4.560   4.321  17.863  0.00  0.00    +0.000 A 
ATOM     14  C   UNL     1       3.232   4.746  17.772  0.00  0.00    +0.000 A 
ATOM     15  C   UNL     1       2.302   4.400  18.754  0.00  0.00    +0.000 A 
ATOM     16  C   UNL     1       2.708   3.628  19.846  0.00  0.00    +0.000 A 
ATOM     17  C   UNL     1       4.033   3.185  19.949  0.00  0.00    +0.000 A 
ATOM     18  C   UNL     1       4.951   3.525  18.949  0.00  0.00    +0.000 A 
BRANCH  16  19
ATOM     19  N   UNL     1       1.735   3.278  20.887  0.00  0.00    +0.000 N 
ATOM     20  O   UNL     1       0.544   3.185  20.556  0.00  0.00    +0.000 OA
ATOM     21  O   UNL     1       2.160   3.095  22.036  0.00  0.00    +0.000 OA
ENDBRANCH  16  19
ENDBRANCH   7  13
TORSDOF 2
ENDMDL
MODEL 7
REMARK VINA RESULT:      -6.8      2.764      6.869
REMARK  Name = 
REMARK  2 active torsions:
REMARK  status: ('A' for Active; 'I' for Inactive)
REMARK    1  A    between atoms: N_7  and  C_8
REMARK    2  A    between atoms: C_11  and  N_12
REMARK                            x       y       z     vdW  Elec       q    Type
REMARK                         _______ _______ _______ _____ _____    ______ ____
ROOT
ATOM      1  N   UNL     1       4.826   2.148  19.800  0.00  0.00    +0.000 NA
ATOM      2  C   UNL     1       3.759   2.776  20.144  0.00  0.00    +0.000 C 
ATOM      3  N   UNL     1       3.085   2.496  21.280  0.00  0.00    +0.000 N 
ATOM      4  N   UNL     1       3.254   3.768  19.347  0.00  0.00    +0.000 N 
ATOM      5  C   UNL     1       3.739   4.314  18.171  0.00  0.00    +0.000 C 
ATOM      6  O   UNL     1       3.132   5.265  17.682  0.00  0.00    +0.000 OA
ATOM      7  N   UNL     1       4.863   3.714  17.671  0.00  0.00    +0.000 N 
ATOM      8  H   UNL     1       5.073   1.483  20.539  0.00  0.00    +0.000 HD
ATOM      9  H   UNL     1       3.258   1.592  21.700  0.00  0.00    +0.000 HD
ATOM     10  H   UNL     1       2.110   2.766  21.322  0.00  0.00    +0.000 HD
ATOM     11  H   UNL     1       2.441   4.267  19.672  0.00  0.00    +0.000 HD
ATOM     12  H   UNL     1       5.133   2.871  18.182  0.00  0.00    +0.000 HD
ENDROOT
BRANCH   7  13
ATOM     13  C   UNL     1       5.624   4.100  16.560  0.00  0.00    +0.000 A 
ATOM     14  C   UNL     1       6.802   4.844  16.669  0.00  0.00    +0.000 A 
ATOM     15  C   UNL     1       7.531   5.199  15.533  0.00  0.00    +0.000 A 
ATOM     16  C   UNL     1       7.072   4.812  14.271  0.00  0.00    +0.000 A 
ATOM     17  C   UNL     1       5.899   4.058  14.142  0.00  0.00    +0.000 A 
ATOM     18  C   UNL     1       5.186   3.695  15.291  0.00  0.00    +0.000 A 
BRANCH  16  19
ATOM     19  N   UNL     1       7.830   5.198  13.075  0.00  0.00    +0.000 N 
ATOM     20  O   UNL     1       8.770   5.992  13.219  0.00  0.00    +0.000 OA
ATOM     21  O   UNL     1       7.486   4.706  11.991  0.00  0.00    +0.000 OA
ENDBRANCH  16  19
ENDBRANCH   7  13
TORSDOF 2
ENDMDL
MODEL 8
REMARK VINA RESULT:      -6.7      2.761      6.973
REMARK  Name = 
REMARK  2 active torsions:
REMARK  status: ('A' for Active; 'I' for Inactive)
REMARK    1  A    between atoms: N_7  and  C_8
REMARK    2  A    between atoms: C_11  and  N_12
REMARK                            x       y       z     vdW  Elec       q    Type
REMARK                         _______ _______ _______ _____ _____    ______ ____
ROOT
ATOM      1  N   UNL     1       4.867   2.206  19.830  0.00  0.00    +0.000 NA
ATOM      2  C   UNL     1       3.771   2.791  20.158  0.00  0.00    +0.000 C 
ATOM      3  N   UNL     1       3.131   2.538  21.320  0.00  0.00    +0.000 N 
ATOM      4  N   UNL     1       3.198   3.706  19.317  0.00  0.00    +0.000 N 
ATOM      5  C   UNL     1       3.633   4.212  18.105  0.00  0.00    +0.000 C 
ATOM      6  O   UNL     1       2.966   5.099  17.575  0.00  0.00    +0.000 OA
ATOM      7  N   UNL     1       4.782   3.649  17.618  0.00  0.00    +0.000 N 
ATOM      8  H   UNL     1       5.162   1.598  20.600  0.00  0.00    +0.000 HD
ATOM      9  H   UNL     1       3.362   1.669  21.786  0.00  0.00    +0.000 HD
ATOM     10  H   UNL     1       2.143   2.753  21.365  0.00  0.00    +0.000 HD
ATOM     11  H   UNL     1       2.362   4.176  19.629  0.00  0.00    +0.000 HD
ATOM     12  H   UNL     1       5.108   2.853  18.170  0.00  0.00    +0.000 HD
ENDROOT
BRANCH   7  13
ATOM     13  C   UNL     1       5.503   4.015  16.473  0.00  0.00    +0.000 A 
ATOM     14  C   UNL     1       5.017   3.823  15.177  0.00  0.00    +0.000 A 
ATOM     15  C   UNL     1       5.771   4.210  14.067  0.00  0.00    +0.000 A 
ATOM     16  C   UNL     1       7.029   4.788  14.256  0.00  0.00    +0.000 A 
ATOM     17  C   UNL     1       7.528   4.996  15.548  0.00  0.00    +0.000 A 
ATOM     18  C   UNL     1       6.755   4.618  16.652  0.00  0.00    +0.000 A 
BRANCH  16  19
ATOM     19  N   UNL     1       7.828   5.181  13.089  0.00  0.00    +0.000 N 
ATOM     20  O   UNL     1       7.521   4.697  11.990  0.00  0.00    +0.000 OA
ATOM     21  O   UNL     1       8.762   5.974  13.271  0.00  0.00    +0.000 OA
ENDBRANCH  16  19
ENDBRANCH   7  13
TORSDOF 2
ENDMDL
MODEL 9
REMARK VINA RESULT:      -6.7      1.128      1.493
REMARK  Name = 
REMARK  2 active torsions:
REMARK  status: ('A' for Active; 'I' for Inactive)
REMARK    1  A    between atoms: N_7  and  C_8
REMARK    2  A    between atoms: C_11  and  N_12
REMARK                            x       y       z     vdW  Elec       q    Type
REMARK                         _______ _______ _______ _____ _____    ______ ____
ROOT
ATOM      1  N   UNL     1       6.426   3.858  14.495  0.00  0.00    +0.000 NA
ATOM      2  C   UNL     1       7.110   4.944  14.558  0.00  0.00    +0.000 C 
ATOM      3  N   UNL     1       7.919   5.352  13.557  0.00  0.00    +0.000 N 
ATOM      4  N   UNL     1       7.046   5.737  15.672  0.00  0.00    +0.000 N 
ATOM      5  C   UNL     1       6.280   5.620  16.818  0.00  0.00    +0.000 C 
ATOM      6  O   UNL     1       6.347   6.521  17.653  0.00  0.00    +0.000 OA
ATOM      7  N   UNL     1       5.521   4.483  16.898  0.00  0.00    +0.000 N 
ATOM      8  H   UNL     1       6.566   3.429  13.575  0.00  0.00    +0.000 HD
ATOM      9  H   UNL     1       8.210   4.647  12.891  0.00  0.00    +0.000 HD
ATOM     10  H   UNL     1       8.663   5.996  13.793  0.00  0.00    +0.000 HD
ATOM     11  H   UNL     1       7.562   6.602  15.666  0.00  0.00    +0.000 HD
ATOM     12  H   UNL     1       5.704   3.820  16.142  0.00  0.00    +0.000 HD
ENDROOT
BRANCH   7  13
ATOM     13  C   UNL     1       4.588   4.137  17.884  0.00  0.00    +0.000 A 
ATOM     14  C   UNL     1       4.939   3.466  19.059  0.00  0.00    +0.000 A 
ATOM     15  C   UNL     1       3.974   3.148  20.017  0.00  0.00    +0.000 A 
ATOM     16  C   UNL     1       2.639   3.498  19.792  0.00  0.00    +0.000 A 
ATOM     17  C   UNL     1       2.270   4.179  18.625  0.00  0.00    +0.000 A 
ATOM     18  C   UNL     1       3.251   4.505  17.681  0.00  0.00    +0.000 A 
BRANCH  16  19
ATOM     19  N   UNL     1       1.622   3.151  20.791  0.00  0.00    +0.000 N 
ATOM     20  O   UNL     1       0.438   3.137  20.428  0.00  0.00    +0.000 OA
ATOM     21  O   UNL     1       2.008   2.892  21.940  0.00  0.00    +0.000 OA
ENDBRANCH  16  19
ENDBRANCH   7  13
TORSDOF 2
ENDMDL
