MODEL 1
REMARK VINA RESULT:      -7.3      0.000      0.000
REMARK  Name = 
REMARK  6 active torsions:
REMARK  status: ('A' for Active; 'I' for Inactive)
REMARK    1  A    between atoms: C_2  and  C_3
REMARK    2  A    between atoms: C_3  and  S_4
REMARK    3  A    between atoms: S_4  and  C_5
REMARK    4  A    between atoms: N_9  and  C_10
REMARK    5  A    between atoms: C_10  and  C_11
REMARK    6  A    between atoms: N_16  and  C_17
REMARK                            x       y       z     vdW  Elec       q    Type
REMARK                         _______ _______ _______ _____ _____    ______ ____
ROOT
ATOM      1  C   UNL     1       7.141   6.020  18.006  0.00  0.00    +0.000 C 
ENDROOT
BRANCH   1   3
ATOM      2  O   UNL     1       8.031   4.180  16.798  0.00  0.00    +0.000 OA
ATOM      3  C   UNL     1       7.409   5.239  16.729  0.00  0.00    +0.000 C 
ATOM      4  N   UNL     1       6.827   5.729  15.575  0.00  0.00    +0.000 N 
ATOM      5  H   UNL     1       6.551   6.707  15.571  0.00  0.00    +0.000 HD
BRANCH   4   6
ATOM      6  C   UNL     1       6.695   5.035  14.346  0.00  0.00    +0.000 A 
ATOM      7  C   UNL     1       7.614   5.140  13.297  0.00  0.00    +0.000 A 
ATOM      8  C   UNL     1       7.462   4.382  12.130  0.00  0.00    +0.000 A 
ATOM      9  C   UNL     1       6.385   3.509  11.991  0.00  0.00    +0.000 A 
ATOM     10  C   UNL     1       5.455   3.400  13.024  0.00  0.00    +0.000 A 
ATOM     11  C   UNL     1       5.617   4.154  14.187  0.00  0.00    +0.000 A 
ATOM     12  F   UNL     1       4.708   4.030  15.167  0.00  0.00    +0.000 F 
ENDBRANCH   4   6
ENDBRANCH   1   3
BRANCH   1  13
ATOM     13  S   UNL     1       5.968   5.252  19.165  0.00  0.00    +0.000 S 
BRANCH  13  14
ATOM     14  C   UNL     1       4.493   5.885  18.490  0.00  0.00    +0.000 A 
ATOM     15  N   UNL     1       4.320   7.149  18.171  0.00  0.00    +0.000 NA
ATOM     16  C   UNL     1       3.019   7.257  17.762  0.00  0.00    +0.000 A 
ATOM     17  C   UNL     1       2.388   6.040  17.837  0.00  0.00    +0.000 A 
ATOM     18  N   UNL     1       3.352   5.157  18.269  0.00  0.00    +0.000 N 
BRANCH  18  19
ATOM     19  C   UNL     1       3.155   3.720  18.360  0.00  0.00    +0.000 C 
BRANCH  19  20
ATOM     20  C   UNL     1       2.491   3.304  19.621  0.00  0.00    +0.000 A 
ATOM     21  C   UNL     1       1.194   3.311  20.098  0.00  0.00    +0.000 A 
ATOM     22  C   UNL     1       1.250   2.820  21.425  0.00  0.00    +0.000 A 
ATOM     23  C   UNL     1       2.567   2.510  21.664  0.00  0.00    +0.000 A 
ATOM     24  O   UNL     1       3.326   2.796  20.576  0.00  0.00    +0.000 OA
ENDBRANCH  19  20
ENDBRANCH  18  19
ENDBRANCH  13  14
ENDBRANCH   1  13
TORSDOF 6
ENDMDL
MODEL 2
REMARK VINA RESULT:      -7.3      2.591      7.025
REMARK  Name = 
REMARK  6 active torsions:
REMARK  status: ('A' for Active; 'I' for Inactive)
REMARK    1  A    between atoms: C_2  and  C_3
REMARK    2  A    between atoms: C_3  and  S_4
REMARK    3  A    between atoms: S_4  and  C_5
REMARK    4  A    between atoms: N_9  and  C_10
REMARK    5  A    between atoms: C_10  and  C_11
REMARK    6  A    between atoms: N_16  and  C_17
REMARK                            x       y       z     vdW  Elec       q    Type
REMARK                         _______ _______ _______ _____ _____    ______ ____
ROOT
ATOM      1  C   UNL     1       3.605   4.228  19.512  0.00  0.00    +0.000 C 
ENDROOT
BRANCH   1   3
ATOM      2  O   UNL     1       1.769   5.139  18.315  0.00  0.00    +0.000 OA
ATOM      3  C   UNL     1       2.712   5.375  19.068  0.00  0.00    +0.000 C 
ATOM      4  N   UNL     1       2.964   6.608  19.642  0.00  0.00    +0.000 N 
ATOM      5  H   UNL     1       3.885   6.755  20.045  0.00  0.00    +0.000 HD
BRANCH   4   6
ATOM      6  C   UNL     1       2.106   7.736  19.607  0.00  0.00    +0.000 A 
ATOM      7  C   UNL     1       1.359   8.172  20.706  0.00  0.00    +0.000 A 
ATOM      8  C   UNL     1       0.577   9.330  20.629  0.00  0.00    +0.000 A 
ATOM      9  C   UNL     1       0.525  10.069  19.449  0.00  0.00    +0.000 A 
ATOM     10  C   UNL     1       1.257   9.643  18.342  0.00  0.00    +0.000 A 
ATOM     11  C   UNL     1       2.040   8.491  18.429  0.00  0.00    +0.000 A 
ATOM     12  F   UNL     1       2.736   8.102  17.348  0.00  0.00    +0.000 F 
ENDBRANCH   4   6
ENDBRANCH   1   3
BRANCH   1  13
ATOM     13  S   UNL     1       4.715   3.556  18.237  0.00  0.00    +0.000 S 
BRANCH  13  14
ATOM     14  C   UNL     1       5.959   4.772  18.319  0.00  0.00    +0.000 A 
ATOM     15  N   UNL     1       6.886   4.807  19.251  0.00  0.00    +0.000 NA
ATOM     16  C   UNL     1       7.606   5.946  19.020  0.00  0.00    +0.000 A 
ATOM     17  C   UNL     1       7.108   6.619  17.932  0.00  0.00    +0.000 A 
ATOM     18  N   UNL     1       6.074   5.838  17.464  0.00  0.00    +0.000 N 
BRANCH  18  19
ATOM     19  C   UNL     1       5.346   6.105  16.235  0.00  0.00    +0.000 C 
BRANCH  19  20
ATOM     20  C   UNL     1       5.806   5.273  15.096  0.00  0.00    +0.000 A 
ATOM     21  C   UNL     1       5.325   4.158  14.436  0.00  0.00    +0.000 A 
ATOM     22  C   UNL     1       6.291   3.823  13.455  0.00  0.00    +0.000 A 
ATOM     23  C   UNL     1       7.279   4.772  13.550  0.00  0.00    +0.000 A 
ATOM     24  O   UNL     1       6.993   5.656  14.538  0.00  0.00    +0.000 OA
ENDBRANCH  19  20
ENDBRANCH  18  19
ENDBRANCH  13  14
ENDBRANCH   1  13
TORSDOF 6
ENDMDL
MODEL 3
REMARK VINA RESULT:      -7.2      1.164      1.421
REMARK  Name = 
REMARK  6 active torsions:
REMARK  status: ('A' for Active; 'I' for Inactive)
REMARK    1  A    between atoms: C_2  and  C_3
REMARK    2  A    between atoms: C_3  and  S_4
REMARK    3  A    between atoms: S_4  and  C_5
REMARK    4  A    between atoms: N_9  and  C_10
REMARK    5  A    between atoms: C_10  and  C_11
REMARK    6  A    between atoms: N_16  and  C_17
REMARK                            x       y       z     vdW  Elec       q    Type
REMARK                         _______ _______ _______ _____ _____    ______ ____
ROOT
ATOM      1  C   UNL     1       6.654   5.434  18.548  0.00  0.00    +0.000 C 
ENDROOT
BRANCH   1   3
ATOM      2  O   UNL     1       8.107   4.206  17.128  0.00  0.00    +0.000 OA
ATOM      3  C   UNL     1       7.188   5.021  17.186  0.00  0.00    +0.000 C 
ATOM      4  N   UNL     1       6.514   5.517  16.085  0.00  0.00    +0.000 N 
ATOM      5  H   UNL     1       5.947   6.350  16.223  0.00  0.00    +0.000 HD
BRANCH   4   6
ATOM      6  C   UNL     1       6.639   5.056  14.751  0.00  0.00    +0.000 A 
ATOM      7  C   UNL     1       7.677   5.439  13.895  0.00  0.00    +0.000 A 
ATOM      8  C   UNL     1       7.781   4.902  12.607  0.00  0.00    +0.000 A 
ATOM      9  C   UNL     1       6.846   3.976  12.151  0.00  0.00    +0.000 A 
ATOM     10  C   UNL     1       5.800   3.590  12.988  0.00  0.00    +0.000 A 
ATOM     11  C   UNL     1       5.707   4.125  14.274  0.00  0.00    +0.000 A 
ATOM     12  F   UNL     1       4.690   3.737  15.061  0.00  0.00    +0.000 F 
ENDBRANCH   4   6
ENDBRANCH   1   3
BRANCH   1  13
ATOM     13  S   UNL     1       5.096   4.643  19.055  0.00  0.00    +0.000 S 
BRANCH  13  14
ATOM     14  C   UNL     1       4.011   5.945  18.656  0.00  0.00    +0.000 A 
ATOM     15  N   UNL     1       4.203   6.775  17.655  0.00  0.00    +0.000 NA
ATOM     16  C   UNL     1       3.191   7.692  17.730  0.00  0.00    +0.000 A 
ATOM     17  C   UNL     1       2.372   7.420  18.797  0.00  0.00    +0.000 A 
ATOM     18  N   UNL     1       2.882   6.273  19.364  0.00  0.00    +0.000 N 
BRANCH  18  19
ATOM     19  C   UNL     1       2.242   5.548  20.448  0.00  0.00    +0.000 C 
BRANCH  19  20
ATOM     20  C   UNL     1       1.838   4.172  20.067  0.00  0.00    +0.000 A 
ATOM     21  C   UNL     1       1.938   2.921  20.645  0.00  0.00    +0.000 A 
ATOM     22  C   UNL     1       1.394   2.002  19.715  0.00  0.00    +0.000 A 
ATOM     23  C   UNL     1       0.963   2.748  18.646  0.00  0.00    +0.000 A 
ATOM     24  O   UNL     1       1.223   4.064  18.850  0.00  0.00    +0.000 OA
ENDBRANCH  19  20
ENDBRANCH  18  19
ENDBRANCH  13  14
ENDBRANCH   1  13
TORSDOF 6
ENDMDL
MODEL 4
REMARK VINA RESULT:      -7.2      2.238      3.508
REMARK  Name = 
REMARK  6 active torsions:
REMARK  status: ('A' for Active; 'I' for Inactive)
REMARK    1  A    between atoms: C_2  and  C_3
REMARK    2  A    between atoms: C_3  and  S_4
REMARK    3  A    between atoms: S_4  and  C_5
REMARK    4  A    between atoms: N_9  and  C_10
REMARK    5  A    between atoms: C_10  and  C_11
REMARK    6  A    between atoms: N_16  and  C_17
REMARK                            x       y       z     vdW  Elec       q    Type
REMARK                         _______ _______ _______ _____ _____    ______ ____
ROOT
ATOM      1  C   UNL     1       6.305   6.199  17.590  0.00  0.00    +0.000 C 
ENDROOT
BRANCH   1   3
ATOM      2  O   UNL     1       7.678   4.535  16.600  0.00  0.00    +0.000 OA
ATOM      3  C   UNL     1       6.820   5.395  16.408  0.00  0.00    +0.000 C 
ATOM      4  N   UNL     1       6.194   5.615  15.195  0.00  0.00    +0.000 N 
ATOM      5  H   UNL     1       5.687   6.489  15.084  0.00  0.00    +0.000 HD
BRANCH   4   6
ATOM      6  C   UNL     1       6.297   4.799  14.040  0.00  0.00    +0.000 A 
ATOM      7  C   UNL     1       5.322   3.872  13.660  0.00  0.00    +0.000 A 
ATOM      8  C   UNL     1       5.452   3.138  12.475  0.00  0.00    +0.000 A 
ATOM      9  C   UNL     1       6.563   3.317  11.653  0.00  0.00    +0.000 A 
ATOM     10  C   UNL     1       7.548   4.231  12.022  0.00  0.00    +0.000 A 
ATOM     11  C   UNL     1       7.408   4.964  13.201  0.00  0.00    +0.000 A 
ATOM     12  F   UNL     1       8.371   5.838  13.535  0.00  0.00    +0.000 F 
ENDBRANCH   4   6
ENDBRANCH   1   3
BRANCH   1  13
ATOM     13  S   UNL     1       5.791   5.225  19.039  0.00  0.00    +0.000 S 
BRANCH  13  14
ATOM     14  C   UNL     1       4.258   4.663  18.435  0.00  0.00    +0.000 A 
ATOM     15  N   UNL     1       4.127   3.650  17.607  0.00  0.00    +0.000 NA
ATOM     16  C   UNL     1       2.795   3.583  17.306  0.00  0.00    +0.000 A 
ATOM     17  C   UNL     1       2.103   4.573  17.957  0.00  0.00    +0.000 A 
ATOM     18  N   UNL     1       3.044   5.239  18.710  0.00  0.00    +0.000 N 
BRANCH  18  19
ATOM     19  C   UNL     1       2.727   6.285  19.668  0.00  0.00    +0.000 C 
BRANCH  19  20
ATOM     20  C   UNL     1       2.329   7.561  19.023  0.00  0.00    +0.000 A 
ATOM     21  C   UNL     1       2.592   8.175  17.814  0.00  0.00    +0.000 A 
ATOM     22  C   UNL     1       1.937   9.431  17.849  0.00  0.00    +0.000 A 
ATOM     23  C   UNL     1       1.287   9.491  19.058  0.00  0.00    +0.000 A 
ATOM     24  O   UNL     1       1.515   8.362  19.774  0.00  0.00    +0.000 OA
ENDBRANCH  19  20
ENDBRANCH  18  19
ENDBRANCH  13  14
ENDBRANCH   1  13
TORSDOF 6
ENDMDL
MODEL 5
REMARK VINA RESULT:      -7.0      1.374      1.816
REMARK  Name = 
REMARK  6 active torsions:
REMARK  status: ('A' for Active; 'I' for Inactive)
REMARK    1  A    between atoms: C_2  and  C_3
REMARK    2  A    between atoms: C_3  and  S_4
REMARK    3  A    between atoms: S_4  and  C_5
REMARK    4  A    between atoms: N_9  and  C_10
REMARK    5  A    between atoms: C_10  and  C_11
REMARK    6  A    between atoms: N_16  and  C_17
REMARK                            x       y       z     vdW  Elec       q    Type
REMARK                         _______ _______ _______ _____ _____    ______ ____
ROOT
ATOM      1  C   UNL     1       6.674   5.679  18.170  0.00  0.00    +0.000 C 
ENDROOT
BRANCH   1   3
ATOM      2  O   UNL     1       8.015   4.199  16.887  0.00  0.00    +0.000 OA
ATOM      3  C   UNL     1       7.139   5.062  16.861  0.00  0.00    +0.000 C 
ATOM      4  N   UNL     1       6.451   5.443  15.723  0.00  0.00    +0.000 N 
ATOM      5  H   UNL     1       5.931   6.315  15.764  0.00  0.00    +0.000 HD
BRANCH   4   6
ATOM      6  C   UNL     1       6.507   4.803  14.459  0.00  0.00    +0.000 A 
ATOM      7  C   UNL     1       5.534   3.908  14.003  0.00  0.00    +0.000 A 
ATOM      8  C   UNL     1       5.612   3.354  12.720  0.00  0.00    +0.000 A 
ATOM      9  C   UNL     1       6.668   3.684  11.873  0.00  0.00    +0.000 A 
ATOM     10  C   UNL     1       7.651   4.568  12.315  0.00  0.00    +0.000 A 
ATOM     11  C   UNL     1       7.562   5.121  13.594  0.00  0.00    +0.000 A 
ATOM     12  F   UNL     1       8.521   5.970  13.997  0.00  0.00    +0.000 F 
ENDBRANCH   4   6
ENDBRANCH   1   3
BRANCH   1  13
ATOM     13  S   UNL     1       5.163   4.961  18.884  0.00  0.00    +0.000 S 
BRANCH  13  14
ATOM     14  C   UNL     1       4.043   6.209  18.413  0.00  0.00    +0.000 A 
ATOM     15  N   UNL     1       4.244   7.027  17.403  0.00  0.00    +0.000 NA
ATOM     16  C   UNL     1       3.194   7.903  17.417  0.00  0.00    +0.000 A 
ATOM     17  C   UNL     1       2.341   7.617  18.453  0.00  0.00    +0.000 A 
ATOM     18  N   UNL     1       2.873   6.504  19.065  0.00  0.00    +0.000 N 
BRANCH  18  19
ATOM     19  C   UNL     1       2.217   5.773  20.136  0.00  0.00    +0.000 C 
BRANCH  19  20
ATOM     20  C   UNL     1       1.788   4.411  19.732  0.00  0.00    +0.000 A 
ATOM     21  C   UNL     1       1.160   3.865  18.629  0.00  0.00    +0.000 A 
ATOM     22  C   UNL     1       0.991   2.486  18.904  0.00  0.00    +0.000 A 
ATOM     23  C   UNL     1       1.556   2.268  20.137  0.00  0.00    +0.000 A 
ATOM     24  O   UNL     1       2.045   3.427  20.645  0.00  0.00    +0.000 OA
ENDBRANCH  19  20
ENDBRANCH  18  19
ENDBRANCH  13  14
ENDBRANCH   1  13
TORSDOF 6
ENDMDL
MODEL 6
REMARK VINA RESULT:      -6.9      3.546      6.696
REMARK  Name = 
REMARK  6 active torsions:
REMARK  status: ('A' for Active; 'I' for Inactive)
REMARK    1  A    between atoms: C_2  and  C_3
REMARK    2  A    between atoms: C_3  and  S_4
REMARK    3  A    between atoms: S_4  and  C_5
REMARK    4  A    between atoms: N_9  and  C_10
REMARK    5  A    between atoms: C_10  and  C_11
REMARK    6  A    between atoms: N_16  and  C_17
REMARK                            x       y       z     vdW  Elec       q    Type
REMARK                         _______ _______ _______ _____ _____    ______ ____
ROOT
ATOM      1  C   UNL     1       2.485   4.022  21.605  0.00  0.00    +0.000 C 
ENDROOT
BRANCH   1   3
ATOM      2  O   UNL     1       0.719   4.852  20.254  0.00  0.00    +0.000 OA
ATOM      3  C   UNL     1       1.878   5.018  20.631  0.00  0.00    +0.000 C 
ATOM      4  N   UNL     1       2.650   6.121  20.318  0.00  0.00    +0.000 N 
ATOM      5  H   UNL     1       3.652   6.048  20.474  0.00  0.00    +0.000 HD
BRANCH   4   6
ATOM      6  C   UNL     1       2.199   7.302  19.677  0.00  0.00    +0.000 A 
ATOM      7  C   UNL     1       2.342   7.539  18.306  0.00  0.00    +0.000 A 
ATOM      8  C   UNL     1       1.821   8.699  17.719  0.00  0.00    +0.000 A 
ATOM      9  C   UNL     1       1.154   9.643  18.496  0.00  0.00    +0.000 A 
ATOM     10  C   UNL     1       1.011   9.426  19.865  0.00  0.00    +0.000 A 
ATOM     11  C   UNL     1       1.527   8.264  20.441  0.00  0.00    +0.000 A 
ATOM     12  F   UNL     1       1.377   8.079  21.763  0.00  0.00    +0.000 F 
ENDBRANCH   4   6
ENDBRANCH   1   3
BRANCH   1  13
ATOM     13  S   UNL     1       2.907   2.396  20.907  0.00  0.00    +0.000 S 
BRANCH  13  14
ATOM     14  C   UNL     1       2.976   2.851  19.228  0.00  0.00    +0.000 A 
ATOM     15  N   UNL     1       2.002   2.634  18.372  0.00  0.00    +0.000 NA
ATOM     16  C   UNL     1       2.472   3.051  17.158  0.00  0.00    +0.000 A 
ATOM     17  C   UNL     1       3.755   3.526  17.274  0.00  0.00    +0.000 A 
ATOM     18  N   UNL     1       4.057   3.430  18.614  0.00  0.00    +0.000 N 
BRANCH  18  19
ATOM     19  C   UNL     1       5.276   3.951  19.211  0.00  0.00    +0.000 C 
BRANCH  19  20
ATOM     20  C   UNL     1       5.977   4.928  18.341  0.00  0.00    +0.000 A 
ATOM     21  C   UNL     1       7.152   4.932  17.614  0.00  0.00    +0.000 A 
ATOM     22  C   UNL     1       7.267   6.222  17.041  0.00  0.00    +0.000 A 
ATOM     23  C   UNL     1       6.141   6.912  17.421  0.00  0.00    +0.000 A 
ATOM     24  O   UNL     1       5.352   6.136  18.206  0.00  0.00    +0.000 OA
ENDBRANCH  19  20
ENDBRANCH  18  19
ENDBRANCH  13  14
ENDBRANCH   1  13
TORSDOF 6
ENDMDL
MODEL 7
REMARK VINA RESULT:      -6.8      4.745      6.956
REMARK  Name = 
REMARK  6 active torsions:
REMARK  status: ('A' for Active; 'I' for Inactive)
REMARK    1  A    between atoms: C_2  and  C_3
REMARK    2  A    between atoms: C_3  and  S_4
REMARK    3  A    between atoms: S_4  and  C_5
REMARK    4  A    between atoms: N_9  and  C_10
REMARK    5  A    between atoms: C_10  and  C_11
REMARK    6  A    between atoms: N_16  and  C_17
REMARK                            x       y       z     vdW  Elec       q    Type
REMARK                         _______ _______ _______ _____ _____    ______ ____
ROOT
ATOM      1  C   UNL     1       8.011   7.750  17.940  0.00  0.00    +0.000 C 
ENDROOT
BRANCH   1   3
ATOM      2  O   UNL     1       7.778  10.082  17.558  0.00  0.00    +0.000 OA
ATOM      3  C   UNL     1       8.384   9.205  18.173  0.00  0.00    +0.000 C 
ATOM      4  N   UNL     1       9.321   9.449  19.160  0.00  0.00    +0.000 N 
ATOM      5  H   UNL     1       9.926   8.679  19.429  0.00  0.00    +0.000 HD
BRANCH   4   6
ATOM      6  C   UNL     1       9.610  10.708  19.746  0.00  0.00    +0.000 A 
ATOM      7  C   UNL     1       9.141  11.100  21.003  0.00  0.00    +0.000 A 
ATOM      8  C   UNL     1       9.511  12.333  21.555  0.00  0.00    +0.000 A 
ATOM      9  C   UNL     1      10.352  13.195  20.855  0.00  0.00    +0.000 A 
ATOM     10  C   UNL     1      10.821  12.822  19.596  0.00  0.00    +0.000 A 
ATOM     11  C   UNL     1      10.453  11.589  19.056  0.00  0.00    +0.000 A 
ATOM     12  F   UNL     1      10.917  11.254  17.841  0.00  0.00    +0.000 F 
ENDBRANCH   4   6
ENDBRANCH   1   3
BRANCH   1  13
ATOM     13  S   UNL     1       6.270   7.445  17.507  0.00  0.00    +0.000 S 
BRANCH  13  14
ATOM     14  C   UNL     1       6.484   5.953  16.636  0.00  0.00    +0.000 A 
ATOM     15  N   UNL     1       7.146   5.857  15.503  0.00  0.00    +0.000 NA
ATOM     16  C   UNL     1       7.012   4.557  15.101  0.00  0.00    +0.000 A 
ATOM     17  C   UNL     1       6.253   3.850  16.000  0.00  0.00    +0.000 A 
ATOM     18  N   UNL     1       5.951   4.744  17.003  0.00  0.00    +0.000 N 
BRANCH  18  19
ATOM     19  C   UNL     1       5.270   4.383  18.235  0.00  0.00    +0.000 C 
BRANCH  19  20
ATOM     20  C   UNL     1       3.821   4.125  18.044  0.00  0.00    +0.000 A 
ATOM     21  C   UNL     1       2.691   4.909  17.922  0.00  0.00    +0.000 A 
ATOM     22  C   UNL     1       1.593   4.020  17.818  0.00  0.00    +0.000 A 
ATOM     23  C   UNL     1       2.122   2.753  17.847  0.00  0.00    +0.000 A 
ATOM     24  O   UNL     1       3.471   2.806  17.979  0.00  0.00    +0.000 OA
ENDBRANCH  19  20
ENDBRANCH  18  19
ENDBRANCH  13  14
ENDBRANCH   1  13
TORSDOF 6
ENDMDL
MODEL 8
REMARK VINA RESULT:      -6.7      4.835      7.185
REMARK  Name = 
REMARK  6 active torsions:
REMARK  status: ('A' for Active; 'I' for Inactive)
REMARK    1  A    between atoms: C_2  and  C_3
REMARK    2  A    between atoms: C_3  and  S_4
REMARK    3  A    between atoms: S_4  and  C_5
REMARK    4  A    between atoms: N_9  and  C_10
REMARK    5  A    between atoms: C_10  and  C_11
REMARK    6  A    between atoms: N_16  and  C_17
REMARK                            x       y       z     vdW  Elec       q    Type
REMARK                         _______ _______ _______ _____ _____    ______ ____
ROOT
ATOM      1  C   UNL     1       3.270   8.176  18.047  0.00  0.00    +0.000 C 
ENDROOT
BRANCH   1   3
ATOM      2  O   UNL     1       4.416   6.100  17.924  0.00  0.00    +0.000 OA
ATOM      3  C   UNL     1       3.322   6.657  18.009  0.00  0.00    +0.000 C 
ATOM      4  N   UNL     1       2.121   5.996  18.189  0.00  0.00    +0.000 N 
ATOM      5  H   UNL     1       1.270   6.519  18.007  0.00  0.00    +0.000 HD
BRANCH   4   6
ATOM      6  C   UNL     1       1.961   4.617  18.476  0.00  0.00    +0.000 A 
ATOM      7  C   UNL     1       2.305   3.597  17.583  0.00  0.00    +0.000 A 
ATOM      8  C   UNL     1       2.181   2.251  17.947  0.00  0.00    +0.000 A 
ATOM      9  C   UNL     1       1.706   1.903  19.209  0.00  0.00    +0.000 A 
ATOM     10  C   UNL     1       1.350   2.907  20.108  0.00  0.00    +0.000 A 
ATOM     11  C   UNL     1       1.483   4.247  19.740  0.00  0.00    +0.000 A 
ATOM     12  F   UNL     1       1.134   5.196  20.623  0.00  0.00    +0.000 F 
ENDBRANCH   4   6
ENDBRANCH   1   3
BRANCH   1  13
ATOM     13  S   UNL     1       1.640   8.915  17.722  0.00  0.00    +0.000 S 
BRANCH  13  14
ATOM     14  C   UNL     1       1.141   9.162  19.371  0.00  0.00    +0.000 A 
ATOM     15  N   UNL     1       1.526   8.402  20.372  0.00  0.00    +0.000 NA
ATOM     16  C   UNL     1       0.856   8.863  21.472  0.00  0.00    +0.000 A 
ATOM     17  C   UNL     1       0.047   9.920  21.135  0.00  0.00    +0.000 A 
ATOM     18  N   UNL     1       0.265  10.130  19.792  0.00  0.00    +0.000 N 
BRANCH  18  19
ATOM     19  C   UNL     1      -0.291  11.245  19.043  0.00  0.00    +0.000 C 
BRANCH  19  20
ATOM     20  C   UNL     1      -1.585  10.921  18.394  0.00  0.00    +0.000 A 
ATOM     21  C   UNL     1      -2.008  10.010  17.446  0.00  0.00    +0.000 A 
ATOM     22  C   UNL     1      -3.383  10.268  17.224  0.00  0.00    +0.000 A 
ATOM     23  C   UNL     1      -3.723  11.293  18.073  0.00  0.00    +0.000 A 
ATOM     24  O   UNL     1      -2.642  11.693  18.788  0.00  0.00    +0.000 OA
ENDBRANCH  19  20
ENDBRANCH  18  19
ENDBRANCH  13  14
ENDBRANCH   1  13
TORSDOF 6
ENDMDL
MODEL 9
REMARK VINA RESULT:      -6.7      2.010      6.989
REMARK  Name = 
REMARK  6 active torsions:
REMARK  status: ('A' for Active; 'I' for Inactive)
REMARK    1  A    between atoms: C_2  and  C_3
REMARK    2  A    between atoms: C_3  and  S_4
REMARK    3  A    between atoms: S_4  and  C_5
REMARK    4  A    between atoms: N_9  and  C_10
REMARK    5  A    between atoms: C_10  and  C_11
REMARK    6  A    between atoms: N_16  and  C_17
REMARK                            x       y       z     vdW  Elec       q    Type
REMARK                         _______ _______ _______ _____ _____    ______ ____
ROOT
ATOM      1  C   UNL     1       3.747   7.203  17.553  0.00  0.00    +0.000 C 
ENDROOT
BRANCH   1   3
ATOM      2  O   UNL     1       2.808   5.038  17.297  0.00  0.00    +0.000 OA
ATOM      3  C   UNL     1       3.119   5.927  18.089  0.00  0.00    +0.000 C 
ATOM      4  N   UNL     1       3.043   5.809  19.464  0.00  0.00    +0.000 N 
ATOM      5  H   UNL     1       3.092   6.666  20.009  0.00  0.00    +0.000 HD
BRANCH   4   6
ATOM      6  C   UNL     1       2.771   4.621  20.188  0.00  0.00    +0.000 A 
ATOM      7  C   UNL     1       1.561   4.377  20.846  0.00  0.00    +0.000 A 
ATOM      8  C   UNL     1       1.328   3.158  21.493  0.00  0.00    +0.000 A 
ATOM      9  C   UNL     1       2.305   2.164  21.496  0.00  0.00    +0.000 A 
ATOM     10  C   UNL     1       3.519   2.394  20.852  0.00  0.00    +0.000 A 
ATOM     11  C   UNL     1       3.741   3.610  20.203  0.00  0.00    +0.000 A 
ATOM     12  F   UNL     1       4.919   3.808  19.591  0.00  0.00    +0.000 F 
ENDBRANCH   4   6
ENDBRANCH   1   3
BRANCH   1  13
ATOM     13  S   UNL     1       4.929   6.985  16.187  0.00  0.00    +0.000 S 
BRANCH  13  14
ATOM     14  C   UNL     1       6.130   6.054  17.038  0.00  0.00    +0.000 A 
ATOM     15  N   UNL     1       6.790   6.498  18.085  0.00  0.00    +0.000 NA
ATOM     16  C   UNL     1       7.689   5.518  18.402  0.00  0.00    +0.000 A 
ATOM     17  C   UNL     1       7.579   4.462  17.532  0.00  0.00    +0.000 A 
ATOM     18  N   UNL     1       6.549   4.797  16.683  0.00  0.00    +0.000 N 
BRANCH  18  19
ATOM     19  C   UNL     1       5.997   3.901  15.680  0.00  0.00    +0.000 C 
BRANCH  19  20
ATOM     20  C   UNL     1       6.536   4.151  14.320  0.00  0.00    +0.000 A 
ATOM     21  C   UNL     1       7.452   5.027  13.770  0.00  0.00    +0.000 A 
ATOM     22  C   UNL     1       7.464   4.776  12.376  0.00  0.00    +0.000 A 
ATOM     23  C   UNL     1       6.586   3.740  12.166  0.00  0.00    +0.000 A 
ATOM     24  O   UNL     1       6.022   3.353  13.336  0.00  0.00    +0.000 OA
ENDBRANCH  19  20
ENDBRANCH  18  19
ENDBRANCH  13  14
ENDBRANCH   1  13
TORSDOF 6
ENDMDL
