MODEL 1
REMARK VINA RESULT:      -8.9      0.000      0.000
REMARK  Name = 
REMARK  3 active torsions:
REMARK  status: ('A' for Active; 'I' for Inactive)
REMARK    1  A    between atoms: C_2  and  C_3
REMARK    2  A    between atoms: C_6  and  N_7
REMARK    3  A    between atoms: C_9  and  C_10
REMARK                            x       y       z     vdW  Elec       q    Type
REMARK                         _______ _______ _______ _____ _____    ______ ____
ROOT
ATOM      1  C   UNL     1       1.109   9.657  19.204  0.00  0.00    +0.000 A 
ATOM      2  C   UNL     1       1.312   8.672  20.184  0.00  0.00    +0.000 A 
ATOM      3  C   UNL     1       2.057   7.520  19.892  0.00  0.00    +0.000 A 
ATOM      4  C   UNL     1       2.589   7.326  18.610  0.00  0.00    +0.000 A 
ATOM      5  C   UNL     1       2.411   8.324  17.646  0.00  0.00    +0.000 A 
ATOM      6  C   UNL     1       1.728   9.500  17.964  0.00  0.00    +0.000 A 
ENDROOT
BRANCH   4   7
ATOM      7  N   UNL     1       3.303   6.149  18.241  0.00  0.00    +0.000 N 
ATOM      8  N   UNL     1       4.616   6.244  17.877  0.00  0.00    +0.000 NA
ATOM      9  C   UNL     1       4.988   5.007  17.490  0.00  0.00    +0.000 A 
ATOM     10  C   UNL     1       3.935   4.093  17.698  0.00  0.00    +0.000 A 
ATOM     11  C   UNL     1       2.886   4.840  18.185  0.00  0.00    +0.000 A 
ATOM     12  C   UNL     1       1.593   4.227  18.594  0.00  0.00    +0.000 C 
ATOM     13  C   UNL     1       1.774   2.697  18.703  0.00  0.00    +0.000 C 
ATOM     14  O   UNL     1       2.489   2.159  17.573  0.00  0.00    +0.000 OA
ATOM     15  C   UNL     1       3.856   2.620  17.523  0.00  0.00    +0.000 C 
BRANCH   9  16
ATOM     16  C   UNL     1       6.357   4.673  16.958  0.00  0.00    +0.000 C 
ATOM     17  F   UNL     1       6.358   3.738  15.974  0.00  0.00    +0.000 F 
ATOM     18  F   UNL     1       6.974   5.778  16.455  0.00  0.00    +0.000 F 
ATOM     19  F   UNL     1       7.172   4.204  17.944  0.00  0.00    +0.000 F 
ENDBRANCH   9  16
ENDBRANCH   4   7
BRANCH   1  21
ATOM     20  O   UNL     1       0.640  11.580  20.453  0.00  0.00    +0.000 OA
ATOM     21  C   UNL     1       0.280  10.855  19.528  0.00  0.00    +0.000 C 
ATOM     22  N   UNL     1      -0.873  11.094  18.781  0.00  0.00    +0.000 N 
ATOM     23  C   UNL     1      -1.673  12.289  19.010  0.00  0.00    +0.000 C 
ATOM     24  C   UNL     1      -3.106  11.829  18.786  0.00  0.00    +0.000 C 
ATOM     25  C   UNL     1      -2.966  10.777  17.699  0.00  0.00    +0.000 C 
ATOM     26  C   UNL     1      -1.627  10.121  18.000  0.00  0.00    +0.000 C 
ENDBRANCH   1  21
TORSDOF 3
ENDMDL
MODEL 2
REMARK VINA RESULT:      -8.6      0.812      1.102
REMARK  Name = 
REMARK  3 active torsions:
REMARK  status: ('A' for Active; 'I' for Inactive)
REMARK    1  A    between atoms: C_2  and  C_3
REMARK    2  A    between atoms: C_6  and  N_7
REMARK    3  A    between atoms: C_9  and  C_10
REMARK                            x       y       z     vdW  Elec       q    Type
REMARK                         _______ _______ _______ _____ _____    ______ ____
ROOT
ATOM      1  C   UNL     1       1.046   9.686  19.816  0.00  0.00    +0.000 A 
ATOM      2  C   UNL     1       1.308   8.602  20.668  0.00  0.00    +0.000 A 
ATOM      3  C   UNL     1       1.949   7.453  20.181  0.00  0.00    +0.000 A 
ATOM      4  C   UNL     1       2.316   7.363  18.832  0.00  0.00    +0.000 A 
ATOM      5  C   UNL     1       2.081   8.458  17.993  0.00  0.00    +0.000 A 
ATOM      6  C   UNL     1       1.504   9.625  18.499  0.00  0.00    +0.000 A 
ENDROOT
BRANCH   4   7
ATOM      7  N   UNL     1       2.916   6.199  18.271  0.00  0.00    +0.000 N 
ATOM      8  N   UNL     1       4.033   6.324  17.494  0.00  0.00    +0.000 NA
ATOM      9  C   UNL     1       4.307   5.088  17.030  0.00  0.00    +0.000 A 
ATOM     10  C   UNL     1       3.418   4.148  17.589  0.00  0.00    +0.000 A 
ATOM     11  C   UNL     1       2.558   4.876  18.380  0.00  0.00    +0.000 A 
ATOM     12  C   UNL     1       1.496   4.236  19.203  0.00  0.00    +0.000 C 
ATOM     13  C   UNL     1       1.765   2.716  19.275  0.00  0.00    +0.000 C 
ATOM     14  O   UNL     1       2.090   2.166  17.983  0.00  0.00    +0.000 OA
ATOM     15  C   UNL     1       3.346   2.669  17.478  0.00  0.00    +0.000 C 
BRANCH   9  16
ATOM     16  C   UNL     1       5.438   4.782  16.083  0.00  0.00    +0.000 C 
ATOM     17  F   UNL     1       6.402   3.984  16.608  0.00  0.00    +0.000 F 
ATOM     18  F   UNL     1       4.984   4.166  14.956  0.00  0.00    +0.000 F 
ATOM     19  F   UNL     1       6.058   5.921  15.665  0.00  0.00    +0.000 F 
ENDBRANCH   9  16
ENDBRANCH   4   7
BRANCH   1  21
ATOM     20  O   UNL     1       0.721  11.376  21.401  0.00  0.00    +0.000 OA
ATOM     21  C   UNL     1       0.326  10.881  20.348  0.00  0.00    +0.000 C 
ATOM     22  N   UNL     1      -0.768  11.375  19.639  0.00  0.00    +0.000 N 
ATOM     23  C   UNL     1      -1.454  12.582  20.079  0.00  0.00    +0.000 C 
ATOM     24  C   UNL     1      -2.917  12.324  19.744  0.00  0.00    +0.000 C 
ATOM     25  C   UNL     1      -2.840  11.488  18.478  0.00  0.00    +0.000 C 
ATOM     26  C   UNL     1      -1.584  10.651  18.672  0.00  0.00    +0.000 C 
ENDBRANCH   1  21
TORSDOF 3
ENDMDL
MODEL 3
REMARK VINA RESULT:      -8.6      0.452      1.053
REMARK  Name = 
REMARK  3 active torsions:
REMARK  status: ('A' for Active; 'I' for Inactive)
REMARK    1  A    between atoms: C_2  and  C_3
REMARK    2  A    between atoms: C_6  and  N_7
REMARK    3  A    between atoms: C_9  and  C_10
REMARK                            x       y       z     vdW  Elec       q    Type
REMARK                         _______ _______ _______ _____ _____    ______ ____
ROOT
ATOM      1  C   UNL     1       1.171   9.582  19.652  0.00  0.00    +0.000 A 
ATOM      2  C   UNL     1       1.596   9.504  18.317  0.00  0.00    +0.000 A 
ATOM      3  C   UNL     1       2.254   8.357  17.846  0.00  0.00    +0.000 A 
ATOM      4  C   UNL     1       2.516   7.285  18.709  0.00  0.00    +0.000 A 
ATOM      5  C   UNL     1       2.063   7.356  20.031  0.00  0.00    +0.000 A 
ATOM      6  C   UNL     1       1.348   8.470  20.475  0.00  0.00    +0.000 A 
ENDROOT
BRANCH   4   7
ATOM      7  N   UNL     1       3.232   6.123  18.300  0.00  0.00    +0.000 N 
ATOM      8  N   UNL     1       4.543   6.235  17.933  0.00  0.00    +0.000 NA
ATOM      9  C   UNL     1       4.918   5.012  17.506  0.00  0.00    +0.000 A 
ATOM     10  C   UNL     1       3.869   4.087  17.691  0.00  0.00    +0.000 A 
ATOM     11  C   UNL     1       2.820   4.815  18.206  0.00  0.00    +0.000 A 
ATOM     12  C   UNL     1       1.532   4.185  18.602  0.00  0.00    +0.000 C 
ATOM     13  C   UNL     1       1.719   2.653  18.663  0.00  0.00    +0.000 C 
ATOM     14  O   UNL     1       2.430   2.153  17.513  0.00  0.00    +0.000 OA
ATOM     15  C   UNL     1       3.795   2.621  17.470  0.00  0.00    +0.000 C 
BRANCH   9  16
ATOM     16  C   UNL     1       6.285   4.699  16.957  0.00  0.00    +0.000 C 
ATOM     17  F   UNL     1       6.285   3.799  15.941  0.00  0.00    +0.000 F 
ATOM     18  F   UNL     1       6.897   5.822  16.489  0.00  0.00    +0.000 F 
ATOM     19  F   UNL     1       7.106   4.199  17.923  0.00  0.00    +0.000 F 
ENDBRANCH   9  16
ENDBRANCH   4   7
BRANCH   1  21
ATOM     20  O   UNL     1       0.977  11.389  21.127  0.00  0.00    +0.000 OA
ATOM     21  C   UNL     1       0.508  10.829  20.139  0.00  0.00    +0.000 C 
ATOM     22  N   UNL     1      -0.620  11.295  19.464  0.00  0.00    +0.000 N 
ATOM     23  C   UNL     1      -1.256  12.545  19.856  0.00  0.00    +0.000 C 
ATOM     24  C   UNL     1      -2.740  12.297  19.631  0.00  0.00    +0.000 C 
ATOM     25  C   UNL     1      -2.758  11.371  18.427  0.00  0.00    +0.000 C 
ATOM     26  C   UNL     1      -1.508  10.522  18.604  0.00  0.00    +0.000 C 
ENDBRANCH   1  21
TORSDOF 3
ENDMDL
MODEL 4
REMARK VINA RESULT:      -8.6      2.161      2.877
REMARK  Name = 
REMARK  3 active torsions:
REMARK  status: ('A' for Active; 'I' for Inactive)
REMARK    1  A    between atoms: C_2  and  C_3
REMARK    2  A    between atoms: C_6  and  N_7
REMARK    3  A    between atoms: C_9  and  C_10
REMARK                            x       y       z     vdW  Elec       q    Type
REMARK                         _______ _______ _______ _____ _____    ______ ____
ROOT
ATOM      1  C   UNL     1       1.129   9.687  19.751  0.00  0.00    +0.000 A 
ATOM      2  C   UNL     1       1.317   8.631  20.656  0.00  0.00    +0.000 A 
ATOM      3  C   UNL     1       1.883   7.420  20.228  0.00  0.00    +0.000 A 
ATOM      4  C   UNL     1       2.247   7.242  18.887  0.00  0.00    +0.000 A 
ATOM      5  C   UNL     1       2.086   8.308  17.995  0.00  0.00    +0.000 A 
ATOM      6  C   UNL     1       1.586   9.534  18.442  0.00  0.00    +0.000 A 
ENDROOT
BRANCH   4   7
ATOM      7  N   UNL     1       2.770   6.015  18.386  0.00  0.00    +0.000 N 
ATOM      8  N   UNL     1       2.164   4.837  18.722  0.00  0.00    +0.000 NA
ATOM      9  C   UNL     1       2.928   3.859  18.194  0.00  0.00    +0.000 A 
ATOM     10  C   UNL     1       3.978   4.415  17.434  0.00  0.00    +0.000 A 
ATOM     11  C   UNL     1       3.846   5.779  17.563  0.00  0.00    +0.000 A 
ATOM     12  C   UNL     1       4.736   6.737  16.851  0.00  0.00    +0.000 C 
ATOM     13  C   UNL     1       5.520   5.977  15.758  0.00  0.00    +0.000 C 
ATOM     14  O   UNL     1       6.061   4.736  16.251  0.00  0.00    +0.000 OA
ATOM     15  C   UNL     1       5.028   3.787  16.593  0.00  0.00    +0.000 C 
BRANCH   9  16
ATOM     16  C   UNL     1       2.648   2.390  18.372  0.00  0.00    +0.000 C 
ATOM     17  F   UNL     1       2.362   1.734  17.219  0.00  0.00    +0.000 F 
ATOM     18  F   UNL     1       3.708   1.751  18.939  0.00  0.00    +0.000 F 
ATOM     19  F   UNL     1       1.593   2.184  19.211  0.00  0.00    +0.000 F 
ENDBRANCH   9  16
ENDBRANCH   4   7
BRANCH   1  21
ATOM     20  O   UNL     1       0.982  11.528  21.188  0.00  0.00    +0.000 OA
ATOM     21  C   UNL     1       0.488  10.951  20.222  0.00  0.00    +0.000 C 
ATOM     22  N   UNL     1      -0.647  11.415  19.558  0.00  0.00    +0.000 N 
ATOM     23  C   UNL     1      -1.261  12.680  19.933  0.00  0.00    +0.000 C 
ATOM     24  C   UNL     1      -2.752  12.444  19.741  0.00  0.00    +0.000 C 
ATOM     25  C   UNL     1      -2.803  11.491  18.559  0.00  0.00    +0.000 C 
ATOM     26  C   UNL     1      -1.558  10.632  18.732  0.00  0.00    +0.000 C 
ENDBRANCH   1  21
TORSDOF 3
ENDMDL
MODEL 5
REMARK VINA RESULT:      -8.5      2.181      3.100
REMARK  Name = 
REMARK  3 active torsions:
REMARK  status: ('A' for Active; 'I' for Inactive)
REMARK    1  A    between atoms: C_2  and  C_3
REMARK    2  A    between atoms: C_6  and  N_7
REMARK    3  A    between atoms: C_9  and  C_10
REMARK                            x       y       z     vdW  Elec       q    Type
REMARK                         _______ _______ _______ _____ _____    ______ ____
ROOT
ATOM      1  C   UNL     1       1.183   9.673  19.784  0.00  0.00    +0.000 A 
ATOM      2  C   UNL     1       1.503   9.549  18.423  0.00  0.00    +0.000 A 
ATOM      3  C   UNL     1       2.005   8.340  17.917  0.00  0.00    +0.000 A 
ATOM      4  C   UNL     1       2.216   7.248  18.769  0.00  0.00    +0.000 A 
ATOM      5  C   UNL     1       1.866   7.367  20.119  0.00  0.00    +0.000 A 
ATOM      6  C   UNL     1       1.303   8.550  20.602  0.00  0.00    +0.000 A 
ENDROOT
BRANCH   4   7
ATOM      7  N   UNL     1       2.778   6.018  18.322  0.00  0.00    +0.000 N 
ATOM      8  N   UNL     1       2.199   4.837  18.695  0.00  0.00    +0.000 NA
ATOM      9  C   UNL     1       2.995   3.861  18.215  0.00  0.00    +0.000 A 
ATOM     10  C   UNL     1       4.040   4.416  17.447  0.00  0.00    +0.000 A 
ATOM     11  C   UNL     1       3.870   5.780  17.522  0.00  0.00    +0.000 A 
ATOM     12  C   UNL     1       4.743   6.733  16.785  0.00  0.00    +0.000 C 
ATOM     13  C   UNL     1       5.562   5.954  15.731  0.00  0.00    +0.000 C 
ATOM     14  O   UNL     1       6.129   4.747  16.278  0.00  0.00    +0.000 OA
ATOM     15  C   UNL     1       5.117   3.785  16.643  0.00  0.00    +0.000 C 
BRANCH   9  16
ATOM     16  C   UNL     1       2.751   2.393  18.446  0.00  0.00    +0.000 C 
ATOM     17  F   UNL     1       3.819   1.724  18.953  0.00  0.00    +0.000 F 
ATOM     18  F   UNL     1       1.715   2.194  19.307  0.00  0.00    +0.000 F 
ATOM     19  F   UNL     1       2.406   1.759  17.290  0.00  0.00    +0.000 F 
ENDBRANCH   9  16
ENDBRANCH   4   7
BRANCH   1  21
ATOM     20  O   UNL     1       1.301  11.510  21.229  0.00  0.00    +0.000 OA
ATOM     21  C   UNL     1       0.688  10.982  20.305  0.00  0.00    +0.000 C 
ATOM     22  N   UNL     1      -0.454  11.542  19.733  0.00  0.00    +0.000 N 
ATOM     23  C   UNL     1      -0.932  12.850  20.157  0.00  0.00    +0.000 C 
ATOM     24  C   UNL     1      -2.448  12.737  20.084  0.00  0.00    +0.000 C 
ATOM     25  C   UNL     1      -2.669  11.800  18.908  0.00  0.00    +0.000 C 
ATOM     26  C   UNL     1      -1.490  10.842  18.982  0.00  0.00    +0.000 C 
ENDBRANCH   1  21
TORSDOF 3
ENDMDL
MODEL 6
REMARK VINA RESULT:      -8.4      1.280      1.983
REMARK  Name = 
REMARK  3 active torsions:
REMARK  status: ('A' for Active; 'I' for Inactive)
REMARK    1  A    between atoms: C_2  and  C_3
REMARK    2  A    between atoms: C_6  and  N_7
REMARK    3  A    between atoms: C_9  and  C_10
REMARK                            x       y       z     vdW  Elec       q    Type
REMARK                         _______ _______ _______ _____ _____    ______ ____
ROOT
ATOM      1  C   UNL     1       0.933   9.643  19.161  0.00  0.00    +0.000 A 
ATOM      2  C   UNL     1       1.262   8.744  20.187  0.00  0.00    +0.000 A 
ATOM      3  C   UNL     1       2.046   7.612  19.916  0.00  0.00    +0.000 A 
ATOM      4  C   UNL     1       2.490   7.352  18.613  0.00  0.00    +0.000 A 
ATOM      5  C   UNL     1       2.184   8.267  17.599  0.00  0.00    +0.000 A 
ATOM      6  C   UNL     1       1.463   9.428  17.889  0.00  0.00    +0.000 A 
ENDROOT
BRANCH   4   7
ATOM      7  N   UNL     1       3.237   6.188  18.270  0.00  0.00    +0.000 N 
ATOM      8  N   UNL     1       4.557   6.309  17.939  0.00  0.00    +0.000 NA
ATOM      9  C   UNL     1       4.964   5.078  17.570  0.00  0.00    +0.000 A 
ATOM     10  C   UNL     1       3.926   4.142  17.757  0.00  0.00    +0.000 A 
ATOM     11  C   UNL     1       2.850   4.870  18.213  0.00  0.00    +0.000 A 
ATOM     12  C   UNL     1       1.560   4.233  18.594  0.00  0.00    +0.000 C 
ATOM     13  C   UNL     1       1.771   2.708  18.718  0.00  0.00    +0.000 C 
ATOM     14  O   UNL     1       2.525   2.178  17.609  0.00  0.00    +0.000 OA
ATOM     15  C   UNL     1       3.883   2.667  17.591  0.00  0.00    +0.000 C 
BRANCH   9  16
ATOM     16  C   UNL     1       6.353   4.769  17.074  0.00  0.00    +0.000 C 
ATOM     17  F   UNL     1       7.168   4.218  18.010  0.00  0.00    +0.000 F 
ATOM     18  F   UNL     1       6.321   3.907  16.021  0.00  0.00    +0.000 F 
ATOM     19  F   UNL     1       6.979   5.892  16.622  0.00  0.00    +0.000 F 
ENDBRANCH   9  16
ENDBRANCH   4   7
BRANCH   1  21
ATOM     20  O   UNL     1      -1.142  10.633  19.602  0.00  0.00    +0.000 OA
ATOM     21  C   UNL     1       0.065  10.820  19.467  0.00  0.00    +0.000 C 
ATOM     22  N   UNL     1       0.655  12.079  19.572  0.00  0.00    +0.000 N 
ATOM     23  C   UNL     1      -0.137  13.242  19.942  0.00  0.00    +0.000 C 
ATOM     24  C   UNL     1       0.472  14.382  19.138  0.00  0.00    +0.000 C 
ATOM     25  C   UNL     1       1.945  14.014  19.078  0.00  0.00    +0.000 C 
ATOM     26  C   UNL     1       1.937  12.493  19.013  0.00  0.00    +0.000 C 
ENDBRANCH   1  21
TORSDOF 3
ENDMDL
MODEL 7
REMARK VINA RESULT:      -8.4      1.389      2.040
REMARK  Name = 
REMARK  3 active torsions:
REMARK  status: ('A' for Active; 'I' for Inactive)
REMARK    1  A    between atoms: C_2  and  C_3
REMARK    2  A    between atoms: C_6  and  N_7
REMARK    3  A    between atoms: C_9  and  C_10
REMARK                            x       y       z     vdW  Elec       q    Type
REMARK                         _______ _______ _______ _____ _____    ______ ____
ROOT
ATOM      1  C   UNL     1       1.072   9.613  19.366  0.00  0.00    +0.000 A 
ATOM      2  C   UNL     1       1.424   9.428  18.020  0.00  0.00    +0.000 A 
ATOM      3  C   UNL     1       2.114   8.274  17.618  0.00  0.00    +0.000 A 
ATOM      4  C   UNL     1       2.481   7.303  18.559  0.00  0.00    +0.000 A 
ATOM      5  C   UNL     1       2.100   7.477  19.894  0.00  0.00    +0.000 A 
ATOM      6  C   UNL     1       1.353   8.594  20.276  0.00  0.00    +0.000 A 
ENDROOT
BRANCH   4   7
ATOM      7  N   UNL     1       3.232   6.142  18.217  0.00  0.00    +0.000 N 
ATOM      8  N   UNL     1       4.552   6.268  17.884  0.00  0.00    +0.000 NA
ATOM      9  C   UNL     1       4.964   5.038  17.516  0.00  0.00    +0.000 A 
ATOM     10  C   UNL     1       3.930   4.098  17.705  0.00  0.00    +0.000 A 
ATOM     11  C   UNL     1       2.851   4.822  18.160  0.00  0.00    +0.000 A 
ATOM     12  C   UNL     1       1.564   4.180  18.542  0.00  0.00    +0.000 C 
ATOM     13  C   UNL     1       1.780   2.655  18.666  0.00  0.00    +0.000 C 
ATOM     14  O   UNL     1       2.536   2.128  17.558  0.00  0.00    +0.000 OA
ATOM     15  C   UNL     1       3.893   2.623  17.539  0.00  0.00    +0.000 C 
BRANCH   9  16
ATOM     16  C   UNL     1       6.354   4.734  17.020  0.00  0.00    +0.000 C 
ATOM     17  F   UNL     1       6.396   3.861  15.983  0.00  0.00    +0.000 F 
ATOM     18  F   UNL     1       6.990   5.867  16.610  0.00  0.00    +0.000 F 
ATOM     19  F   UNL     1       7.129   4.206  18.009  0.00  0.00    +0.000 F 
ENDBRANCH   9  16
ENDBRANCH   4   7
BRANCH   1  21
ATOM     20  O   UNL     1       0.524  11.871  19.081  0.00  0.00    +0.000 OA
ATOM     21  C   UNL     1       0.373  10.868  19.775  0.00  0.00    +0.000 C 
ATOM     22  N   UNL     1      -0.408  10.854  20.930  0.00  0.00    +0.000 N 
ATOM     23  C   UNL     1      -1.168  12.030  21.328  0.00  0.00    +0.000 C 
ATOM     24  C   UNL     1      -1.108  12.019  22.848  0.00  0.00    +0.000 C 
ATOM     25  C   UNL     1      -1.098  10.537  23.183  0.00  0.00    +0.000 C 
ATOM     26  C   UNL     1      -0.313   9.912  22.039  0.00  0.00    +0.000 C 
ENDBRANCH   1  21
TORSDOF 3
ENDMDL
MODEL 8
REMARK VINA RESULT:      -8.3      0.934      1.529
REMARK  Name = 
REMARK  3 active torsions:
REMARK  status: ('A' for Active; 'I' for Inactive)
REMARK    1  A    between atoms: C_2  and  C_3
REMARK    2  A    between atoms: C_6  and  N_7
REMARK    3  A    between atoms: C_9  and  C_10
REMARK                            x       y       z     vdW  Elec       q    Type
REMARK                         _______ _______ _______ _____ _____    ______ ____
ROOT
ATOM      1  C   UNL     1       0.884   9.689  19.258  0.00  0.00    +0.000 A 
ATOM      2  C   UNL     1       1.404   9.381  17.992  0.00  0.00    +0.000 A 
ATOM      3  C   UNL     1       2.185   8.230  17.804  0.00  0.00    +0.000 A 
ATOM      4  C   UNL     1       2.475   7.386  18.884  0.00  0.00    +0.000 A 
ATOM      5  C   UNL     1       1.928   7.680  20.138  0.00  0.00    +0.000 A 
ATOM      6  C   UNL     1       1.095   8.789  20.303  0.00  0.00    +0.000 A 
ENDROOT
BRANCH   4   7
ATOM      7  N   UNL     1       3.310   6.238  18.764  0.00  0.00    +0.000 N 
ATOM      8  N   UNL     1       4.450   6.310  18.015  0.00  0.00    +0.000 NA
ATOM      9  C   UNL     1       4.970   5.066  18.002  0.00  0.00    +0.000 A 
ATOM     10  C   UNL     1       4.210   4.211  18.826  0.00  0.00    +0.000 A 
ATOM     11  C   UNL     1       3.174   4.981  19.305  0.00  0.00    +0.000 A 
ATOM     12  C   UNL     1       2.172   4.457  20.272  0.00  0.00    +0.000 C 
ATOM     13  C   UNL     1       2.689   3.125  20.859  0.00  0.00    +0.000 C 
ATOM     14  O   UNL     1       3.212   2.254  19.837  0.00  0.00    +0.000 OA
ATOM     15  C   UNL     1       4.401   2.791  19.220  0.00  0.00    +0.000 C 
BRANCH   9  16
ATOM     16  C   UNL     1       6.213   4.685  17.240  0.00  0.00    +0.000 C 
ATOM     17  F   UNL     1       7.247   4.290  18.025  0.00  0.00    +0.000 F 
ATOM     18  F   UNL     1       5.965   3.668  16.369  0.00  0.00    +0.000 F 
ATOM     19  F   UNL     1       6.669   5.724  16.485  0.00  0.00    +0.000 F 
ENDBRANCH   9  16
ENDBRANCH   4   7
BRANCH   1  21
ATOM     20  O   UNL     1       0.512  11.789  20.221  0.00  0.00    +0.000 OA
ATOM     21  C   UNL     1       0.089  10.940  19.440  0.00  0.00    +0.000 C 
ATOM     22  N   UNL     1      -1.103  11.086  18.731  0.00  0.00    +0.000 N 
ATOM     23  C   UNL     1      -1.873  12.318  18.819  0.00  0.00    +0.000 C 
ATOM     24  C   UNL     1      -3.322  11.860  18.749  0.00  0.00    +0.000 C 
ATOM     25  C   UNL     1      -3.259  10.651  17.830  0.00  0.00    +0.000 C 
ATOM     26  C   UNL     1      -1.913  10.020  18.152  0.00  0.00    +0.000 C 
ENDBRANCH   1  21
TORSDOF 3
ENDMDL
MODEL 9
REMARK VINA RESULT:      -8.3      3.024      3.971
REMARK  Name = 
REMARK  3 active torsions:
REMARK  status: ('A' for Active; 'I' for Inactive)
REMARK    1  A    between atoms: C_2  and  C_3
REMARK    2  A    between atoms: C_6  and  N_7
REMARK    3  A    between atoms: C_9  and  C_10
REMARK                            x       y       z     vdW  Elec       q    Type
REMARK                         _______ _______ _______ _____ _____    ______ ____
ROOT
ATOM      1  C   UNL     1       0.848  10.156  19.013  0.00  0.00    +0.000 A 
ATOM      2  C   UNL     1       0.863   9.578  20.292  0.00  0.00    +0.000 A 
ATOM      3  C   UNL     1       1.417   8.304  20.491  0.00  0.00    +0.000 A 
ATOM      4  C   UNL     1       1.941   7.582  19.410  0.00  0.00    +0.000 A 
ATOM      5  C   UNL     1       1.952   8.175  18.143  0.00  0.00    +0.000 A 
ATOM      6  C   UNL     1       1.462   9.471  17.964  0.00  0.00    +0.000 A 
ENDROOT
BRANCH   4   7
ATOM      7  N   UNL     1       2.462   6.263  19.544  0.00  0.00    +0.000 N 
ATOM      8  N   UNL     1       1.724   5.310  20.188  0.00  0.00    +0.000 NA
ATOM      9  C   UNL     1       2.503   4.211  20.247  0.00  0.00    +0.000 A 
ATOM     10  C   UNL     1       3.711   4.429  19.553  0.00  0.00    +0.000 A 
ATOM     11  C   UNL     1       3.652   5.730  19.108  0.00  0.00    +0.000 A 
ATOM     12  C   UNL     1       4.722   6.334  18.269  0.00  0.00    +0.000 C 
ATOM     13  C   UNL     1       5.640   5.211  17.738  0.00  0.00    +0.000 C 
ATOM     14  O   UNL     1       5.994   4.273  18.774  0.00  0.00    +0.000 OA
ATOM     15  C   UNL     1       4.852   3.529  19.249  0.00  0.00    +0.000 C 
BRANCH   9  16
ATOM     16  C   UNL     1       2.093   2.931  20.928  0.00  0.00    +0.000 C 
ATOM     17  F   UNL     1       0.908   3.004  21.585  0.00  0.00    +0.000 F 
ATOM     18  F   UNL     1       1.988   1.909  20.035  0.00  0.00    +0.000 F 
ATOM     19  F   UNL     1       3.024   2.535  21.843  0.00  0.00    +0.000 F 
ENDBRANCH   9  16
ENDBRANCH   4   7
BRANCH   1  21
ATOM     20  O   UNL     1      -0.896  11.545  18.303  0.00  0.00    +0.000 OA
ATOM     21  C   UNL     1       0.217  11.495  18.821  0.00  0.00    +0.000 C 
ATOM     22  N   UNL     1       0.920  12.631  19.222  0.00  0.00    +0.000 N 
ATOM     23  C   UNL     1       0.316  13.952  19.124  0.00  0.00    +0.000 C 
ATOM     24  C   UNL     1       1.476  14.868  18.761  0.00  0.00    +0.000 C 
ATOM     25  C   UNL     1       2.655  14.236  19.481  0.00  0.00    +0.000 C 
ATOM     26  C   UNL     1       2.360  12.744  19.419  0.00  0.00    +0.000 C 
ENDBRANCH   1  21
TORSDOF 3
ENDMDL
