MODEL 1
REMARK VINA RESULT:      -6.8      0.000      0.000
REMARK  Name = 
REMARK  6 active torsions:
REMARK  status: ('A' for Active; 'I' for Inactive)
REMARK    1  A    between atoms: C_1  and  O_2
REMARK    2  A    between atoms: O_2  and  C_3
REMARK    3  A    between atoms: C_8  and  C_9
REMARK    4  A    between atoms: C_9  and  C_10
REMARK    5  A    between atoms: C_9  and  C_11
REMARK    6  A    between atoms: C_11  and  O_12
REMARK                            x       y       z     vdW  Elec       q    Type
REMARK                         _______ _______ _______ _____ _____    ______ ____
ROOT
ATOM      1  C   UNL     1       7.096   7.036  17.662  0.00  0.00    +0.000 A 
ATOM      2  C   UNL     1       7.561   6.063  18.543  0.00  0.00    +0.000 A 
ATOM      3  C   UNL     1       6.679   5.115  19.074  0.00  0.00    +0.000 A 
ATOM      4  C   UNL     1       5.318   5.128  18.737  0.00  0.00    +0.000 A 
ATOM      5  C   UNL     1       4.417   4.206  19.295  0.00  0.00    +0.000 A 
ATOM      6  C   UNL     1       3.047   4.236  18.987  0.00  0.00    +0.000 A 
ATOM      7  C   UNL     1       2.595   5.194  18.070  0.00  0.00    +0.000 A 
ATOM      8  C   UNL     1       3.483   6.109  17.498  0.00  0.00    +0.000 A 
ATOM      9  C   UNL     1       4.846   6.101  17.829  0.00  0.00    +0.000 A 
ATOM     10  C   UNL     1       5.745   7.041  17.296  0.00  0.00    +0.000 A 
ENDROOT
BRANCH   1  12
ATOM     11  C   UNL     1       8.272   9.075  17.977  0.00  0.00    +0.000 C 
ATOM     12  O   UNL     1       7.853   8.031  17.104  0.00  0.00    +0.000 OA
ENDBRANCH   1  12
BRANCH   6  13
ATOM     13  C   UNL     1       2.103   3.247  19.663  0.00  0.00    +0.000 C 
ATOM     14  C   UNL     1       1.023   3.974  20.471  0.00  0.00    +0.000 C 
BRANCH  13  15
ATOM     15  C   UNL     1       1.452   2.266  18.673  0.00  0.00    +0.000 C 
BRANCH  15  16
ATOM     16  O   UNL     1       2.418   1.677  17.809  0.00  0.00    +0.000 OA
ATOM     17  H   UNL     1       2.783   0.903  18.275  0.00  0.00    +0.000 HD
ENDBRANCH  15  16
ENDBRANCH  13  15
ENDBRANCH   6  13
TORSDOF 4
ENDMDL
MODEL 2
REMARK VINA RESULT:      -6.8      2.187      2.605
REMARK  Name = 
REMARK  6 active torsions:
REMARK  status: ('A' for Active; 'I' for Inactive)
REMARK    1  A    between atoms: C_1  and  O_2
REMARK    2  A    between atoms: O_2  and  C_3
REMARK    3  A    between atoms: C_8  and  C_9
REMARK    4  A    between atoms: C_9  and  C_10
REMARK    5  A    between atoms: C_9  and  C_11
REMARK    6  A    between atoms: C_11  and  O_12
REMARK                            x       y       z     vdW  Elec       q    Type
REMARK                         _______ _______ _______ _____ _____    ______ ____
ROOT
ATOM      1  C   UNL     1       6.815   5.173  16.280  0.00  0.00    +0.000 A 
ATOM      2  C   UNL     1       7.111   5.646  17.556  0.00  0.00    +0.000 A 
ATOM      3  C   UNL     1       6.182   5.502  18.592  0.00  0.00    +0.000 A 
ATOM      4  C   UNL     1       4.941   4.889  18.368  0.00  0.00    +0.000 A 
ATOM      5  C   UNL     1       3.985   4.775  19.391  0.00  0.00    +0.000 A 
ATOM      6  C   UNL     1       2.728   4.192  19.164  0.00  0.00    +0.000 A 
ATOM      7  C   UNL     1       2.454   3.685  17.887  0.00  0.00    +0.000 A 
ATOM      8  C   UNL     1       3.401   3.780  16.863  0.00  0.00    +0.000 A 
ATOM      9  C   UNL     1       4.644   4.391  17.080  0.00  0.00    +0.000 A 
ATOM     10  C   UNL     1       5.591   4.534  16.051  0.00  0.00    +0.000 A 
ENDROOT
BRANCH   1  12
ATOM     11  C   UNL     1       7.084   4.840  13.943  0.00  0.00    +0.000 C 
ATOM     12  O   UNL     1       7.628   5.284  15.183  0.00  0.00    +0.000 OA
ENDBRANCH   1  12
BRANCH   6  13
ATOM     13  C   UNL     1       1.707   4.143  20.295  0.00  0.00    +0.000 C 
ATOM     14  C   UNL     1       0.678   3.029  20.067  0.00  0.00    +0.000 C 
BRANCH  13  15
ATOM     15  C   UNL     1       2.353   3.988  21.682  0.00  0.00    +0.000 C 
BRANCH  15  16
ATOM     16  O   UNL     1       2.632   2.624  21.979  0.00  0.00    +0.000 OA
ATOM     17  H   UNL     1       2.943   2.210  21.153  0.00  0.00    +0.000 HD
ENDBRANCH  15  16
ENDBRANCH  13  15
ENDBRANCH   6  13
TORSDOF 4
ENDMDL
MODEL 3
REMARK VINA RESULT:      -6.7      2.336      2.758
REMARK  Name = 
REMARK  6 active torsions:
REMARK  status: ('A' for Active; 'I' for Inactive)
REMARK    1  A    between atoms: C_1  and  O_2
REMARK    2  A    between atoms: O_2  and  C_3
REMARK    3  A    between atoms: C_8  and  C_9
REMARK    4  A    between atoms: C_9  and  C_10
REMARK    5  A    between atoms: C_9  and  C_11
REMARK    6  A    between atoms: C_11  and  O_12
REMARK                            x       y       z     vdW  Elec       q    Type
REMARK                         _______ _______ _______ _____ _____    ______ ____
ROOT
ATOM      1  C   UNL     1       6.788   5.276  15.860  0.00  0.00    +0.000 A 
ATOM      2  C   UNL     1       7.197   6.023  16.962  0.00  0.00    +0.000 A 
ATOM      3  C   UNL     1       6.433   6.022  18.134  0.00  0.00    +0.000 A 
ATOM      4  C   UNL     1       5.247   5.280  18.222  0.00  0.00    +0.000 A 
ATOM      5  C   UNL     1       4.452   5.303  19.380  0.00  0.00    +0.000 A 
ATOM      6  C   UNL     1       3.246   4.588  19.461  0.00  0.00    +0.000 A 
ATOM      7  C   UNL     1       2.862   3.809  18.362  0.00  0.00    +0.000 A 
ATOM      8  C   UNL     1       3.651   3.767  17.208  0.00  0.00    +0.000 A 
ATOM      9  C   UNL     1       4.839   4.506  17.114  0.00  0.00    +0.000 A 
ATOM     10  C   UNL     1       5.621   4.508  15.945  0.00  0.00    +0.000 A 
ENDROOT
BRANCH   1  12
ATOM     11  C   UNL     1       6.830   4.414  13.647  0.00  0.00    +0.000 C 
ATOM     12  O   UNL     1       7.432   5.223  14.653  0.00  0.00    +0.000 OA
ENDBRANCH   1  12
BRANCH   6  13
ATOM     13  C   UNL     1       2.394   4.692  20.721  0.00  0.00    +0.000 C 
ATOM     14  C   UNL     1       1.508   5.943  20.691  0.00  0.00    +0.000 C 
BRANCH  13  15
ATOM     15  C   UNL     1       1.534   3.442  20.970  0.00  0.00    +0.000 C 
BRANCH  15  16
ATOM     16  O   UNL     1       2.029   2.676  22.062  0.00  0.00    +0.000 OA
ATOM     17  H   UNL     1       3.002   2.703  22.012  0.00  0.00    +0.000 HD
ENDBRANCH  15  16
ENDBRANCH  13  15
ENDBRANCH   6  13
TORSDOF 4
ENDMDL
MODEL 4
REMARK VINA RESULT:      -6.7      1.494      1.760
REMARK  Name = 
REMARK  6 active torsions:
REMARK  status: ('A' for Active; 'I' for Inactive)
REMARK    1  A    between atoms: C_1  and  O_2
REMARK    2  A    between atoms: O_2  and  C_3
REMARK    3  A    between atoms: C_8  and  C_9
REMARK    4  A    between atoms: C_9  and  C_10
REMARK    5  A    between atoms: C_9  and  C_11
REMARK    6  A    between atoms: C_11  and  O_12
REMARK                            x       y       z     vdW  Elec       q    Type
REMARK                         _______ _______ _______ _____ _____    ______ ____
ROOT
ATOM      1  C   UNL     1       6.828   6.381  16.863  0.00  0.00    +0.000 A 
ATOM      2  C   UNL     1       6.926   5.004  16.676  0.00  0.00    +0.000 A 
ATOM      3  C   UNL     1       5.839   4.175  16.972  0.00  0.00    +0.000 A 
ATOM      4  C   UNL     1       4.639   4.707  17.465  0.00  0.00    +0.000 A 
ATOM      5  C   UNL     1       3.556   3.880  17.804  0.00  0.00    +0.000 A 
ATOM      6  C   UNL     1       2.364   4.404  18.330  0.00  0.00    +0.000 A 
ATOM      7  C   UNL     1       2.260   5.793  18.479  0.00  0.00    +0.000 A 
ATOM      8  C   UNL     1       3.326   6.629  18.134  0.00  0.00    +0.000 A 
ATOM      9  C   UNL     1       4.528   6.104  17.639  0.00  0.00    +0.000 A 
ATOM     10  C   UNL     1       5.625   6.927  17.328  0.00  0.00    +0.000 A 
ENDROOT
BRANCH   1  12
ATOM     11  C   UNL     1       7.956   8.341  17.589  0.00  0.00    +0.000 C 
ATOM     12  O   UNL     1       7.830   7.288  16.640  0.00  0.00    +0.000 OA
ENDBRANCH   1  12
BRANCH   6  13
ATOM     13  C   UNL     1       1.239   3.457  18.731  0.00  0.00    +0.000 C 
ATOM     14  C   UNL     1       1.698   1.995  18.678  0.00  0.00    +0.000 C 
BRANCH  13  15
ATOM     15  C   UNL     1       0.651   3.774  20.116  0.00  0.00    +0.000 C 
BRANCH  15  16
ATOM     16  O   UNL     1       0.925   2.737  21.051  0.00  0.00    +0.000 OA
ATOM     17  H   UNL     1       1.890   2.724  21.187  0.00  0.00    +0.000 HD
ENDBRANCH  15  16
ENDBRANCH  13  15
ENDBRANCH   6  13
TORSDOF 4
ENDMDL
MODEL 5
REMARK VINA RESULT:      -6.6      1.160      1.448
REMARK  Name = 
REMARK  6 active torsions:
REMARK  status: ('A' for Active; 'I' for Inactive)
REMARK    1  A    between atoms: C_1  and  O_2
REMARK    2  A    between atoms: O_2  and  C_3
REMARK    3  A    between atoms: C_8  and  C_9
REMARK    4  A    between atoms: C_9  and  C_10
REMARK    5  A    between atoms: C_9  and  C_11
REMARK    6  A    between atoms: C_11  and  O_12
REMARK                            x       y       z     vdW  Elec       q    Type
REMARK                         _______ _______ _______ _____ _____    ______ ____
ROOT
ATOM      1  C   UNL     1       6.968   6.886  17.650  0.00  0.00    +0.000 A 
ATOM      2  C   UNL     1       7.354   5.975  18.631  0.00  0.00    +0.000 A 
ATOM      3  C   UNL     1       6.401   5.153  19.241  0.00  0.00    +0.000 A 
ATOM      4  C   UNL     1       5.047   5.232  18.886  0.00  0.00    +0.000 A 
ATOM      5  C   UNL     1       4.076   4.440  19.521  0.00  0.00    +0.000 A 
ATOM      6  C   UNL     1       2.714   4.539  19.193  0.00  0.00    +0.000 A 
ATOM      7  C   UNL     1       2.340   5.430  18.179  0.00  0.00    +0.000 A 
ATOM      8  C   UNL     1       3.297   6.215  17.531  0.00  0.00    +0.000 A 
ATOM      9  C   UNL     1       4.653   6.140  17.879  0.00  0.00    +0.000 A 
ATOM     10  C   UNL     1       5.623   6.954  17.267  0.00  0.00    +0.000 A 
ENDROOT
BRANCH   1  12
ATOM     11  C   UNL     1       8.170   8.933  17.727  0.00  0.00    +0.000 C 
ATOM     12  O   UNL     1       7.801   7.762  17.006  0.00  0.00    +0.000 OA
ENDBRANCH   1  12
BRANCH   6  13
ATOM     13  C   UNL     1       1.695   3.695  19.951  0.00  0.00    +0.000 C 
ATOM     14  C   UNL     1       1.654   2.259  19.415  0.00  0.00    +0.000 C 
BRANCH  13  15
ATOM     15  C   UNL     1       1.936   3.683  21.470  0.00  0.00    +0.000 C 
BRANCH  15  16
ATOM     16  O   UNL     1       2.446   2.429  21.909  0.00  0.00    +0.000 OA
ATOM     17  H   UNL     1       1.684   1.901  22.209  0.00  0.00    +0.000 HD
ENDBRANCH  15  16
ENDBRANCH  13  15
ENDBRANCH   6  13
TORSDOF 4
ENDMDL
MODEL 6
REMARK VINA RESULT:      -6.4      2.248      2.982
REMARK  Name = 
REMARK  6 active torsions:
REMARK  status: ('A' for Active; 'I' for Inactive)
REMARK    1  A    between atoms: C_1  and  O_2
REMARK    2  A    between atoms: O_2  and  C_3
REMARK    3  A    between atoms: C_8  and  C_9
REMARK    4  A    between atoms: C_9  and  C_10
REMARK    5  A    between atoms: C_9  and  C_11
REMARK    6  A    between atoms: C_11  and  O_12
REMARK                            x       y       z     vdW  Elec       q    Type
REMARK                         _______ _______ _______ _____ _____    ______ ____
ROOT
ATOM      1  C   UNL     1       6.365   5.503  15.811  0.00  0.00    +0.000 A 
ATOM      2  C   UNL     1       5.761   6.630  16.364  0.00  0.00    +0.000 A 
ATOM      3  C   UNL     1       4.649   6.492  17.201  0.00  0.00    +0.000 A 
ATOM      4  C   UNL     1       4.118   5.228  17.494  0.00  0.00    +0.000 A 
ATOM      5  C   UNL     1       2.978   5.081  18.301  0.00  0.00    +0.000 A 
ATOM      6  C   UNL     1       2.422   3.820  18.570  0.00  0.00    +0.000 A 
ATOM      7  C   UNL     1       3.058   2.689  18.041  0.00  0.00    +0.000 A 
ATOM      8  C   UNL     1       4.202   2.820  17.247  0.00  0.00    +0.000 A 
ATOM      9  C   UNL     1       4.738   4.081  16.951  0.00  0.00    +0.000 A 
ATOM     10  C   UNL     1       5.861   4.233  16.119  0.00  0.00    +0.000 A 
ENDROOT
BRANCH   1  12
ATOM     11  C   UNL     1       7.256   4.851  13.708  0.00  0.00    +0.000 C 
ATOM     12  O   UNL     1       7.435   5.513  14.956  0.00  0.00    +0.000 OA
ENDBRANCH   1  12
BRANCH   6  13
ATOM     13  C   UNL     1       1.152   3.721  19.407  0.00  0.00    +0.000 C 
ATOM     14  C   UNL     1       0.425   2.394  19.160  0.00  0.00    +0.000 C 
BRANCH  13  15
ATOM     15  C   UNL     1       1.407   3.910  20.911  0.00  0.00    +0.000 C 
BRANCH  15  16
ATOM     16  O   UNL     1       1.277   2.684  21.621  0.00  0.00    +0.000 OA
ATOM     17  H   UNL     1       0.651   2.842  22.351  0.00  0.00    +0.000 HD
ENDBRANCH  15  16
ENDBRANCH  13  15
ENDBRANCH   6  13
TORSDOF 4
ENDMDL
MODEL 7
REMARK VINA RESULT:      -6.3      2.452      2.920
REMARK  Name = 
REMARK  6 active torsions:
REMARK  status: ('A' for Active; 'I' for Inactive)
REMARK    1  A    between atoms: C_1  and  O_2
REMARK    2  A    between atoms: O_2  and  C_3
REMARK    3  A    between atoms: C_8  and  C_9
REMARK    4  A    between atoms: C_9  and  C_10
REMARK    5  A    between atoms: C_9  and  C_11
REMARK    6  A    between atoms: C_11  and  O_12
REMARK                            x       y       z     vdW  Elec       q    Type
REMARK                         _______ _______ _______ _____ _____    ______ ____
ROOT
ATOM      1  C   UNL     1       6.492   5.114  15.361  0.00  0.00    +0.000 A 
ATOM      2  C   UNL     1       6.136   3.767  15.398  0.00  0.00    +0.000 A 
ATOM      3  C   UNL     1       5.036   3.352  16.156  0.00  0.00    +0.000 A 
ATOM      4  C   UNL     1       4.278   4.273  16.892  0.00  0.00    +0.000 A 
ATOM      5  C   UNL     1       3.196   3.861  17.688  0.00  0.00    +0.000 A 
ATOM      6  C   UNL     1       2.454   4.775  18.454  0.00  0.00    +0.000 A 
ATOM      7  C   UNL     1       2.796   6.132  18.381  0.00  0.00    +0.000 A 
ATOM      8  C   UNL     1       3.862   6.557  17.583  0.00  0.00    +0.000 A 
ATOM      9  C   UNL     1       4.623   5.641  16.842  0.00  0.00    +0.000 A 
ATOM     10  C   UNL     1       5.725   6.047  16.069  0.00  0.00    +0.000 A 
ENDROOT
BRANCH   1  12
ATOM     11  C   UNL     1       7.735   5.199  13.339  0.00  0.00    +0.000 C 
ATOM     12  O   UNL     1       7.562   5.635  14.683  0.00  0.00    +0.000 OA
ENDBRANCH   1  12
BRANCH   6  13
ATOM     13  C   UNL     1       1.324   4.267  19.343  0.00  0.00    +0.000 C 
ATOM     14  C   UNL     1       1.075   2.771  19.125  0.00  0.00    +0.000 C 
BRANCH  13  15
ATOM     15  C   UNL     1       1.560   4.551  20.836  0.00  0.00    +0.000 C 
BRANCH  15  16
ATOM     16  O   UNL     1       2.335   3.525  21.446  0.00  0.00    +0.000 OA
ATOM     17  H   UNL     1       3.228   3.889  21.588  0.00  0.00    +0.000 HD
ENDBRANCH  15  16
ENDBRANCH  13  15
ENDBRANCH   6  13
TORSDOF 4
ENDMDL
MODEL 8
REMARK VINA RESULT:      -6.3      2.493      2.930
REMARK  Name = 
REMARK  6 active torsions:
REMARK  status: ('A' for Active; 'I' for Inactive)
REMARK    1  A    between atoms: C_1  and  O_2
REMARK    2  A    between atoms: O_2  and  C_3
REMARK    3  A    between atoms: C_8  and  C_9
REMARK    4  A    between atoms: C_9  and  C_10
REMARK    5  A    between atoms: C_9  and  C_11
REMARK    6  A    between atoms: C_11  and  O_12
REMARK                            x       y       z     vdW  Elec       q    Type
REMARK                         _______ _______ _______ _____ _____    ______ ____
ROOT
ATOM      1  C   UNL     1       5.577   5.236  15.611  0.00  0.00    +0.000 A 
ATOM      2  C   UNL     1       5.328   3.871  15.735  0.00  0.00    +0.000 A 
ATOM      3  C   UNL     1       4.439   3.405  16.709  0.00  0.00    +0.000 A 
ATOM      4  C   UNL     1       3.788   4.293  17.577  0.00  0.00    +0.000 A 
ATOM      5  C   UNL     1       2.924   3.832  18.584  0.00  0.00    +0.000 A 
ATOM      6  C   UNL     1       2.295   4.715  19.478  0.00  0.00    +0.000 A 
ATOM      7  C   UNL     1       2.522   6.088  19.320  0.00  0.00    +0.000 A 
ATOM      8  C   UNL     1       3.369   6.561  18.314  0.00  0.00    +0.000 A 
ATOM      9  C   UNL     1       4.022   5.679  17.442  0.00  0.00    +0.000 A 
ATOM     10  C   UNL     1       4.911   6.135  16.453  0.00  0.00    +0.000 A 
ENDROOT
BRANCH   1  12
ATOM     11  C   UNL     1       7.283   4.917  13.990  0.00  0.00    +0.000 C 
ATOM     12  O   UNL     1       6.446   5.808  14.721  0.00  0.00    +0.000 OA
ENDBRANCH   1  12
BRANCH   6  13
ATOM     13  C   UNL     1       1.410   4.158  20.587  0.00  0.00    +0.000 C 
ATOM     14  C   UNL     1       0.678   2.891  20.129  0.00  0.00    +0.000 C 
BRANCH  13  15
ATOM     15  C   UNL     1       2.180   3.881  21.889  0.00  0.00    +0.000 C 
BRANCH  15  16
ATOM     16  O   UNL     1       2.671   2.546  21.931  0.00  0.00    +0.000 OA
ATOM     17  H   UNL     1       3.418   2.496  21.308  0.00  0.00    +0.000 HD
ENDBRANCH  15  16
ENDBRANCH  13  15
ENDBRANCH   6  13
TORSDOF 4
ENDMDL
MODEL 9
REMARK VINA RESULT:      -6.3      2.681      3.476
REMARK  Name = 
REMARK  6 active torsions:
REMARK  status: ('A' for Active; 'I' for Inactive)
REMARK    1  A    between atoms: C_1  and  O_2
REMARK    2  A    between atoms: O_2  and  C_3
REMARK    3  A    between atoms: C_8  and  C_9
REMARK    4  A    between atoms: C_9  and  C_10
REMARK    5  A    between atoms: C_9  and  C_11
REMARK    6  A    between atoms: C_11  and  O_12
REMARK                            x       y       z     vdW  Elec       q    Type
REMARK                         _______ _______ _______ _____ _____    ______ ____
ROOT
ATOM      1  C   UNL     1       6.022   4.999  15.253  0.00  0.00    +0.000 A 
ATOM      2  C   UNL     1       5.577   6.244  15.693  0.00  0.00    +0.000 A 
ATOM      3  C   UNL     1       4.589   6.329  16.679  0.00  0.00    +0.000 A 
ATOM      4  C   UNL     1       4.025   5.173  17.237  0.00  0.00    +0.000 A 
ATOM      5  C   UNL     1       3.004   5.247  18.199  0.00  0.00    +0.000 A 
ATOM      6  C   UNL     1       2.412   4.092  18.737  0.00  0.00    +0.000 A 
ATOM      7  C   UNL     1       2.892   2.845  18.317  0.00  0.00    +0.000 A 
ATOM      8  C   UNL     1       3.917   2.757  17.370  0.00  0.00    +0.000 A 
ATOM      9  C   UNL     1       4.486   3.909  16.809  0.00  0.00    +0.000 A 
ATOM     10  C   UNL     1       5.487   3.838  15.824  0.00  0.00    +0.000 A 
ENDROOT
BRANCH   1  12
ATOM     11  C   UNL     1       6.574   3.934  13.204  0.00  0.00    +0.000 C 
ATOM     12  O   UNL     1       6.958   4.789  14.276  0.00  0.00    +0.000 OA
ENDBRANCH   1  12
BRANCH   6  13
ATOM     13  C   UNL     1       1.270   4.230  19.737  0.00  0.00    +0.000 C 
ATOM     14  C   UNL     1       1.023   2.913  20.483  0.00  0.00    +0.000 C 
BRANCH  13  15
ATOM     15  C   UNL     1       1.486   5.373  20.743  0.00  0.00    +0.000 C 
BRANCH  15  16
ATOM     16  O   UNL     1       2.600   5.118  21.592  0.00  0.00    +0.000 OA
ATOM     17  H   UNL     1       2.323   5.340  22.500  0.00  0.00    +0.000 HD
ENDBRANCH  15  16
ENDBRANCH  13  15
ENDBRANCH   6  13
TORSDOF 4
ENDMDL
