MODEL 1
REMARK VINA RESULT:      -8.7      0.000      0.000
REMARK  Name = 
REMARK  2 active torsions:
REMARK  status: ('A' for Active; 'I' for Inactive)
REMARK    1  A    between atoms: C_1  and  N_2
REMARK    2  A    between atoms: C_19  and  C_20
REMARK                            x       y       z     vdW  Elec       q    Type
REMARK                         _______ _______ _______ _____ _____    ______ ____
ROOT
ATOM      1  C   UNL     1       1.831  16.497  21.182  0.00  0.00    +0.000 C 
ATOM      2  N   UNL     1       1.214  15.561  20.281  0.00  0.00    +0.000 NA
ATOM      3  C   UNL     1       1.928  15.188  18.987  0.00  0.00    +0.000 C 
ATOM      4  C   UNL     1       0.979  13.924  19.043  0.00  0.00    +0.000 C 
ATOM      5  C   UNL     1      -0.431  14.446  18.581  0.00  0.00    +0.000 C 
ATOM      6  N   UNL     1      -1.446  13.493  18.951  0.00  0.00    +0.000 N 
ATOM      7  C   UNL     1      -1.356  12.305  18.295  0.00  0.00    +0.000 C 
ATOM      8  O   UNL     1      -2.298  11.729  17.768  0.00  0.00    +0.000 OA
ATOM      9  C   UNL     1      -0.044  11.696  18.442  0.00  0.00    +0.000 A 
ATOM     10  C   UNL     1       1.164  12.385  18.611  0.00  0.00    +0.000 A 
ATOM     11  O   UNL     1       2.160  11.326  18.784  0.00  0.00    +0.000 OA
ATOM     12  C   UNL     1       1.374  10.061  18.788  0.00  0.00    +0.000 A 
ATOM     13  C   UNL     1       0.209  10.612  19.294  0.00  0.00    +0.000 A 
ATOM     14  C   UNL     1       0.135  10.667  20.799  0.00  0.00    +0.000 C 
ATOM     15  C   UNL     1       0.381   9.312  21.416  0.00  0.00    +0.000 C 
ATOM     16  C   UNL     1       1.371   8.436  20.656  0.00  0.00    +0.000 A 
ATOM     17  C   UNL     1       1.547   7.169  21.191  0.00  0.00    +0.000 A 
ATOM     18  N   UNL     1       1.966   6.116  20.494  0.00  0.00    +0.000 NA
ATOM     19  C   UNL     1       2.176   6.275  19.168  0.00  0.00    +0.000 A 
ATOM     20  C   UNL     1       2.169   7.570  18.564  0.00  0.00    +0.000 A 
ATOM     21  C   UNL     1       1.827   8.713  19.340  0.00  0.00    +0.000 A 
ATOM     22  C   UNL     1       1.354  14.118  20.602  0.00  0.00    +0.000 C 
ATOM     23  H   UNL     1      -1.450  13.348  19.949  0.00  0.00    +0.000 HD
ENDROOT
BRANCH  19  24
ATOM     24  C   UNL     1       2.317   4.934  18.498  0.00  0.00    +0.000 A 
ATOM     25  C   UNL     1       3.369   4.581  17.654  0.00  0.00    +0.000 A 
ATOM     26  C   UNL     1       3.513   3.266  17.149  0.00  0.00    +0.000 A 
ATOM     27  C   UNL     1       2.584   2.276  17.470  0.00  0.00    +0.000 A 
ATOM     28  C   UNL     1       1.509   2.585  18.274  0.00  0.00    +0.000 A 
ATOM     29  F   UNL     1       0.615   1.656  18.604  0.00  0.00    +0.000 F 
ATOM     30  C   UNL     1       1.377   3.903  18.787  0.00  0.00    +0.000 A 
ENDBRANCH  19  24
TORSDOF 1
ENDMDL
MODEL 2
REMARK VINA RESULT:      -8.4      1.541      1.724
REMARK  Name = 
REMARK  2 active torsions:
REMARK  status: ('A' for Active; 'I' for Inactive)
REMARK    1  A    between atoms: C_1  and  N_2
REMARK    2  A    between atoms: C_19  and  C_20
REMARK                            x       y       z     vdW  Elec       q    Type
REMARK                         _______ _______ _______ _____ _____    ______ ____
ROOT
ATOM      1  C   UNL     1      -0.614  15.728  23.437  0.00  0.00    +0.000 C 
ATOM      2  N   UNL     1      -0.863  14.982  22.233  0.00  0.00    +0.000 NA
ATOM      3  C   UNL     1       0.072  15.153  21.041  0.00  0.00    +0.000 C 
ATOM      4  C   UNL     1      -0.529  13.756  20.603  0.00  0.00    +0.000 C 
ATOM      5  C   UNL     1      -1.959  14.082  20.035  0.00  0.00    +0.000 C 
ATOM      6  N   UNL     1      -2.739  12.873  19.962  0.00  0.00    +0.000 N 
ATOM      7  C   UNL     1      -2.276  11.970  19.057  0.00  0.00    +0.000 C 
ATOM      8  O   UNL     1      -2.972  11.385  18.239  0.00  0.00    +0.000 OA
ATOM      9  C   UNL     1      -0.879  11.632  19.286  0.00  0.00    +0.000 A 
ATOM     10  C   UNL     1       0.087  12.480  19.842  0.00  0.00    +0.000 A 
ATOM     11  O   UNL     1       1.289  11.648  19.925  0.00  0.00    +0.000 OA
ATOM     12  C   UNL     1       0.852  10.300  19.467  0.00  0.00    +0.000 A 
ATOM     13  C   UNL     1      -0.466  10.427  19.872  0.00  0.00    +0.000 A 
ATOM     14  C   UNL     1      -0.732  10.032  21.302  0.00  0.00    +0.000 C 
ATOM     15  C   UNL     1      -0.229   8.640  21.595  0.00  0.00    +0.000 C 
ATOM     16  C   UNL     1       1.033   8.245  20.836  0.00  0.00    +0.000 A 
ATOM     17  C   UNL     1       1.457   6.943  21.060  0.00  0.00    +0.000 A 
ATOM     18  N   UNL     1       2.207   6.246  20.211  0.00  0.00    +0.000 NA
ATOM     19  C   UNL     1       2.527   6.819  19.029  0.00  0.00    +0.000 A 
ATOM     20  C   UNL     1       2.267   8.202  18.777  0.00  0.00    +0.000 A 
ATOM     21  C   UNL     1       1.559   8.976  19.738  0.00  0.00    +0.000 A 
ATOM     22  C   UNL     1      -0.404  13.570  22.203  0.00  0.00    +0.000 C 
ATOM     23  H   UNL     1      -2.826  12.451  20.873  0.00  0.00    +0.000 HD
ENDROOT
BRANCH  19  24
ATOM     24  C   UNL     1       3.080   5.786  18.083  0.00  0.00    +0.000 A 
ATOM     25  C   UNL     1       4.221   5.964  17.300  0.00  0.00    +0.000 A 
ATOM     26  C   UNL     1       4.762   4.914  16.520  0.00  0.00    +0.000 A 
ATOM     27  C   UNL     1       4.152   3.659  16.495  0.00  0.00    +0.000 A 
ATOM     28  C   UNL     1       3.004   3.445  17.226  0.00  0.00    +0.000 A 
ATOM     29  F   UNL     1       2.410   2.254  17.229  0.00  0.00    +0.000 F 
ATOM     30  C   UNL     1       2.473   4.499  18.016  0.00  0.00    +0.000 A 
ENDBRANCH  19  24
TORSDOF 1
ENDMDL
MODEL 3
REMARK VINA RESULT:      -8.1      1.049      1.372
REMARK  Name = 
REMARK  2 active torsions:
REMARK  status: ('A' for Active; 'I' for Inactive)
REMARK    1  A    between atoms: C_1  and  N_2
REMARK    2  A    between atoms: C_19  and  C_20
REMARK                            x       y       z     vdW  Elec       q    Type
REMARK                         _______ _______ _______ _____ _____    ______ ____
ROOT
ATOM      1  C   UNL     1       1.309  16.420  21.702  0.00  0.00    +0.000 C 
ATOM      2  N   UNL     1       0.820  15.505  20.706  0.00  0.00    +0.000 NA
ATOM      3  C   UNL     1       1.675  15.209  19.480  0.00  0.00    +0.000 C 
ATOM      4  C   UNL     1       0.768  13.915  19.388  0.00  0.00    +0.000 C 
ATOM      5  C   UNL     1      -0.604  14.414  18.802  0.00  0.00    +0.000 C 
ATOM      6  N   UNL     1      -1.618  13.417  19.027  0.00  0.00    +0.000 N 
ATOM      7  C   UNL     1      -1.421  12.261  18.338  0.00  0.00    +0.000 C 
ATOM      8  O   UNL     1      -2.284  11.679  17.694  0.00  0.00    +0.000 OA
ATOM      9  C   UNL     1      -0.111  11.685  18.597  0.00  0.00    +0.000 A 
ATOM     10  C   UNL     1       1.049  12.402  18.917  0.00  0.00    +0.000 A 
ATOM     11  O   UNL     1       2.058  11.367  19.152  0.00  0.00    +0.000 OA
ATOM     12  C   UNL     1       1.319  10.081  19.024  0.00  0.00    +0.000 A 
ATOM     13  C   UNL     1       0.090  10.575  19.427  0.00  0.00    +0.000 A 
ATOM     14  C   UNL     1      -0.140  10.564  20.917  0.00  0.00    +0.000 C 
ATOM     15  C   UNL     1       0.087   9.192  21.504  0.00  0.00    +0.000 C 
ATOM     16  C   UNL     1       1.179   8.378  20.817  0.00  0.00    +0.000 A 
ATOM     17  C   UNL     1       1.343   7.095  21.318  0.00  0.00    +0.000 A 
ATOM     18  N   UNL     1       1.866   6.086  20.627  0.00  0.00    +0.000 NA
ATOM     19  C   UNL     1       2.205   6.307  19.338  0.00  0.00    +0.000 A 
ATOM     20  C   UNL     1       2.216   7.626  18.787  0.00  0.00    +0.000 A 
ATOM     21  C   UNL     1       1.758   8.724  19.567  0.00  0.00    +0.000 A 
ATOM     22  C   UNL     1       0.975  14.055  20.983  0.00  0.00    +0.000 C 
ATOM     23  H   UNL     1      -1.720  13.230  20.013  0.00  0.00    +0.000 HD
ENDROOT
BRANCH  19  24
ATOM     24  C   UNL     1       2.460   5.000  18.634  0.00  0.00    +0.000 A 
ATOM     25  C   UNL     1       1.648   3.872  18.749  0.00  0.00    +0.000 A 
ATOM     26  C   UNL     1       1.870   2.711  17.970  0.00  0.00    +0.000 A 
ATOM     27  C   UNL     1       2.932   2.652  17.067  0.00  0.00    +0.000 A 
ATOM     28  C   UNL     1       3.781   3.729  16.943  0.00  0.00    +0.000 A 
ATOM     29  F   UNL     1       4.794   3.703  16.081  0.00  0.00    +0.000 F 
ATOM     30  C   UNL     1       3.546   4.896  17.719  0.00  0.00    +0.000 A 
ENDBRANCH  19  24
TORSDOF 1
ENDMDL
MODEL 4
REMARK VINA RESULT:      -8.1      1.065      1.118
REMARK  Name = 
REMARK  2 active torsions:
REMARK  status: ('A' for Active; 'I' for Inactive)
REMARK    1  A    between atoms: C_1  and  N_2
REMARK    2  A    between atoms: C_19  and  C_20
REMARK                            x       y       z     vdW  Elec       q    Type
REMARK                         _______ _______ _______ _____ _____    ______ ____
ROOT
ATOM      1  C   UNL     1       1.214  16.199  21.158  0.00  0.00    +0.000 C 
ATOM      2  N   UNL     1       0.743  15.209  20.227  0.00  0.00    +0.000 NA
ATOM      3  C   UNL     1       1.608  14.841  19.027  0.00  0.00    +0.000 C 
ATOM      4  C   UNL     1       0.721  13.531  19.022  0.00  0.00    +0.000 C 
ATOM      5  C   UNL     1      -0.655  13.967  18.398  0.00  0.00    +0.000 C 
ATOM      6  N   UNL     1      -1.656  12.973  18.688  0.00  0.00    +0.000 N 
ATOM      7  C   UNL     1      -1.439  11.775  18.082  0.00  0.00    +0.000 C 
ATOM      8  O   UNL     1      -2.290  11.137  17.478  0.00  0.00    +0.000 OA
ATOM      9  C   UNL     1      -0.121  11.238  18.385  0.00  0.00    +0.000 A 
ATOM     10  C   UNL     1       1.027  11.993  18.659  0.00  0.00    +0.000 A 
ATOM     11  O   UNL     1       2.049  10.993  18.968  0.00  0.00    +0.000 OA
ATOM     12  C   UNL     1       1.330   9.689  18.928  0.00  0.00    +0.000 A 
ATOM     13  C   UNL     1       0.093  10.192  19.292  0.00  0.00    +0.000 A 
ATOM     14  C   UNL     1      -0.145  10.281  20.778  0.00  0.00    +0.000 C 
ATOM     15  C   UNL     1       0.101   8.956  21.459  0.00  0.00    +0.000 C 
ATOM     16  C   UNL     1       1.207   8.114  20.835  0.00  0.00    +0.000 A 
ATOM     17  C   UNL     1       1.388   6.871  21.424  0.00  0.00    +0.000 A 
ATOM     18  N   UNL     1       1.929   5.825  20.807  0.00  0.00    +0.000 NA
ATOM     19  C   UNL     1       2.271   5.961  19.507  0.00  0.00    +0.000 A 
ATOM     20  C   UNL     1       2.265   7.238  18.865  0.00  0.00    +0.000 A 
ATOM     21  C   UNL     1       1.787   8.381  19.566  0.00  0.00    +0.000 A 
ATOM     22  C   UNL     1       0.919  13.785  20.604  0.00  0.00    +0.000 C 
ATOM     23  H   UNL     1      -1.759  12.853  19.684  0.00  0.00    +0.000 HD
ENDROOT
BRANCH  19  24
ATOM     24  C   UNL     1       2.548   4.612  18.897  0.00  0.00    +0.000 A 
ATOM     25  C   UNL     1       2.122   4.217  17.629  0.00  0.00    +0.000 A 
ATOM     26  C   UNL     1       2.515   2.982  17.061  0.00  0.00    +0.000 A 
ATOM     27  C   UNL     1       3.335   2.102  17.768  0.00  0.00    +0.000 A 
ATOM     28  C   UNL     1       3.754   2.433  19.038  0.00  0.00    +0.000 A 
ATOM     29  F   UNL     1       4.546   1.617  19.729  0.00  0.00    +0.000 F 
ATOM     30  C   UNL     1       3.366   3.680  19.598  0.00  0.00    +0.000 A 
ENDBRANCH  19  24
TORSDOF 1
ENDMDL
MODEL 5
REMARK VINA RESULT:      -7.9      1.934      2.246
REMARK  Name = 
REMARK  2 active torsions:
REMARK  status: ('A' for Active; 'I' for Inactive)
REMARK    1  A    between atoms: C_1  and  N_2
REMARK    2  A    between atoms: C_19  and  C_20
REMARK                            x       y       z     vdW  Elec       q    Type
REMARK                         _______ _______ _______ _____ _____    ______ ____
ROOT
ATOM      1  C   UNL     1      -0.720  15.774  23.077  0.00  0.00    +0.000 C 
ATOM      2  N   UNL     1      -0.951  14.969  21.907  0.00  0.00    +0.000 NA
ATOM      3  C   UNL     1      -0.007  15.094  20.717  0.00  0.00    +0.000 C 
ATOM      4  C   UNL     1      -0.589  13.673  20.340  0.00  0.00    +0.000 C 
ATOM      5  C   UNL     1      -2.017  13.956  19.744  0.00  0.00    +0.000 C 
ATOM      6  N   UNL     1      -2.784  12.737  19.720  0.00  0.00    +0.000 N 
ATOM      7  C   UNL     1      -2.303  11.797  18.864  0.00  0.00    +0.000 C 
ATOM      8  O   UNL     1      -2.986  11.167  18.068  0.00  0.00    +0.000 OA
ATOM      9  C   UNL     1      -0.905  11.485  19.121  0.00  0.00    +0.000 A 
ATOM     10  C   UNL     1       0.047  12.369  19.644  0.00  0.00    +0.000 A 
ATOM     11  O   UNL     1       1.257  11.554  19.778  0.00  0.00    +0.000 OA
ATOM     12  C   UNL     1       0.837  10.182  19.380  0.00  0.00    +0.000 A 
ATOM     13  C   UNL     1      -0.486  10.314  19.766  0.00  0.00    +0.000 A 
ATOM     14  C   UNL     1      -0.761   9.983  21.211  0.00  0.00    +0.000 C 
ATOM     15  C   UNL     1      -0.247   8.611  21.573  0.00  0.00    +0.000 C 
ATOM     16  C   UNL     1       1.026   8.195  20.845  0.00  0.00    +0.000 A 
ATOM     17  C   UNL     1       1.461   6.910  21.133  0.00  0.00    +0.000 A 
ATOM     18  N   UNL     1       2.226   6.182  20.325  0.00  0.00    +0.000 NA
ATOM     19  C   UNL     1       2.552   6.702  19.120  0.00  0.00    +0.000 A 
ATOM     20  C   UNL     1       2.281   8.068  18.802  0.00  0.00    +0.000 A 
ATOM     21  C   UNL     1       1.555   8.880  19.718  0.00  0.00    +0.000 A 
ATOM     22  C   UNL     1      -0.478  13.563  21.947  0.00  0.00    +0.000 C 
ATOM     23  H   UNL     1      -2.875  12.358  20.650  0.00  0.00    +0.000 HD
ENDROOT
BRANCH  19  24
ATOM     24  C   UNL     1       3.124   5.632  18.229  0.00  0.00    +0.000 A 
ATOM     25  C   UNL     1       2.537   4.385  18.016  0.00  0.00    +0.000 A 
ATOM     26  C   UNL     1       3.057   3.465  17.074  0.00  0.00    +0.000 A 
ATOM     27  C   UNL     1       4.198   3.774  16.333  0.00  0.00    +0.000 A 
ATOM     28  C   UNL     1       4.833   4.981  16.532  0.00  0.00    +0.000 A 
ATOM     29  F   UNL     1       5.916   5.305  15.830  0.00  0.00    +0.000 F 
ATOM     30  C   UNL     1       4.299   5.904  17.471  0.00  0.00    +0.000 A 
ENDBRANCH  19  24
TORSDOF 1
ENDMDL
MODEL 6
REMARK VINA RESULT:      -7.7      2.148      2.511
REMARK  Name = 
REMARK  2 active torsions:
REMARK  status: ('A' for Active; 'I' for Inactive)
REMARK    1  A    between atoms: C_1  and  N_2
REMARK    2  A    between atoms: C_19  and  C_20
REMARK                            x       y       z     vdW  Elec       q    Type
REMARK                         _______ _______ _______ _____ _____    ______ ____
ROOT
ATOM      1  C   UNL     1      -1.917  15.112  22.712  0.00  0.00    +0.000 C 
ATOM      2  N   UNL     1      -2.026  14.289  21.537  0.00  0.00    +0.000 NA
ATOM      3  C   UNL     1      -1.211  14.642  20.299  0.00  0.00    +0.000 C 
ATOM      4  C   UNL     1      -1.471  13.128  19.920  0.00  0.00    +0.000 C 
ATOM      5  C   UNL     1      -2.959  13.080  19.414  0.00  0.00    +0.000 C 
ATOM      6  N   UNL     1      -3.424  11.716  19.403  0.00  0.00    +0.000 N 
ATOM      7  C   UNL     1      -2.792  10.923  18.497  0.00  0.00    +0.000 C 
ATOM      8  O   UNL     1      -3.358  10.161  17.726  0.00  0.00    +0.000 OA
ATOM      9  C   UNL     1      -1.347  10.941  18.667  0.00  0.00    +0.000 A 
ATOM     10  C   UNL     1      -0.594  12.015  19.158  0.00  0.00    +0.000 A 
ATOM     11  O   UNL     1       0.777  11.503  19.202  0.00  0.00    +0.000 OA
ATOM     12  C   UNL     1       0.662  10.075  18.794  0.00  0.00    +0.000 A 
ATOM     13  C   UNL     1      -0.630   9.892  19.258  0.00  0.00    +0.000 A 
ATOM     14  C   UNL     1      -0.733   9.490  20.707  0.00  0.00    +0.000 C 
ATOM     15  C   UNL     1       0.106   8.272  21.006  0.00  0.00    +0.000 C 
ATOM     16  C   UNL     1       1.394   8.170  20.197  0.00  0.00    +0.000 A 
ATOM     17  C   UNL     1       2.130   7.017  20.428  0.00  0.00    +0.000 A 
ATOM     18  N   UNL     1       2.992   6.496  19.559  0.00  0.00    +0.000 NA
ATOM     19  C   UNL     1       3.115   7.090  18.352  0.00  0.00    +0.000 A 
ATOM     20  C   UNL     1       2.516   8.360  18.083  0.00  0.00    +0.000 A 
ATOM     21  C   UNL     1       1.681   8.971  19.059  0.00  0.00    +0.000 A 
ATOM     22  C   UNL     1      -1.239  13.030  21.515  0.00  0.00    +0.000 C 
ATOM     23  H   UNL     1      -3.368  11.315  20.327  0.00  0.00    +0.000 HD
ENDROOT
BRANCH  19  24
ATOM     24  C   UNL     1       3.864   6.192  17.403  0.00  0.00    +0.000 A 
ATOM     25  C   UNL     1       4.736   6.643  16.412  0.00  0.00    +0.000 A 
ATOM     26  C   UNL     1       5.504   5.748  15.630  0.00  0.00    +0.000 A 
ATOM     27  C   UNL     1       5.395   4.369  15.814  0.00  0.00    +0.000 A 
ATOM     28  C   UNL     1       4.522   3.874  16.758  0.00  0.00    +0.000 A 
ATOM     29  F   UNL     1       4.409   2.564  16.961  0.00  0.00    +0.000 F 
ATOM     30  C   UNL     1       3.763   4.779  17.548  0.00  0.00    +0.000 A 
ENDBRANCH  19  24
TORSDOF 1
ENDMDL
MODEL 7
REMARK VINA RESULT:      -7.7      3.636      4.915
REMARK  Name = 
REMARK  2 active torsions:
REMARK  status: ('A' for Active; 'I' for Inactive)
REMARK    1  A    between atoms: C_1  and  N_2
REMARK    2  A    between atoms: C_19  and  C_20
REMARK                            x       y       z     vdW  Elec       q    Type
REMARK                         _______ _______ _______ _____ _____    ______ ____
ROOT
ATOM      1  C   UNL     1      -5.934  14.978  23.450  0.00  0.00    +0.000 C 
ATOM      2  N   UNL     1      -4.508  14.794  23.483  0.00  0.00    +0.000 NA
ATOM      3  C   UNL     1      -3.911  13.752  24.421  0.00  0.00    +0.000 C 
ATOM      4  C   UNL     1      -2.670  13.852  23.445  0.00  0.00    +0.000 C 
ATOM      5  C   UNL     1      -1.947  15.194  23.832  0.00  0.00    +0.000 C 
ATOM      6  N   UNL     1      -1.042  15.578  22.779  0.00  0.00    +0.000 N 
ATOM      7  C   UNL     1       0.008  14.730  22.614  0.00  0.00    +0.000 C 
ATOM      8  O   UNL     1       1.174  15.081  22.500  0.00  0.00    +0.000 OA
ATOM      9  C   UNL     1      -0.425  13.357  22.403  0.00  0.00    +0.000 A 
ATOM     10  C   UNL     1      -1.593  12.779  22.916  0.00  0.00    +0.000 A 
ATOM     11  O   UNL     1      -1.600  11.426  22.357  0.00  0.00    +0.000 OA
ATOM     12  C   UNL     1      -0.416  11.382  21.454  0.00  0.00    +0.000 A 
ATOM     13  C   UNL     1      -0.413  12.732  21.148  0.00  0.00    +0.000 A 
ATOM     14  C   UNL     1      -1.290  13.122  19.986  0.00  0.00    +0.000 C 
ATOM     15  C   UNL     1      -0.973  12.308  18.755  0.00  0.00    +0.000 C 
ATOM     16  C   UNL     1      -0.537  10.874  19.034  0.00  0.00    +0.000 A 
ATOM     17  C   UNL     1      -0.187  10.148  17.905  0.00  0.00    +0.000 A 
ATOM     18  N   UNL     1       0.628   9.097  17.917  0.00  0.00    +0.000 NA
ATOM     19  C   UNL     1       1.198   8.749  19.092  0.00  0.00    +0.000 A 
ATOM     20  C   UNL     1       0.780   9.337  20.325  0.00  0.00    +0.000 A 
ATOM     21  C   UNL     1      -0.177  10.391  20.320  0.00  0.00    +0.000 A 
ATOM     22  C   UNL     1      -3.907  13.960  22.412  0.00  0.00    +0.000 C 
ATOM     23  H   UNL     1      -1.540  15.701  21.911  0.00  0.00    +0.000 HD
ENDROOT
BRANCH  19  24
ATOM     24  C   UNL     1       2.320   7.772  18.857  0.00  0.00    +0.000 A 
ATOM     25  C   UNL     1       2.603   6.683  19.680  0.00  0.00    +0.000 A 
ATOM     26  C   UNL     1       3.595   5.730  19.344  0.00  0.00    +0.000 A 
ATOM     27  C   UNL     1       4.342   5.864  18.173  0.00  0.00    +0.000 A 
ATOM     28  C   UNL     1       4.121   6.942  17.344  0.00  0.00    +0.000 A 
ATOM     29  F   UNL     1       4.812   7.086  16.216  0.00  0.00    +0.000 F 
ATOM     30  C   UNL     1       3.117   7.888  17.682  0.00  0.00    +0.000 A 
ENDBRANCH  19  24
TORSDOF 1
ENDMDL
MODEL 8
REMARK VINA RESULT:      -7.6      2.785      3.509
REMARK  Name = 
REMARK  2 active torsions:
REMARK  status: ('A' for Active; 'I' for Inactive)
REMARK    1  A    between atoms: C_1  and  N_2
REMARK    2  A    between atoms: C_19  and  C_20
REMARK                            x       y       z     vdW  Elec       q    Type
REMARK                         _______ _______ _______ _____ _____    ______ ____
ROOT
ATOM      1  C   UNL     1      -2.340  18.141  22.959  0.00  0.00    +0.000 C 
ATOM      2  N   UNL     1      -2.707  17.035  22.117  0.00  0.00    +0.000 NA
ATOM      3  C   UNL     1      -2.103  16.925  20.722  0.00  0.00    +0.000 C 
ATOM      4  C   UNL     1      -2.522  15.405  20.860  0.00  0.00    +0.000 C 
ATOM      5  C   UNL     1      -4.076  15.382  20.622  0.00  0.00    +0.000 C 
ATOM      6  N   UNL     1      -4.620  14.134  21.092  0.00  0.00    +0.000 N 
ATOM      7  C   UNL     1      -4.210  13.049  20.383  0.00  0.00    +0.000 C 
ATOM      8  O   UNL     1      -4.951  12.166  19.971  0.00  0.00    +0.000 OA
ATOM      9  C   UNL     1      -2.760  12.951  20.320  0.00  0.00    +0.000 A 
ATOM     10  C   UNL     1      -1.866  14.029  20.345  0.00  0.00    +0.000 A 
ATOM     11  O   UNL     1      -0.544  13.399  20.335  0.00  0.00    +0.000 OA
ATOM     12  C   UNL     1      -0.819  11.937  20.398  0.00  0.00    +0.000 A 
ATOM     13  C   UNL     1      -2.017  12.041  21.084  0.00  0.00    +0.000 A 
ATOM     14  C   UNL     1      -1.887  12.086  22.585  0.00  0.00    +0.000 C 
ATOM     15  C   UNL     1      -1.087  10.917  23.107  0.00  0.00    +0.000 C 
ATOM     16  C   UNL     1       0.028  10.443  22.182  0.00  0.00    +0.000 A 
ATOM     17  C   UNL     1       0.720   9.330  22.636  0.00  0.00    +0.000 A 
ATOM     18  N   UNL     1       1.379   8.488  21.845  0.00  0.00    +0.000 NA
ATOM     19  C   UNL     1       1.324   8.694  20.510  0.00  0.00    +0.000 A 
ATOM     20  C   UNL     1       0.768   9.893  19.965  0.00  0.00    +0.000 A 
ATOM     21  C   UNL     1       0.159  10.848  20.826  0.00  0.00    +0.000 A 
ATOM     22  C   UNL     1      -2.017  15.742  22.357  0.00  0.00    +0.000 C 
ATOM     23  H   UNL     1      -4.427  14.011  22.074  0.00  0.00    +0.000 HD
ENDROOT
BRANCH  19  24
ATOM     24  C   UNL     1       1.834   7.483  19.774  0.00  0.00    +0.000 A 
ATOM     25  C   UNL     1       2.437   7.521  18.517  0.00  0.00    +0.000 A 
ATOM     26  C   UNL     1       3.006   6.366  17.928  0.00  0.00    +0.000 A 
ATOM     27  C   UNL     1       2.963   5.137  18.586  0.00  0.00    +0.000 A 
ATOM     28  C   UNL     1       2.348   5.043  19.815  0.00  0.00    +0.000 A 
ATOM     29  F   UNL     1       2.305   3.885  20.469  0.00  0.00    +0.000 F 
ATOM     30  C   UNL     1       1.790   6.208  20.407  0.00  0.00    +0.000 A 
ENDBRANCH  19  24
TORSDOF 1
ENDMDL
MODEL 9
REMARK VINA RESULT:      -7.5      3.766      8.726
REMARK  Name = 
REMARK  2 active torsions:
REMARK  status: ('A' for Active; 'I' for Inactive)
REMARK    1  A    between atoms: C_1  and  N_2
REMARK    2  A    between atoms: C_19  and  C_20
REMARK                            x       y       z     vdW  Elec       q    Type
REMARK                         _______ _______ _______ _____ _____    ______ ____
ROOT
ATOM      1  C   UNL     1       7.854   4.456  17.701  0.00  0.00    +0.000 C 
ATOM      2  N   UNL     1       6.439   4.354  17.934  0.00  0.00    +0.000 NA
ATOM      3  C   UNL     1       5.931   4.109  19.351  0.00  0.00    +0.000 C 
ATOM      4  C   UNL     1       4.579   4.689  18.769  0.00  0.00    +0.000 C 
ATOM      5  C   UNL     1       3.960   3.519  17.920  0.00  0.00    +0.000 C 
ATOM      6  N   UNL     1       2.940   4.040  17.046  0.00  0.00    +0.000 N 
ATOM      7  C   UNL     1       1.848   4.525  17.696  0.00  0.00    +0.000 C 
ATOM      8  O   UNL     1       0.690   4.270  17.395  0.00  0.00    +0.000 OA
ATOM      9  C   UNL     1       2.201   5.533  18.683  0.00  0.00    +0.000 A 
ATOM     10  C   UNL     1       3.404   5.592  19.398  0.00  0.00    +0.000 A 
ATOM     11  O   UNL     1       3.291   6.818  20.191  0.00  0.00    +0.000 OA
ATOM     12  C   UNL     1       2.000   7.427  19.766  0.00  0.00    +0.000 A 
ATOM     13  C   UNL     1       2.005   6.906  18.484  0.00  0.00    +0.000 A 
ATOM     14  C   UNL     1       2.737   7.739  17.463  0.00  0.00    +0.000 C 
ATOM     15  C   UNL     1       2.235   9.162  17.446  0.00  0.00    +0.000 C 
ATOM     16  C   UNL     1       1.789   9.698  18.801  0.00  0.00    +0.000 A 
ATOM     17  C   UNL     1       1.269  10.984  18.771  0.00  0.00    +0.000 A 
ATOM     18  N   UNL     1       0.426  11.469  19.677  0.00  0.00    +0.000 NA
ATOM     19  C   UNL     1       0.001  10.641  20.658  0.00  0.00    +0.000 A 
ATOM     20  C   UNL     1       0.596   9.357  20.857  0.00  0.00    +0.000 A 
ATOM     21  C   UNL     1       1.581   8.883  19.946  0.00  0.00    +0.000 A 
ATOM     22  C   UNL     1       5.674   5.622  18.037  0.00  0.00    +0.000 C 
ATOM     23  H   UNL     1       3.326   4.738  16.428  0.00  0.00    +0.000 HD
ENDROOT
BRANCH  19  24
ATOM     24  C   UNL     1      -1.176  11.246  21.376  0.00  0.00    +0.000 A 
ATOM     25  C   UNL     1      -1.386  11.166  22.753  0.00  0.00    +0.000 A 
ATOM     26  C   UNL     1      -2.446  11.857  23.388  0.00  0.00    +0.000 A 
ATOM     27  C   UNL     1      -3.336  12.632  22.644  0.00  0.00    +0.000 A 
ATOM     28  C   UNL     1      -3.190  12.715  21.277  0.00  0.00    +0.000 A 
ATOM     29  F   UNL     1      -4.018  13.458  20.547  0.00  0.00    +0.000 F 
ATOM     30  C   UNL     1      -2.116  12.029  20.647  0.00  0.00    +0.000 A 
ENDBRANCH  19  24
TORSDOF 1
ENDMDL
