MODEL 1
REMARK VINA RESULT:      -8.1      0.000      0.000
REMARK  Name = 
REMARK  6 active torsions:
REMARK  status: ('A' for Active; 'I' for Inactive)
REMARK    1  A    between atoms: C_1  and  S_2
REMARK    2  A    between atoms: S_2  and  C_3
REMARK    3  A    between atoms: C_8  and  N_9
REMARK    4  A    between atoms: C_10  and  C_12
REMARK    5  A    between atoms: N_16  and  C_17
REMARK    6  A    between atoms: C_17  and  C_18
REMARK                            x       y       z     vdW  Elec       q    Type
REMARK                         _______ _______ _______ _____ _____    ______ ____
ROOT
ATOM      1  N   UNL     1       8.186   7.999  18.797  0.00  0.00    +0.000 N 
ATOM      2  C   UNL     1       7.828   7.077  17.826  0.00  0.00    +0.000 C 
ATOM      3  O   UNL     1       7.823   7.275  16.612  0.00  0.00    +0.000 OA
ATOM      4  H   UNL     1       8.171   7.698  19.764  0.00  0.00    +0.000 HD
ENDROOT
BRANCH   1  10
ATOM      5  C   UNL     1      10.815  13.488  19.197  0.00  0.00    +0.000 A 
ATOM      6  N   UNL     1       9.897  13.322  18.275  0.00  0.00    +0.000 NA
ATOM      7  C   UNL     1       9.420  12.028  18.317  0.00  0.00    +0.000 A 
ATOM      8  C   UNL     1       8.427  11.501  17.478  0.00  0.00    +0.000 A 
ATOM      9  C   UNL     1       8.020  10.171  17.628  0.00  0.00    +0.000 A 
ATOM     10  C   UNL     1       8.583   9.347  18.600  0.00  0.00    +0.000 A 
ATOM     11  C   UNL     1       9.587   9.859  19.444  0.00  0.00    +0.000 A 
ATOM     12  C   UNL     1       9.988  11.203  19.286  0.00  0.00    +0.000 A 
ATOM     13  S   UNL     1      11.169  12.114  20.156  0.00  0.00    +0.000 S 
BRANCH   5  15
ATOM     14  C   UNL     1      10.908  15.549  20.992  0.00  0.00    +0.000 C 
ATOM     15  S   UNL     1      11.616  15.031  19.408  0.00  0.00    +0.000 S 
ENDBRANCH   5  15
ENDBRANCH   1  10
BRANCH   2  16
ATOM     16  C   UNL     1       7.378   5.705  18.345  0.00  0.00    +0.000 C 
ATOM     17  C   UNL     1       7.220   4.690  17.217  0.00  0.00    +0.000 C 
ATOM     18  C   UNL     1       5.771   4.865  16.830  0.00  0.00    +0.000 C 
ATOM     19  O   UNL     1       5.288   4.563  15.754  0.00  0.00    +0.000 OA
ATOM     20  N   UNL     1       5.124   5.482  17.890  0.00  0.00    +0.000 N 
ATOM     21  C   UNL     1       6.010   5.737  19.000  0.00  0.00    +0.000 C 
BRANCH  20  22
ATOM     22  C   UNL     1       3.709   5.803  17.928  0.00  0.00    +0.000 C 
BRANCH  22  23
ATOM     23  C   UNL     1       2.845   4.776  18.612  0.00  0.00    +0.000 A 
ATOM     24  C   UNL     1       2.492   4.923  19.962  0.00  0.00    +0.000 A 
ATOM     25  C   UNL     1       1.584   4.044  20.558  0.00  0.00    +0.000 A 
ATOM     26  C   UNL     1       1.025   3.004  19.816  0.00  0.00    +0.000 A 
ATOM     27  C   UNL     1       1.384   2.833  18.483  0.00  0.00    +0.000 A 
ATOM     28  C   UNL     1       2.288   3.712  17.885  0.00  0.00    +0.000 A 
ENDBRANCH  22  23
ENDBRANCH  20  22
ENDBRANCH   2  16
TORSDOF 5
ENDMDL
MODEL 2
REMARK VINA RESULT:      -8.0      1.511      1.916
REMARK  Name = 
REMARK  6 active torsions:
REMARK  status: ('A' for Active; 'I' for Inactive)
REMARK    1  A    between atoms: C_1  and  S_2
REMARK    2  A    between atoms: S_2  and  C_3
REMARK    3  A    between atoms: C_8  and  N_9
REMARK    4  A    between atoms: C_10  and  C_12
REMARK    5  A    between atoms: N_16  and  C_17
REMARK    6  A    between atoms: C_17  and  C_18
REMARK                            x       y       z     vdW  Elec       q    Type
REMARK                         _______ _______ _______ _____ _____    ______ ____
ROOT
ATOM      1  N   UNL     1       8.897   8.514  18.871  0.00  0.00    +0.000 N 
ATOM      2  C   UNL     1       7.940   8.028  17.994  0.00  0.00    +0.000 C 
ATOM      3  O   UNL     1       7.194   8.710  17.293  0.00  0.00    +0.000 OA
ATOM      4  H   UNL     1       9.465   7.840  19.371  0.00  0.00    +0.000 HD
ENDROOT
BRANCH   1  10
ATOM      5  C   UNL     1      10.637  14.354  18.627  0.00  0.00    +0.000 A 
ATOM      6  N   UNL     1      10.193  13.902  19.775  0.00  0.00    +0.000 NA
ATOM      7  C   UNL     1       9.835  12.576  19.649  0.00  0.00    +0.000 A 
ATOM      8  C   UNL     1       9.325  11.770  20.678  0.00  0.00    +0.000 A 
ATOM      9  C   UNL     1       9.008  10.431  20.426  0.00  0.00    +0.000 A 
ATOM     10  C   UNL     1       9.188   9.871  19.163  0.00  0.00    +0.000 A 
ATOM     11  C   UNL     1       9.691  10.668  18.118  0.00  0.00    +0.000 A 
ATOM     12  C   UNL     1      10.010  12.017  18.384  0.00  0.00    +0.000 A 
ATOM     13  S   UNL     1      10.643  13.232  17.333  0.00  0.00    +0.000 S 
BRANCH   5  15
ATOM     14  C   UNL     1      10.373  16.455  16.897  0.00  0.00    +0.000 C 
ATOM     15  S   UNL     1      11.181  16.010  18.456  0.00  0.00    +0.000 S 
ENDBRANCH   5  15
ENDBRANCH   1  10
BRANCH   2  16
ATOM     16  C   UNL     1       7.807   6.500  17.932  0.00  0.00    +0.000 C 
ATOM     17  C   UNL     1       7.190   6.032  16.617  0.00  0.00    +0.000 C 
ATOM     18  C   UNL     1       5.717   6.009  16.946  0.00  0.00    +0.000 C 
ATOM     19  O   UNL     1       4.813   6.073  16.133  0.00  0.00    +0.000 OA
ATOM     20  N   UNL     1       5.594   5.967  18.327  0.00  0.00    +0.000 N 
ATOM     21  C   UNL     1       6.876   5.942  18.991  0.00  0.00    +0.000 C 
BRANCH  20  22
ATOM     22  C   UNL     1       4.337   5.906  19.049  0.00  0.00    +0.000 C 
BRANCH  22  23
ATOM     23  C   UNL     1       3.531   4.656  18.812  0.00  0.00    +0.000 A 
ATOM     24  C   UNL     1       2.220   4.733  18.317  0.00  0.00    +0.000 A 
ATOM     25  C   UNL     1       1.521   3.573  17.972  0.00  0.00    +0.000 A 
ATOM     26  C   UNL     1       2.120   2.323  18.125  0.00  0.00    +0.000 A 
ATOM     27  C   UNL     1       3.411   2.231  18.636  0.00  0.00    +0.000 A 
ATOM     28  C   UNL     1       4.111   3.389  18.978  0.00  0.00    +0.000 A 
ENDBRANCH  22  23
ENDBRANCH  20  22
ENDBRANCH   2  16
TORSDOF 5
ENDMDL
MODEL 3
REMARK VINA RESULT:      -8.0      0.564      1.153
REMARK  Name = 
REMARK  6 active torsions:
REMARK  status: ('A' for Active; 'I' for Inactive)
REMARK    1  A    between atoms: C_1  and  S_2
REMARK    2  A    between atoms: S_2  and  C_3
REMARK    3  A    between atoms: C_8  and  N_9
REMARK    4  A    between atoms: C_10  and  C_12
REMARK    5  A    between atoms: N_16  and  C_17
REMARK    6  A    between atoms: C_17  and  C_18
REMARK                            x       y       z     vdW  Elec       q    Type
REMARK                         _______ _______ _______ _____ _____    ______ ____
ROOT
ATOM      1  N   UNL     1       8.163   8.060  18.802  0.00  0.00    +0.000 N 
ATOM      2  C   UNL     1       7.822   7.128  17.834  0.00  0.00    +0.000 C 
ATOM      3  O   UNL     1       7.868   7.304  16.618  0.00  0.00    +0.000 OA
ATOM      4  H   UNL     1       8.105   7.776  19.773  0.00  0.00    +0.000 HD
ENDROOT
BRANCH   1  10
ATOM      5  C   UNL     1      11.007  13.446  19.110  0.00  0.00    +0.000 A 
ATOM      6  N   UNL     1      10.031  13.326  18.243  0.00  0.00    +0.000 NA
ATOM      7  C   UNL     1       9.511  12.049  18.298  0.00  0.00    +0.000 A 
ATOM      8  C   UNL     1       8.451  11.568  17.514  0.00  0.00    +0.000 A 
ATOM      9  C   UNL     1       8.006  10.252  17.671  0.00  0.00    +0.000 A 
ATOM     10  C   UNL     1       8.596   9.395  18.598  0.00  0.00    +0.000 A 
ATOM     11  C   UNL     1       9.666   9.859  19.387  0.00  0.00    +0.000 A 
ATOM     12  C   UNL     1      10.106  11.191  19.222  0.00  0.00    +0.000 A 
ATOM     13  S   UNL     1      11.367  12.047  20.030  0.00  0.00    +0.000 S 
BRANCH   5  15
ATOM     14  C   UNL     1      11.705  15.630  17.619  0.00  0.00    +0.000 C 
ATOM     15  S   UNL     1      11.875  14.957  19.291  0.00  0.00    +0.000 S 
ENDBRANCH   5  15
ENDBRANCH   1  10
BRANCH   2  16
ATOM     16  C   UNL     1       7.324   5.775  18.359  0.00  0.00    +0.000 C 
ATOM     17  C   UNL     1       7.153   4.754  17.237  0.00  0.00    +0.000 C 
ATOM     18  C   UNL     1       5.716   4.968  16.826  0.00  0.00    +0.000 C 
ATOM     19  O   UNL     1       5.241   4.671  15.745  0.00  0.00    +0.000 OA
ATOM     20  N   UNL     1       5.071   5.615  17.870  0.00  0.00    +0.000 N 
ATOM     21  C   UNL     1       5.948   5.854  18.992  0.00  0.00    +0.000 C 
BRANCH  20  22
ATOM     22  C   UNL     1       3.666   5.978  17.883  0.00  0.00    +0.000 C 
BRANCH  22  23
ATOM     23  C   UNL     1       2.755   4.959  18.516  0.00  0.00    +0.000 A 
ATOM     24  C   UNL     1       2.279   3.866  17.776  0.00  0.00    +0.000 A 
ATOM     25  C   UNL     1       1.545   2.853  18.398  0.00  0.00    +0.000 A 
ATOM     26  C   UNL     1       1.269   2.924  19.763  0.00  0.00    +0.000 A 
ATOM     27  C   UNL     1       1.714   4.015  20.504  0.00  0.00    +0.000 A 
ATOM     28  C   UNL     1       2.451   5.025  19.885  0.00  0.00    +0.000 A 
ENDBRANCH  22  23
ENDBRANCH  20  22
ENDBRANCH   2  16
TORSDOF 5
ENDMDL
MODEL 4
REMARK VINA RESULT:      -8.0      1.632      2.174
REMARK  Name = 
REMARK  6 active torsions:
REMARK  status: ('A' for Active; 'I' for Inactive)
REMARK    1  A    between atoms: C_1  and  S_2
REMARK    2  A    between atoms: S_2  and  C_3
REMARK    3  A    between atoms: C_8  and  N_9
REMARK    4  A    between atoms: C_10  and  C_12
REMARK    5  A    between atoms: N_16  and  C_17
REMARK    6  A    between atoms: C_17  and  C_18
REMARK                            x       y       z     vdW  Elec       q    Type
REMARK                         _______ _______ _______ _____ _____    ______ ____
ROOT
ATOM      1  N   UNL     1       7.698   8.661  17.514  0.00  0.00    +0.000 N 
ATOM      2  C   UNL     1       7.731   7.341  17.936  0.00  0.00    +0.000 C 
ATOM      3  O   UNL     1       8.316   6.919  18.932  0.00  0.00    +0.000 OA
ATOM      4  H   UNL     1       7.155   8.880  16.687  0.00  0.00    +0.000 HD
ENDROOT
BRANCH   1  10
ATOM      5  C   UNL     1       9.738  14.231  18.932  0.00  0.00    +0.000 A 
ATOM      6  N   UNL     1      10.184  13.224  19.643  0.00  0.00    +0.000 NA
ATOM      7  C   UNL     1       9.616  12.048  19.198  0.00  0.00    +0.000 A 
ATOM      8  C   UNL     1       9.868  10.773  19.725  0.00  0.00    +0.000 A 
ATOM      9  C   UNL     1       9.234   9.652  19.177  0.00  0.00    +0.000 A 
ATOM     10  C   UNL     1       8.347   9.773  18.109  0.00  0.00    +0.000 A 
ATOM     11  C   UNL     1       8.076  11.047  17.575  0.00  0.00    +0.000 A 
ATOM     12  C   UNL     1       8.724  12.170  18.133  0.00  0.00    +0.000 A 
ATOM     13  S   UNL     1       8.611  13.838  17.703  0.00  0.00    +0.000 S 
BRANCH   5  15
ATOM     14  C   UNL     1       8.858  16.801  18.614  0.00  0.00    +0.000 C 
ATOM     15  S   UNL     1      10.277  15.868  19.245  0.00  0.00    +0.000 S 
ENDBRANCH   5  15
ENDBRANCH   1  10
BRANCH   2  16
ATOM     16  C   UNL     1       6.981   6.339  17.048  0.00  0.00    +0.000 C 
ATOM     17  C   UNL     1       5.631   6.882  16.587  0.00  0.00    +0.000 C 
ATOM     18  C   UNL     1       4.703   6.401  17.675  0.00  0.00    +0.000 C 
ATOM     19  O   UNL     1       3.624   6.893  17.950  0.00  0.00    +0.000 OA
ATOM     20  N   UNL     1       5.332   5.353  18.332  0.00  0.00    +0.000 N 
ATOM     21  C   UNL     1       6.628   5.053  17.771  0.00  0.00    +0.000 C 
BRANCH  20  22
ATOM     22  C   UNL     1       4.760   4.595  19.429  0.00  0.00    +0.000 C 
BRANCH  22  23
ATOM     23  C   UNL     1       3.436   3.942  19.124  0.00  0.00    +0.000 A 
ATOM     24  C   UNL     1       3.336   2.961  18.125  0.00  0.00    +0.000 A 
ATOM     25  C   UNL     1       2.141   2.262  17.934  0.00  0.00    +0.000 A 
ATOM     26  C   UNL     1       1.032   2.541  18.732  0.00  0.00    +0.000 A 
ATOM     27  C   UNL     1       1.110   3.528  19.710  0.00  0.00    +0.000 A 
ATOM     28  C   UNL     1       2.304   4.223  19.904  0.00  0.00    +0.000 A 
ENDBRANCH  22  23
ENDBRANCH  20  22
ENDBRANCH   2  16
TORSDOF 5
ENDMDL
MODEL 5
REMARK VINA RESULT:      -7.9      1.415      1.823
REMARK  Name = 
REMARK  6 active torsions:
REMARK  status: ('A' for Active; 'I' for Inactive)
REMARK    1  A    between atoms: C_1  and  S_2
REMARK    2  A    between atoms: S_2  and  C_3
REMARK    3  A    between atoms: C_8  and  N_9
REMARK    4  A    between atoms: C_10  and  C_12
REMARK    5  A    between atoms: N_16  and  C_17
REMARK    6  A    between atoms: C_17  and  C_18
REMARK                            x       y       z     vdW  Elec       q    Type
REMARK                         _______ _______ _______ _____ _____    ______ ____
ROOT
ATOM      1  N   UNL     1       8.819   8.519  18.892  0.00  0.00    +0.000 N 
ATOM      2  C   UNL     1       7.896   8.073  17.959  0.00  0.00    +0.000 C 
ATOM      3  O   UNL     1       7.242   8.784  17.198  0.00  0.00    +0.000 OA
ATOM      4  H   UNL     1       9.311   7.824  19.441  0.00  0.00    +0.000 HD
ENDROOT
BRANCH   1  10
ATOM      5  C   UNL     1      10.653  14.328  18.593  0.00  0.00    +0.000 A 
ATOM      6  N   UNL     1      10.328  13.856  19.772  0.00  0.00    +0.000 NA
ATOM      7  C   UNL     1       9.928  12.541  19.656  0.00  0.00    +0.000 A 
ATOM      8  C   UNL     1       9.516  11.720  20.716  0.00  0.00    +0.000 A 
ATOM      9  C   UNL     1       9.143  10.394  20.469  0.00  0.00    +0.000 A 
ATOM     10  C   UNL     1       9.171   9.863  19.182  0.00  0.00    +0.000 A 
ATOM     11  C   UNL     1       9.574  10.676  18.106  0.00  0.00    +0.000 A 
ATOM     12  C   UNL     1       9.951  12.011  18.366  0.00  0.00    +0.000 A 
ATOM     13  S   UNL     1      10.492  13.239  17.280  0.00  0.00    +0.000 S 
BRANCH   5  15
ATOM     14  C   UNL     1      11.697  16.354  20.104  0.00  0.00    +0.000 C 
ATOM     15  S   UNL     1      11.212  15.977  18.401  0.00  0.00    +0.000 S 
ENDBRANCH   5  15
ENDBRANCH   1  10
BRANCH   2  16
ATOM     16  C   UNL     1       7.676   6.555  17.913  0.00  0.00    +0.000 C 
ATOM     17  C   UNL     1       7.463   6.051  16.489  0.00  0.00    +0.000 C 
ATOM     18  C   UNL     1       5.963   6.134  16.341  0.00  0.00    +0.000 C 
ATOM     19  O   UNL     1       5.362   6.205  15.285  0.00  0.00    +0.000 OA
ATOM     20  N   UNL     1       5.416   6.178  17.616  0.00  0.00    +0.000 N 
ATOM     21  C   UNL     1       6.424   6.115  18.647  0.00  0.00    +0.000 C 
BRANCH  20  22
ATOM     22  C   UNL     1       3.997   6.233  17.910  0.00  0.00    +0.000 C 
BRANCH  22  23
ATOM     23  C   UNL     1       3.294   4.901  17.890  0.00  0.00    +0.000 A 
ATOM     24  C   UNL     1       4.017   3.713  17.701  0.00  0.00    +0.000 A 
ATOM     25  C   UNL     1       3.386   2.471  17.815  0.00  0.00    +0.000 A 
ATOM     26  C   UNL     1       2.025   2.402  18.112  0.00  0.00    +0.000 A 
ATOM     27  C   UNL     1       1.291   3.572  18.278  0.00  0.00    +0.000 A 
ATOM     28  C   UNL     1       1.921   4.812  18.168  0.00  0.00    +0.000 A 
ENDBRANCH  22  23
ENDBRANCH  20  22
ENDBRANCH   2  16
TORSDOF 5
ENDMDL
MODEL 6
REMARK VINA RESULT:      -7.9      0.902      1.070
REMARK  Name = 
REMARK  6 active torsions:
REMARK  status: ('A' for Active; 'I' for Inactive)
REMARK    1  A    between atoms: C_1  and  S_2
REMARK    2  A    between atoms: S_2  and  C_3
REMARK    3  A    between atoms: C_8  and  N_9
REMARK    4  A    between atoms: C_10  and  C_12
REMARK    5  A    between atoms: N_16  and  C_17
REMARK    6  A    between atoms: C_17  and  C_18
REMARK                            x       y       z     vdW  Elec       q    Type
REMARK                         _______ _______ _______ _____ _____    ______ ____
ROOT
ATOM      1  N   UNL     1       8.512   8.139  18.752  0.00  0.00    +0.000 N 
ATOM      2  C   UNL     1       7.821   7.361  17.837  0.00  0.00    +0.000 C 
ATOM      3  O   UNL     1       7.317   7.761  16.788  0.00  0.00    +0.000 OA
ATOM      4  H   UNL     1       8.901   7.678  19.567  0.00  0.00    +0.000 HD
ENDROOT
BRANCH   1  10
ATOM      5  C   UNL     1      10.297  13.868  19.842  0.00  0.00    +0.000 A 
ATOM      6  N   UNL     1       9.559  13.656  18.780  0.00  0.00    +0.000 NA
ATOM      7  C   UNL     1       9.257  12.313  18.679  0.00  0.00    +0.000 A 
ATOM      8  C   UNL     1       8.480  11.727  17.669  0.00  0.00    +0.000 A 
ATOM      9  C   UNL     1       8.236  10.350  17.684  0.00  0.00    +0.000 A 
ATOM     10  C   UNL     1       8.752   9.536  18.690  0.00  0.00    +0.000 A 
ATOM     11  C   UNL     1       9.540  10.106  19.707  0.00  0.00    +0.000 A 
ATOM     12  C   UNL     1       9.778  11.498  19.684  0.00  0.00    +0.000 A 
ATOM     13  S   UNL     1      10.682  12.483  20.774  0.00  0.00    +0.000 S 
BRANCH   5  15
ATOM     14  C   UNL     1       9.997  15.712  21.839  0.00  0.00    +0.000 C 
ATOM     15  S   UNL     1      10.845  15.479  20.256  0.00  0.00    +0.000 S 
ENDBRANCH   5  15
ENDBRANCH   1  10
BRANCH   2  16
ATOM     16  C   UNL     1       7.665   5.880  18.205  0.00  0.00    +0.000 C 
ATOM     17  C   UNL     1       7.112   5.057  17.045  0.00  0.00    +0.000 C 
ATOM     18  C   UNL     1       5.623   5.130  17.281  0.00  0.00    +0.000 C 
ATOM     19  O   UNL     1       4.766   4.961  16.434  0.00  0.00    +0.000 OA
ATOM     20  N   UNL     1       5.425   5.484  18.608  0.00  0.00    +0.000 N 
ATOM     21  C   UNL     1       6.667   5.648  19.324  0.00  0.00    +0.000 C 
BRANCH  20  22
ATOM     22  C   UNL     1       4.129   5.633  19.244  0.00  0.00    +0.000 C 
BRANCH  22  23
ATOM     23  C   UNL     1       3.223   4.435  19.124  0.00  0.00    +0.000 A 
ATOM     24  C   UNL     1       1.962   4.550  18.519  0.00  0.00    +0.000 A 
ATOM     25  C   UNL     1       1.179   3.415  18.288  0.00  0.00    +0.000 A 
ATOM     26  C   UNL     1       1.643   2.155  18.666  0.00  0.00    +0.000 A 
ATOM     27  C   UNL     1       2.882   2.030  19.288  0.00  0.00    +0.000 A 
ATOM     28  C   UNL     1       3.666   3.162  19.515  0.00  0.00    +0.000 A 
ENDBRANCH  22  23
ENDBRANCH  20  22
ENDBRANCH   2  16
TORSDOF 5
ENDMDL
MODEL 7
REMARK VINA RESULT:      -7.8      1.556      1.968
REMARK  Name = 
REMARK  6 active torsions:
REMARK  status: ('A' for Active; 'I' for Inactive)
REMARK    1  A    between atoms: C_1  and  S_2
REMARK    2  A    between atoms: S_2  and  C_3
REMARK    3  A    between atoms: C_8  and  N_9
REMARK    4  A    between atoms: C_10  and  C_12
REMARK    5  A    between atoms: N_16  and  C_17
REMARK    6  A    between atoms: C_17  and  C_18
REMARK                            x       y       z     vdW  Elec       q    Type
REMARK                         _______ _______ _______ _____ _____    ______ ____
ROOT
ATOM      1  N   UNL     1       7.800   8.652  17.589  0.00  0.00    +0.000 N 
ATOM      2  C   UNL     1       7.789   7.313  17.948  0.00  0.00    +0.000 C 
ATOM      3  O   UNL     1       8.354   6.827  18.926  0.00  0.00    +0.000 OA
ATOM      4  H   UNL     1       7.269   8.927  16.770  0.00  0.00    +0.000 HD
ENDROOT
BRANCH   1  10
ATOM      5  C   UNL     1      10.386  13.978  19.049  0.00  0.00    +0.000 A 
ATOM      6  N   UNL     1      10.480  13.002  19.919  0.00  0.00    +0.000 NA
ATOM      7  C   UNL     1       9.835  11.882  19.436  0.00  0.00    +0.000 A 
ATOM      8  C   UNL     1       9.739  10.649  20.100  0.00  0.00    +0.000 A 
ATOM      9  C   UNL     1       9.064   9.582  19.498  0.00  0.00    +0.000 A 
ATOM     10  C   UNL     1       8.477   9.714  18.241  0.00  0.00    +0.000 A 
ATOM     11  C   UNL     1       8.556  10.947  17.566  0.00  0.00    +0.000 A 
ATOM     12  C   UNL     1       9.242  12.017  18.181  0.00  0.00    +0.000 A 
ATOM     13  S   UNL     1       9.517  13.624  17.617  0.00  0.00    +0.000 S 
BRANCH   5  15
ATOM     14  C   UNL     1       9.857  16.631  18.644  0.00  0.00    +0.000 C 
ATOM     15  S   UNL     1      11.112  15.542  19.363  0.00  0.00    +0.000 S 
ENDBRANCH   5  15
ENDBRANCH   1  10
BRANCH   2  16
ATOM     16  C   UNL     1       7.017   6.378  17.008  0.00  0.00    +0.000 C 
ATOM     17  C   UNL     1       5.593   6.868  16.756  0.00  0.00    +0.000 C 
ATOM     18  C   UNL     1       4.819   6.179  17.854  0.00  0.00    +0.000 C 
ATOM     19  O   UNL     1       3.745   6.546  18.295  0.00  0.00    +0.000 OA
ATOM     20  N   UNL     1       5.581   5.109  18.298  0.00  0.00    +0.000 N 
ATOM     21  C   UNL     1       6.827   4.986  17.580  0.00  0.00    +0.000 C 
BRANCH  20  22
ATOM     22  C   UNL     1       5.178   4.173  19.332  0.00  0.00    +0.000 C 
BRANCH  22  23
ATOM     23  C   UNL     1       3.841   3.516  19.104  0.00  0.00    +0.000 A 
ATOM     24  C   UNL     1       2.787   3.707  20.011  0.00  0.00    +0.000 A 
ATOM     25  C   UNL     1       1.512   3.208  19.732  0.00  0.00    +0.000 A 
ATOM     26  C   UNL     1       1.277   2.507  18.550  0.00  0.00    +0.000 A 
ATOM     27  C   UNL     1       2.319   2.290  17.653  0.00  0.00    +0.000 A 
ATOM     28  C   UNL     1       3.592   2.791  17.929  0.00  0.00    +0.000 A 
ENDBRANCH  22  23
ENDBRANCH  20  22
ENDBRANCH   2  16
TORSDOF 5
ENDMDL
MODEL 8
REMARK VINA RESULT:      -7.8      1.268      1.365
REMARK  Name = 
REMARK  6 active torsions:
REMARK  status: ('A' for Active; 'I' for Inactive)
REMARK    1  A    between atoms: C_1  and  S_2
REMARK    2  A    between atoms: S_2  and  C_3
REMARK    3  A    between atoms: C_8  and  N_9
REMARK    4  A    between atoms: C_10  and  C_12
REMARK    5  A    between atoms: N_16  and  C_17
REMARK    6  A    between atoms: C_17  and  C_18
REMARK                            x       y       z     vdW  Elec       q    Type
REMARK                         _______ _______ _______ _____ _____    ______ ____
ROOT
ATOM      1  N   UNL     1       8.708   8.447  18.771  0.00  0.00    +0.000 N 
ATOM      2  C   UNL     1       7.766   7.958  17.880  0.00  0.00    +0.000 C 
ATOM      3  O   UNL     1       7.142   8.623  17.056  0.00  0.00    +0.000 OA
ATOM      4  H   UNL     1       9.171   7.784  19.382  0.00  0.00    +0.000 HD
ENDROOT
BRANCH   1  10
ATOM      5  C   UNL     1      10.028  13.973  20.990  0.00  0.00    +0.000 A 
ATOM      6  N   UNL     1      10.205  13.778  19.705  0.00  0.00    +0.000 NA
ATOM      7  C   UNL     1       9.871  12.480  19.378  0.00  0.00    +0.000 A 
ATOM      8  C   UNL     1       9.933  11.924  18.091  0.00  0.00    +0.000 A 
ATOM      9  C   UNL     1       9.556  10.593  17.886  0.00  0.00    +0.000 A 
ATOM     10  C   UNL     1       9.117   9.795  18.940  0.00  0.00    +0.000 A 
ATOM     11  C   UNL     1       9.057  10.335  20.239  0.00  0.00    +0.000 A 
ATOM     12  C   UNL     1       9.437  11.680  20.435  0.00  0.00    +0.000 A 
ATOM     13  S   UNL     1       9.467  12.622  21.881  0.00  0.00    +0.000 S 
BRANCH   5  15
ATOM     14  C   UNL     1      11.148  16.380  20.333  0.00  0.00    +0.000 C 
ATOM     15  S   UNL     1      10.358  15.529  21.723  0.00  0.00    +0.000 S 
ENDBRANCH   5  15
ENDBRANCH   1  10
BRANCH   2  16
ATOM     16  C   UNL     1       7.483   6.452  17.970  0.00  0.00    +0.000 C 
ATOM     17  C   UNL     1       7.407   5.800  16.593  0.00  0.00    +0.000 C 
ATOM     18  C   UNL     1       5.939   5.917  16.263  0.00  0.00    +0.000 C 
ATOM     19  O   UNL     1       5.464   5.891  15.143  0.00  0.00    +0.000 OA
ATOM     20  N   UNL     1       5.256   6.121  17.454  0.00  0.00    +0.000 N 
ATOM     21  C   UNL     1       6.138   6.138  18.596  0.00  0.00    +0.000 C 
BRANCH  20  22
ATOM     22  C   UNL     1       3.816   6.256  17.573  0.00  0.00    +0.000 C 
BRANCH  22  23
ATOM     23  C   UNL     1       3.096   5.006  18.008  0.00  0.00    +0.000 A 
ATOM     24  C   UNL     1       2.181   5.039  19.071  0.00  0.00    +0.000 A 
ATOM     25  C   UNL     1       1.417   3.913  19.386  0.00  0.00    +0.000 A 
ATOM     26  C   UNL     1       1.564   2.738  18.649  0.00  0.00    +0.000 A 
ATOM     27  C   UNL     1       2.485   2.684  17.607  0.00  0.00    +0.000 A 
ATOM     28  C   UNL     1       3.246   3.809  17.289  0.00  0.00    +0.000 A 
ENDBRANCH  22  23
ENDBRANCH  20  22
ENDBRANCH   2  16
TORSDOF 5
ENDMDL
MODEL 9
REMARK VINA RESULT:      -7.8      5.925      7.713
REMARK  Name = 
REMARK  6 active torsions:
REMARK  status: ('A' for Active; 'I' for Inactive)
REMARK    1  A    between atoms: C_1  and  S_2
REMARK    2  A    between atoms: S_2  and  C_3
REMARK    3  A    between atoms: C_8  and  N_9
REMARK    4  A    between atoms: C_10  and  C_12
REMARK    5  A    between atoms: N_16  and  C_17
REMARK    6  A    between atoms: C_17  and  C_18
REMARK                            x       y       z     vdW  Elec       q    Type
REMARK                         _______ _______ _______ _____ _____    ______ ____
ROOT
ATOM      1  N   UNL     1       3.204   6.073  18.394  0.00  0.00    +0.000 N 
ATOM      2  C   UNL     1       2.667   4.902  17.883  0.00  0.00    +0.000 C 
ATOM      3  O   UNL     1       1.484   4.714  17.607  0.00  0.00    +0.000 OA
ATOM      4  H   UNL     1       4.204   6.105  18.553  0.00  0.00    +0.000 HD
ENDROOT
BRANCH   1  10
ATOM      5  C   UNL     1       0.105  10.483  21.248  0.00  0.00    +0.000 A 
ATOM      6  N   UNL     1       0.378  10.660  19.978  0.00  0.00    +0.000 NA
ATOM      7  C   UNL     1       1.088   9.580  19.497  0.00  0.00    +0.000 A 
ATOM      8  C   UNL     1       1.542   9.427  18.178  0.00  0.00    +0.000 A 
ATOM      9  C   UNL     1       2.246   8.275  17.810  0.00  0.00    +0.000 A 
ATOM     10  C   UNL     1       2.510   7.264  18.731  0.00  0.00    +0.000 A 
ATOM     11  C   UNL     1       2.069   7.406  20.061  0.00  0.00    +0.000 A 
ATOM     12  C   UNL     1       1.358   8.571  20.421  0.00  0.00    +0.000 A 
ATOM     13  S   UNL     1       0.688   9.030  21.944  0.00  0.00    +0.000 S 
BRANCH   5  15
ATOM     14  C   UNL     1      -1.910  12.292  20.865  0.00  0.00    +0.000 C 
ATOM     15  S   UNL     1      -0.797  11.680  22.155  0.00  0.00    +0.000 S 
ENDBRANCH   5  15
ENDBRANCH   1  10
BRANCH   2  16
ATOM     16  C   UNL     1       3.659   3.750  17.677  0.00  0.00    +0.000 C 
ATOM     17  C   UNL     1       4.646   3.631  18.834  0.00  0.00    +0.000 C 
ATOM     18  C   UNL     1       5.785   4.509  18.375  0.00  0.00    +0.000 C 
ATOM     19  O   UNL     1       6.612   5.028  19.102  0.00  0.00    +0.000 OA
ATOM     20  N   UNL     1       5.671   4.661  17.000  0.00  0.00    +0.000 N 
ATOM     21  C   UNL     1       4.544   3.938  16.460  0.00  0.00    +0.000 C 
BRANCH  20  22
ATOM     22  C   UNL     1       6.590   5.414  16.168  0.00  0.00    +0.000 C 
BRANCH  22  23
ATOM     23  C   UNL     1       6.764   4.878  14.771  0.00  0.00    +0.000 A 
ATOM     24  C   UNL     1       5.933   3.855  14.289  0.00  0.00    +0.000 A 
ATOM     25  C   UNL     1       6.005   3.451  12.953  0.00  0.00    +0.000 A 
ATOM     26  C   UNL     1       6.913   4.058  12.086  0.00  0.00    +0.000 A 
ATOM     27  C   UNL     1       7.760   5.057  12.557  0.00  0.00    +0.000 A 
ATOM     28  C   UNL     1       7.685   5.464  13.889  0.00  0.00    +0.000 A 
ENDBRANCH  22  23
ENDBRANCH  20  22
ENDBRANCH   2  16
TORSDOF 5
ENDMDL
