MODEL 1
REMARK VINA RESULT:      -7.5      0.000      0.000
REMARK  Name = 
REMARK  6 active torsions:
REMARK  status: ('A' for Active; 'I' for Inactive)
REMARK    1  A    between atoms: C_1  and  O_2
REMARK    2  A    between atoms: O_2  and  C_3
REMARK    3  A    between atoms: C_8  and  N_9
REMARK    4  A    between atoms: C_13  and  C_14
REMARK    5  A    between atoms: C_23  and  C_25
REMARK    6  A    between atoms: C_28  and  C_29
REMARK                            x       y       z     vdW  Elec       q    Type
REMARK                         _______ _______ _______ _____ _____    ______ ____
ROOT
ATOM      1  N   UNL     1      -2.549  13.168  21.130  0.00  0.00    +0.000 N 
ATOM      2  C   UNL     1      -1.494  14.047  21.223  0.00  0.00    +0.000 C 
ATOM      3  O   UNL     1      -1.172  14.791  22.148  0.00  0.00    +0.000 OA
ATOM      4  C   UNL     1      -0.649  13.985  19.988  0.00  0.00    +0.000 C 
ATOM      5  C   UNL     1       0.741  13.484  20.389  0.00  0.00    +0.000 C 
ATOM      6  N   UNL     1       0.631  12.018  20.307  0.00  0.00    +0.000 NA
ATOM      7  N   UNL     1      -0.429  11.722  19.421  0.00  0.00    +0.000 N 
ATOM      8  C   UNL     1      -0.433  10.577  18.601  0.00  0.00    +0.000 C 
ATOM      9  O   UNL     1      -1.286  10.394  17.742  0.00  0.00    +0.000 OA
ATOM     10  C   UNL     1      -1.287  12.877  19.184  0.00  0.00    +0.000 C 
ATOM     11  C   UNL     1      -2.639  12.683  19.841  0.00  0.00    +0.000 C 
ATOM     12  O   UNL     1      -3.620  12.263  19.245  0.00  0.00    +0.000 OA
ATOM     13  H   UNL     1       0.398  11.624  21.224  0.00  0.00    +0.000 HD
ENDROOT
BRANCH   5  14
ATOM     14  C   UNL     1       1.853  13.998  19.490  0.00  0.00    +0.000 A 
ATOM     15  C   UNL     1       2.608  13.152  18.659  0.00  0.00    +0.000 A 
ATOM     16  C   UNL     1       3.619  13.662  17.839  0.00  0.00    +0.000 A 
ATOM     17  C   UNL     1       3.897  15.026  17.834  0.00  0.00    +0.000 A 
ATOM     18  C   UNL     1       3.170  15.880  18.659  0.00  0.00    +0.000 A 
ATOM     19  C   UNL     1       2.165  15.365  19.477  0.00  0.00    +0.000 A 
ATOM     20  F   UNL     1       1.491  16.215  20.266  0.00  0.00    +0.000 F 
ENDBRANCH   5  14
BRANCH   8  21
ATOM     21  C   UNL     1       0.628   9.545  18.816  0.00  0.00    +0.000 A 
ATOM     22  C   UNL     1       1.467   9.191  17.752  0.00  0.00    +0.000 A 
ATOM     23  C   UNL     1       2.423   8.178  17.915  0.00  0.00    +0.000 A 
ATOM     24  C   UNL     1       2.543   7.500  19.137  0.00  0.00    +0.000 A 
ATOM     25  C   UNL     1       3.539   6.400  19.347  0.00  0.00    +0.000 C 
ATOM     26  C   UNL     1       1.728   7.873  20.203  0.00  0.00    +0.000 A 
ATOM     27  C   UNL     1       0.817   8.913  20.053  0.00  0.00    +0.000 A 
ENDBRANCH   8  21
BRANCH   1  33
ATOM     28  C   UNL     1      -3.033  12.326  23.466  0.00  0.00    +0.000 A 
ATOM     29  C   UNL     1      -3.956  12.257  24.534  0.00  0.00    +0.000 A 
ATOM     30  C   UNL     1      -5.282  12.631  24.376  0.00  0.00    +0.000 A 
ATOM     31  C   UNL     1      -5.714  13.087  23.149  0.00  0.00    +0.000 A 
ATOM     32  C   UNL     1      -4.806  13.197  22.093  0.00  0.00    +0.000 A 
ATOM     33  C   UNL     1      -3.442  12.861  22.217  0.00  0.00    +0.000 A 
BRANCH  28  35
ATOM     34  C   UNL     1      -1.319  10.741  23.122  0.00  0.00    +0.000 C 
ATOM     35  O   UNL     1      -1.722  11.991  23.697  0.00  0.00    +0.000 OA
ENDBRANCH  28  35
ENDBRANCH   1  33
TORSDOF 4
ENDMDL
MODEL 2
REMARK VINA RESULT:      -7.4      3.005      7.256
REMARK  Name = 
REMARK  6 active torsions:
REMARK  status: ('A' for Active; 'I' for Inactive)
REMARK    1  A    between atoms: C_1  and  O_2
REMARK    2  A    between atoms: O_2  and  C_3
REMARK    3  A    between atoms: C_8  and  N_9
REMARK    4  A    between atoms: C_13  and  C_14
REMARK    5  A    between atoms: C_23  and  C_25
REMARK    6  A    between atoms: C_28  and  C_29
REMARK                            x       y       z     vdW  Elec       q    Type
REMARK                         _______ _______ _______ _____ _____    ______ ____
ROOT
ATOM      1  N   UNL     1       2.071  14.402  19.222  0.00  0.00    +0.000 N 
ATOM      2  C   UNL     1       1.789  13.198  18.618  0.00  0.00    +0.000 C 
ATOM      3  O   UNL     1       2.520  12.227  18.422  0.00  0.00    +0.000 OA
ATOM      4  C   UNL     1       0.348  13.137  18.215  0.00  0.00    +0.000 C 
ATOM      5  C   UNL     1      -0.321  12.013  19.009  0.00  0.00    +0.000 C 
ATOM      6  N   UNL     1      -0.765  12.667  20.251  0.00  0.00    +0.000 NA
ATOM      7  N   UNL     1      -0.896  14.048  19.980  0.00  0.00    +0.000 N 
ATOM      8  C   UNL     1      -1.857  14.856  20.616  0.00  0.00    +0.000 C 
ATOM      9  O   UNL     1      -2.056  16.017  20.283  0.00  0.00    +0.000 OA
ATOM     10  C   UNL     1      -0.218  14.433  18.748  0.00  0.00    +0.000 C 
ATOM     11  C   UNL     1       1.010  15.268  19.052  0.00  0.00    +0.000 C 
ATOM     12  O   UNL     1       1.012  16.490  19.030  0.00  0.00    +0.000 OA
ATOM     13  H   UNL     1      -0.061  12.554  20.988  0.00  0.00    +0.000 HD
ENDROOT
BRANCH   5  14
ATOM     14  C   UNL     1      -1.492  11.372  18.283  0.00  0.00    +0.000 A 
ATOM     15  C   UNL     1      -2.795  11.897  18.334  0.00  0.00    +0.000 A 
ATOM     16  C   UNL     1      -3.847  11.284  17.647  0.00  0.00    +0.000 A 
ATOM     17  C   UNL     1      -3.618  10.132  16.898  0.00  0.00    +0.000 A 
ATOM     18  C   UNL     1      -2.338   9.588  16.845  0.00  0.00    +0.000 A 
ATOM     19  C   UNL     1      -1.294  10.203  17.535  0.00  0.00    +0.000 A 
ATOM     20  F   UNL     1      -0.076   9.646  17.471  0.00  0.00    +0.000 F 
ENDBRANCH   5  14
BRANCH   8  21
ATOM     21  C   UNL     1      -2.634  14.276  21.755  0.00  0.00    +0.000 A 
ATOM     22  C   UNL     1      -2.165  14.447  23.064  0.00  0.00    +0.000 A 
ATOM     23  C   UNL     1      -2.843  13.854  24.138  0.00  0.00    +0.000 A 
ATOM     24  C   UNL     1      -3.987  13.074  23.917  0.00  0.00    +0.000 A 
ATOM     25  C   UNL     1      -4.731  12.409  25.036  0.00  0.00    +0.000 C 
ATOM     26  C   UNL     1      -4.470  12.930  22.619  0.00  0.00    +0.000 A 
ATOM     27  C   UNL     1      -3.825  13.562  21.561  0.00  0.00    +0.000 A 
ENDBRANCH   8  21
BRANCH   1  33
ATOM     28  C   UNL     1       3.510  14.684  21.283  0.00  0.00    +0.000 A 
ATOM     29  C   UNL     1       4.817  14.791  21.811  0.00  0.00    +0.000 A 
ATOM     30  C   UNL     1       5.920  14.990  20.994  0.00  0.00    +0.000 A 
ATOM     31  C   UNL     1       5.742  15.081  19.630  0.00  0.00    +0.000 A 
ATOM     32  C   UNL     1       4.461  14.941  19.088  0.00  0.00    +0.000 A 
ATOM     33  C   UNL     1       3.317  14.704  19.877  0.00  0.00    +0.000 A 
BRANCH  28  35
ATOM     34  C   UNL     1       1.714  15.599  22.509  0.00  0.00    +0.000 C 
ATOM     35  O   UNL     1       2.466  14.436  22.137  0.00  0.00    +0.000 OA
ENDBRANCH  28  35
ENDBRANCH   1  33
TORSDOF 4
ENDMDL
MODEL 3
REMARK VINA RESULT:      -7.4      3.025      6.113
REMARK  Name = 
REMARK  6 active torsions:
REMARK  status: ('A' for Active; 'I' for Inactive)
REMARK    1  A    between atoms: C_1  and  O_2
REMARK    2  A    between atoms: O_2  and  C_3
REMARK    3  A    between atoms: C_8  and  N_9
REMARK    4  A    between atoms: C_13  and  C_14
REMARK    5  A    between atoms: C_23  and  C_25
REMARK    6  A    between atoms: C_28  and  C_29
REMARK                            x       y       z     vdW  Elec       q    Type
REMARK                         _______ _______ _______ _____ _____    ______ ____
ROOT
ATOM      1  N   UNL     1       1.192  14.610  19.874  0.00  0.00    +0.000 N 
ATOM      2  C   UNL     1       0.105  14.561  19.030  0.00  0.00    +0.000 C 
ATOM      3  O   UNL     1      -0.152  15.245  18.040  0.00  0.00    +0.000 OA
ATOM      4  C   UNL     1      -0.823  13.455  19.432  0.00  0.00    +0.000 C 
ATOM      5  C   UNL     1      -0.870  12.437  18.291  0.00  0.00    +0.000 C 
ATOM      6  N   UNL     1       0.244  11.520  18.583  0.00  0.00    +0.000 NA
ATOM      7  N   UNL     1       0.510  11.604  19.968  0.00  0.00    +0.000 N 
ATOM      8  C   UNL     1       0.977  10.507  20.717  0.00  0.00    +0.000 C 
ATOM      9  O   UNL     1       1.079  10.547  21.937  0.00  0.00    +0.000 OA
ATOM     10  C   UNL     1      -0.093  12.785  20.573  0.00  0.00    +0.000 C 
ATOM     11  C   UNL     1       0.973  13.791  20.963  0.00  0.00    +0.000 C 
ATOM     12  O   UNL     1       1.437  13.872  22.091  0.00  0.00    +0.000 OA
ATOM     13  H   UNL     1       1.089  11.808  18.079  0.00  0.00    +0.000 HD
ENDROOT
BRANCH   5  14
ATOM     14  C   UNL     1      -2.187  11.685  18.204  0.00  0.00    +0.000 A 
ATOM     15  C   UNL     1      -3.381  12.179  18.758  0.00  0.00    +0.000 A 
ATOM     16  C   UNL     1      -4.576  11.462  18.652  0.00  0.00    +0.000 A 
ATOM     17  C   UNL     1      -4.602  10.236  17.993  0.00  0.00    +0.000 A 
ATOM     18  C   UNL     1      -3.429   9.722  17.449  0.00  0.00    +0.000 A 
ATOM     19  C   UNL     1      -2.240  10.441  17.560  0.00  0.00    +0.000 A 
ATOM     20  F   UNL     1      -1.126   9.910  17.033  0.00  0.00    +0.000 F 
ENDBRANCH   5  14
BRANCH   8  21
ATOM     21  C   UNL     1       1.387   9.269  19.986  0.00  0.00    +0.000 A 
ATOM     22  C   UNL     1       1.506   8.064  20.690  0.00  0.00    +0.000 A 
ATOM     23  C   UNL     1       1.954   6.907  20.036  0.00  0.00    +0.000 A 
ATOM     24  C   UNL     1       2.299   6.943  18.677  0.00  0.00    +0.000 A 
ATOM     25  C   UNL     1       2.797   5.735  17.944  0.00  0.00    +0.000 C 
ATOM     26  C   UNL     1       2.150   8.135  17.971  0.00  0.00    +0.000 A 
ATOM     27  C   UNL     1       1.657   9.267  18.610  0.00  0.00    +0.000 A 
ENDBRANCH   8  21
BRANCH   1  33
ATOM     28  C   UNL     1       2.545  16.713  20.252  0.00  0.00    +0.000 A 
ATOM     29  C   UNL     1       3.800  17.353  20.136  0.00  0.00    +0.000 A 
ATOM     30  C   UNL     1       4.831  16.803  19.389  0.00  0.00    +0.000 A 
ATOM     31  C   UNL     1       4.633  15.601  18.744  0.00  0.00    +0.000 A 
ATOM     32  C   UNL     1       3.410  14.937  18.878  0.00  0.00    +0.000 A 
ATOM     33  C   UNL     1       2.346  15.441  19.655  0.00  0.00    +0.000 A 
BRANCH  28  35
ATOM     34  C   UNL     1       0.680  18.156  20.356  0.00  0.00    +0.000 C 
ATOM     35  O   UNL     1       1.580  17.280  21.047  0.00  0.00    +0.000 OA
ENDBRANCH  28  35
ENDBRANCH   1  33
TORSDOF 4
ENDMDL
MODEL 4
REMARK VINA RESULT:      -7.3      3.015      7.422
REMARK  Name = 
REMARK  6 active torsions:
REMARK  status: ('A' for Active; 'I' for Inactive)
REMARK    1  A    between atoms: C_1  and  O_2
REMARK    2  A    between atoms: O_2  and  C_3
REMARK    3  A    between atoms: C_8  and  N_9
REMARK    4  A    between atoms: C_13  and  C_14
REMARK    5  A    between atoms: C_23  and  C_25
REMARK    6  A    between atoms: C_28  and  C_29
REMARK                            x       y       z     vdW  Elec       q    Type
REMARK                         _______ _______ _______ _____ _____    ______ ____
ROOT
ATOM      1  N   UNL     1       2.043  14.331  19.490  0.00  0.00    +0.000 N 
ATOM      2  C   UNL     1       1.773  13.145  18.846  0.00  0.00    +0.000 C 
ATOM      3  O   UNL     1       2.499  12.168  18.664  0.00  0.00    +0.000 OA
ATOM      4  C   UNL     1       0.353  13.115  18.372  0.00  0.00    +0.000 C 
ATOM      5  C   UNL     1      -0.370  11.984  19.108  0.00  0.00    +0.000 C 
ATOM      6  N   UNL     1      -0.864  12.618  20.341  0.00  0.00    +0.000 NA
ATOM      7  N   UNL     1      -0.963  14.006  20.094  0.00  0.00    +0.000 N 
ATOM      8  C   UNL     1      -1.942  14.815  20.702  0.00  0.00    +0.000 C 
ATOM      9  O   UNL     1      -2.108  15.986  20.385  0.00  0.00    +0.000 OA
ATOM     10  C   UNL     1      -0.220  14.407  18.906  0.00  0.00    +0.000 C 
ATOM     11  C   UNL     1       1.004  15.217  19.288  0.00  0.00    +0.000 C 
ATOM     12  O   UNL     1       1.024  16.439  19.294  0.00  0.00    +0.000 OA
ATOM     13  H   UNL     1      -0.199  12.478  21.109  0.00  0.00    +0.000 HD
ENDROOT
BRANCH   5  14
ATOM     14  C   UNL     1      -1.513  11.377  18.312  0.00  0.00    +0.000 A 
ATOM     15  C   UNL     1      -2.811  11.916  18.317  0.00  0.00    +0.000 A 
ATOM     16  C   UNL     1      -3.837  11.334  17.566  0.00  0.00    +0.000 A 
ATOM     17  C   UNL     1      -3.586  10.201  16.797  0.00  0.00    +0.000 A 
ATOM     18  C   UNL     1      -2.311   9.643  16.788  0.00  0.00    +0.000 A 
ATOM     19  C   UNL     1      -1.293  10.227  17.541  0.00  0.00    +0.000 A 
ATOM     20  F   UNL     1      -0.079   9.657  17.517  0.00  0.00    +0.000 F 
ENDBRANCH   5  14
BRANCH   8  21
ATOM     21  C   UNL     1      -2.782  14.222  21.788  0.00  0.00    +0.000 A 
ATOM     22  C   UNL     1      -2.368  14.346  23.120  0.00  0.00    +0.000 A 
ATOM     23  C   UNL     1      -3.107  13.740  24.147  0.00  0.00    +0.000 A 
ATOM     24  C   UNL     1      -4.257  12.994  23.853  0.00  0.00    +0.000 A 
ATOM     25  C   UNL     1      -5.065  12.316  24.918  0.00  0.00    +0.000 C 
ATOM     26  C   UNL     1      -4.684  12.897  22.531  0.00  0.00    +0.000 A 
ATOM     27  C   UNL     1      -3.979  13.542  21.522  0.00  0.00    +0.000 A 
ENDBRANCH   8  21
BRANCH   1  33
ATOM     28  C   UNL     1       4.481  14.993  19.607  0.00  0.00    +0.000 A 
ATOM     29  C   UNL     1       5.554  15.432  20.418  0.00  0.00    +0.000 A 
ATOM     30  C   UNL     1       5.472  15.421  21.802  0.00  0.00    +0.000 A 
ATOM     31  C   UNL     1       4.317  14.975  22.408  0.00  0.00    +0.000 A 
ATOM     32  C   UNL     1       3.234  14.573  21.621  0.00  0.00    +0.000 A 
ATOM     33  C   UNL     1       3.259  14.600  20.211  0.00  0.00    +0.000 A 
BRANCH  28  35
ATOM     34  C   UNL     1       5.863  14.628  17.730  0.00  0.00    +0.000 C 
ATOM     35  O   UNL     1       4.602  15.076  18.243  0.00  0.00    +0.000 OA
ENDBRANCH  28  35
ENDBRANCH   1  33
TORSDOF 4
ENDMDL
MODEL 5
REMARK VINA RESULT:      -7.3      3.834      7.691
REMARK  Name = 
REMARK  6 active torsions:
REMARK  status: ('A' for Active; 'I' for Inactive)
REMARK    1  A    between atoms: C_1  and  O_2
REMARK    2  A    between atoms: O_2  and  C_3
REMARK    3  A    between atoms: C_8  and  N_9
REMARK    4  A    between atoms: C_13  and  C_14
REMARK    5  A    between atoms: C_23  and  C_25
REMARK    6  A    between atoms: C_28  and  C_29
REMARK                            x       y       z     vdW  Elec       q    Type
REMARK                         _______ _______ _______ _____ _____    ______ ____
ROOT
ATOM      1  N   UNL     1       5.038  15.412  19.366  0.00  0.00    +0.000 N 
ATOM      2  C   UNL     1       4.337  16.425  18.751  0.00  0.00    +0.000 C 
ATOM      3  O   UNL     1       4.677  17.171  17.834  0.00  0.00    +0.000 OA
ATOM      4  C   UNL     1       2.956  16.528  19.321  0.00  0.00    +0.000 C 
ATOM      5  C   UNL     1       1.957  16.209  18.206  0.00  0.00    +0.000 C 
ATOM      6  N   UNL     1       1.803  14.746  18.271  0.00  0.00    +0.000 NA
ATOM      7  N   UNL     1       2.155  14.341  19.578  0.00  0.00    +0.000 N 
ATOM      8  C   UNL     1       1.554  13.238  20.216  0.00  0.00    +0.000 C 
ATOM      9  O   UNL     1       1.766  12.972  21.392  0.00  0.00    +0.000 OA
ATOM     10  C   UNL     1       2.893  15.374  20.294  0.00  0.00    +0.000 C 
ATOM     11  C   UNL     1       4.343  14.970  20.473  0.00  0.00    +0.000 C 
ATOM     12  O   UNL     1       4.771  14.442  21.489  0.00  0.00    +0.000 OA
ATOM     13  H   UNL     1       2.442  14.288  17.613  0.00  0.00    +0.000 HD
ENDROOT
BRANCH   5  14
ATOM     14  C   UNL     1       0.617  16.906  18.375  0.00  0.00    +0.000 A 
ATOM     15  C   UNL     1      -0.311  16.534  19.363  0.00  0.00    +0.000 A 
ATOM     16  C   UNL     1      -1.532  17.204  19.494  0.00  0.00    +0.000 A 
ATOM     17  C   UNL     1      -1.849  18.256  18.639  0.00  0.00    +0.000 A 
ATOM     18  C   UNL     1      -0.950  18.631  17.645  0.00  0.00    +0.000 A 
ATOM     19  C   UNL     1       0.264  17.958  17.518  0.00  0.00    +0.000 A 
ATOM     20  F   UNL     1       1.102  18.339  16.543  0.00  0.00    +0.000 F 
ENDBRANCH   5  14
BRANCH   8  21
ATOM     21  C   UNL     1       0.654  12.355  19.413  0.00  0.00    +0.000 A 
ATOM     22  C   UNL     1      -0.638  12.796  19.098  0.00  0.00    +0.000 A 
ATOM     23  C   UNL     1      -1.520  11.956  18.404  0.00  0.00    +0.000 A 
ATOM     24  C   UNL     1      -1.127  10.663  18.027  0.00  0.00    +0.000 A 
ATOM     25  C   UNL     1      -2.043   9.728  17.299  0.00  0.00    +0.000 C 
ATOM     26  C   UNL     1       0.168  10.237  18.314  0.00  0.00    +0.000 A 
ATOM     27  C   UNL     1       1.057  11.092  18.957  0.00  0.00    +0.000 A 
ENDBRANCH   8  21
BRANCH   1  33
ATOM     28  C   UNL     1       7.548  15.205  19.604  0.00  0.00    +0.000 A 
ATOM     29  C   UNL     1       8.725  14.528  19.211  0.00  0.00    +0.000 A 
ATOM     30  C   UNL     1       8.739  13.662  18.128  0.00  0.00    +0.000 A 
ATOM     31  C   UNL     1       7.577  13.449  17.417  0.00  0.00    +0.000 A 
ATOM     32  C   UNL     1       6.397  14.082  17.816  0.00  0.00    +0.000 A 
ATOM     33  C   UNL     1       6.328  14.943  18.930  0.00  0.00    +0.000 A 
BRANCH  28  35
ATOM     34  C   UNL     1       8.204  15.413  21.862  0.00  0.00    +0.000 C 
ATOM     35  O   UNL     1       7.584  16.010  20.715  0.00  0.00    +0.000 OA
ENDBRANCH  28  35
ENDBRANCH   1  33
TORSDOF 4
ENDMDL
MODEL 6
REMARK VINA RESULT:      -7.2      0.907      1.685
REMARK  Name = 
REMARK  6 active torsions:
REMARK  status: ('A' for Active; 'I' for Inactive)
REMARK    1  A    between atoms: C_1  and  O_2
REMARK    2  A    between atoms: O_2  and  C_3
REMARK    3  A    between atoms: C_8  and  N_9
REMARK    4  A    between atoms: C_13  and  C_14
REMARK    5  A    between atoms: C_23  and  C_25
REMARK    6  A    between atoms: C_28  and  C_29
REMARK                            x       y       z     vdW  Elec       q    Type
REMARK                         _______ _______ _______ _____ _____    ______ ____
ROOT
ATOM      1  N   UNL     1      -2.552  13.615  21.428  0.00  0.00    +0.000 N 
ATOM      2  C   UNL     1      -1.451  14.440  21.482  0.00  0.00    +0.000 C 
ATOM      3  O   UNL     1      -1.067  15.180  22.387  0.00  0.00    +0.000 OA
ATOM      4  C   UNL     1      -0.642  14.318  20.227  0.00  0.00    +0.000 C 
ATOM      5  C   UNL     1       0.730  13.752  20.600  0.00  0.00    +0.000 C 
ATOM      6  N   UNL     1       0.543  12.293  20.543  0.00  0.00    +0.000 NA
ATOM      7  N   UNL     1      -0.553  12.039  19.688  0.00  0.00    +0.000 N 
ATOM      8  C   UNL     1      -0.637  10.885  18.886  0.00  0.00    +0.000 C 
ATOM      9  O   UNL     1      -1.520  10.734  18.051  0.00  0.00    +0.000 OA
ATOM     10  C   UNL     1      -1.357  13.233  19.455  0.00  0.00    +0.000 C 
ATOM     11  C   UNL     1      -2.700  13.118  20.149  0.00  0.00    +0.000 C 
ATOM     12  O   UNL     1      -3.716  12.742  19.584  0.00  0.00    +0.000 OA
ATOM     13  H   UNL     1       0.314  11.923  21.471  0.00  0.00    +0.000 HD
ENDROOT
BRANCH   5  14
ATOM     14  C   UNL     1       1.843  14.196  19.665  0.00  0.00    +0.000 A 
ATOM     15  C   UNL     1       2.531  13.301  18.828  0.00  0.00    +0.000 A 
ATOM     16  C   UNL     1       3.545  13.747  17.975  0.00  0.00    +0.000 A 
ATOM     17  C   UNL     1       3.893  15.095  17.944  0.00  0.00    +0.000 A 
ATOM     18  C   UNL     1       3.234  15.995  18.774  0.00  0.00    +0.000 A 
ATOM     19  C   UNL     1       2.225  15.544  19.625  0.00  0.00    +0.000 A 
ATOM     20  F   UNL     1       1.617  16.438  20.419  0.00  0.00    +0.000 F 
ENDBRANCH   5  14
BRANCH   8  21
ATOM     21  C   UNL     1       0.375   9.803  19.089  0.00  0.00    +0.000 A 
ATOM     22  C   UNL     1       1.183   9.408  18.016  0.00  0.00    +0.000 A 
ATOM     23  C   UNL     1       2.091   8.350  18.169  0.00  0.00    +0.000 A 
ATOM     24  C   UNL     1       2.192   7.667  19.389  0.00  0.00    +0.000 A 
ATOM     25  C   UNL     1       3.136   6.521  19.590  0.00  0.00    +0.000 C 
ATOM     26  C   UNL     1       1.409   8.080  20.465  0.00  0.00    +0.000 A 
ATOM     27  C   UNL     1       0.548   9.163  20.325  0.00  0.00    +0.000 A 
ENDBRANCH   8  21
BRANCH   1  33
ATOM     28  C   UNL     1      -4.692  13.994  22.723  0.00  0.00    +0.000 A 
ATOM     29  C   UNL     1      -5.564  13.531  23.734  0.00  0.00    +0.000 A 
ATOM     30  C   UNL     1      -5.192  12.523  24.611  0.00  0.00    +0.000 A 
ATOM     31  C   UNL     1      -3.942  11.952  24.494  0.00  0.00    +0.000 A 
ATOM     32  C   UNL     1      -3.082  12.373  23.477  0.00  0.00    +0.000 A 
ATOM     33  C   UNL     1      -3.431  13.369  22.542  0.00  0.00    +0.000 A 
BRANCH  28  35
ATOM     34  C   UNL     1      -6.417  14.687  21.269  0.00  0.00    +0.000 C 
ATOM     35  O   UNL     1      -5.136  14.958  21.853  0.00  0.00    +0.000 OA
ENDBRANCH  28  35
ENDBRANCH   1  33
TORSDOF 4
ENDMDL
MODEL 7
REMARK VINA RESULT:      -7.2      3.628      7.519
REMARK  Name = 
REMARK  6 active torsions:
REMARK  status: ('A' for Active; 'I' for Inactive)
REMARK    1  A    between atoms: C_1  and  O_2
REMARK    2  A    between atoms: O_2  and  C_3
REMARK    3  A    between atoms: C_8  and  N_9
REMARK    4  A    between atoms: C_13  and  C_14
REMARK    5  A    between atoms: C_23  and  C_25
REMARK    6  A    between atoms: C_28  and  C_29
REMARK                            x       y       z     vdW  Elec       q    Type
REMARK                         _______ _______ _______ _____ _____    ______ ____
ROOT
ATOM      1  N   UNL     1       4.575  15.430  19.581  0.00  0.00    +0.000 N 
ATOM      2  C   UNL     1       3.821  16.441  19.029  0.00  0.00    +0.000 C 
ATOM      3  O   UNL     1       4.110  17.242  18.142  0.00  0.00    +0.000 OA
ATOM      4  C   UNL     1       2.449  16.460  19.631  0.00  0.00    +0.000 C 
ATOM      5  C   UNL     1       1.440  16.153  18.522  0.00  0.00    +0.000 C 
ATOM      6  N   UNL     1       1.346  14.684  18.519  0.00  0.00    +0.000 NA
ATOM      7  N   UNL     1       1.743  14.232  19.798  0.00  0.00    +0.000 N 
ATOM      8  C   UNL     1       1.201  13.077  20.394  0.00  0.00    +0.000 C 
ATOM      9  O   UNL     1       1.448  12.765  21.552  0.00  0.00    +0.000 OA
ATOM     10  C   UNL     1       2.454  15.259  20.548  0.00  0.00    +0.000 C 
ATOM     11  C   UNL     1       3.923  14.908  20.679  0.00  0.00    +0.000 C 
ATOM     12  O   UNL     1       4.394  14.351  21.660  0.00  0.00    +0.000 OA
ATOM     13  H   UNL     1       1.989  14.284  17.827  0.00  0.00    +0.000 HD
ENDROOT
BRANCH   5  14
ATOM     14  C   UNL     1       0.077  16.785  18.750  0.00  0.00    +0.000 A 
ATOM     15  C   UNL     1      -0.778  16.386  19.792  0.00  0.00    +0.000 A 
ATOM     16  C   UNL     1      -2.023  16.997  19.976  0.00  0.00    +0.000 A 
ATOM     17  C   UNL     1      -2.438  18.015  19.122  0.00  0.00    +0.000 A 
ATOM     18  C   UNL     1      -1.612  18.416  18.077  0.00  0.00    +0.000 A 
ATOM     19  C   UNL     1      -0.373  17.802  17.896  0.00  0.00    +0.000 A 
ATOM     20  F   UNL     1       0.393  18.206  16.872  0.00  0.00    +0.000 F 
ENDBRANCH   5  14
BRANCH   8  21
ATOM     21  C   UNL     1       0.320  12.196  19.568  0.00  0.00    +0.000 A 
ATOM     22  C   UNL     1       0.835  11.002  19.049  0.00  0.00    +0.000 A 
ATOM     23  C   UNL     1       0.045  10.196  18.217  0.00  0.00    +0.000 A 
ATOM     24  C   UNL     1      -1.262  10.579  17.884  0.00  0.00    +0.000 A 
ATOM     25  C   UNL     1      -2.134   9.755  16.985  0.00  0.00    +0.000 C 
ATOM     26  C   UNL     1      -1.784  11.751  18.425  0.00  0.00    +0.000 A 
ATOM     27  C   UNL     1      -1.016  12.521  19.291  0.00  0.00    +0.000 A 
ENDBRANCH   8  21
BRANCH   1  33
ATOM     28  C   UNL     1       7.096  15.313  19.761  0.00  0.00    +0.000 A 
ATOM     29  C   UNL     1       8.290  14.704  19.312  0.00  0.00    +0.000 A 
ATOM     30  C   UNL     1       8.316  13.894  18.187  0.00  0.00    +0.000 A 
ATOM     31  C   UNL     1       7.148  13.669  17.488  0.00  0.00    +0.000 A 
ATOM     32  C   UNL     1       5.952  14.234  17.940  0.00  0.00    +0.000 A 
ATOM     33  C   UNL     1       5.873  15.036  19.097  0.00  0.00    +0.000 A 
BRANCH  28  35
ATOM     34  C   UNL     1       8.367  16.735  21.151  0.00  0.00    +0.000 C 
ATOM     35  O   UNL     1       7.123  16.063  20.910  0.00  0.00    +0.000 OA
ENDBRANCH  28  35
ENDBRANCH   1  33
TORSDOF 4
ENDMDL
MODEL 8
REMARK VINA RESULT:      -7.2      2.516      5.755
REMARK  Name = 
REMARK  6 active torsions:
REMARK  status: ('A' for Active; 'I' for Inactive)
REMARK    1  A    between atoms: C_1  and  O_2
REMARK    2  A    between atoms: O_2  and  C_3
REMARK    3  A    between atoms: C_8  and  N_9
REMARK    4  A    between atoms: C_13  and  C_14
REMARK    5  A    between atoms: C_23  and  C_25
REMARK    6  A    between atoms: C_28  and  C_29
REMARK                            x       y       z     vdW  Elec       q    Type
REMARK                         _______ _______ _______ _____ _____    ______ ____
ROOT
ATOM      1  N   UNL     1      -4.030  14.315  22.867  0.00  0.00    +0.000 N 
ATOM      2  C   UNL     1      -3.944  12.984  22.524  0.00  0.00    +0.000 C 
ATOM      3  O   UNL     1      -4.778  12.256  21.986  0.00  0.00    +0.000 OA
ATOM      4  C   UNL     1      -2.586  12.444  22.851  0.00  0.00    +0.000 C 
ATOM      5  C   UNL     1      -1.912  12.026  21.543  0.00  0.00    +0.000 C 
ATOM      6  N   UNL     1      -1.240  13.251  21.079  0.00  0.00    +0.000 NA
ATOM      7  N   UNL     1      -1.027  14.072  22.209  0.00  0.00    +0.000 N 
ATOM      8  C   UNL     1       0.083  14.931  22.323  0.00  0.00    +0.000 C 
ATOM      9  O   UNL     1       0.333  15.538  23.356  0.00  0.00    +0.000 OA
ATOM     10  C   UNL     1      -1.838  13.659  23.349  0.00  0.00    +0.000 C 
ATOM     11  C   UNL     1      -2.932  14.672  23.622  0.00  0.00    +0.000 C 
ATOM     12  O   UNL     1      -2.829  15.561  24.455  0.00  0.00    +0.000 OA
ATOM     13  H   UNL     1      -1.838  13.763  20.422  0.00  0.00    +0.000 HD
ENDROOT
BRANCH   5  14
ATOM     14  C   UNL     1      -0.918  10.889  21.709  0.00  0.00    +0.000 A 
ATOM     15  C   UNL     1      -0.596  10.340  22.963  0.00  0.00    +0.000 A 
ATOM     16  C   UNL     1       0.318   9.289  23.076  0.00  0.00    +0.000 A 
ATOM     17  C   UNL     1       0.931   8.766  21.940  0.00  0.00    +0.000 A 
ATOM     18  C   UNL     1       0.637   9.304  20.691  0.00  0.00    +0.000 A 
ATOM     19  C   UNL     1      -0.274  10.354  20.584  0.00  0.00    +0.000 A 
ATOM     20  F   UNL     1      -0.526  10.855  19.366  0.00  0.00    +0.000 F 
ENDBRANCH   5  14
BRANCH   8  21
ATOM     21  C   UNL     1       0.959  15.123  21.127  0.00  0.00    +0.000 A 
ATOM     22  C   UNL     1       0.672  16.153  20.223  0.00  0.00    +0.000 A 
ATOM     23  C   UNL     1       1.442  16.307  19.061  0.00  0.00    +0.000 A 
ATOM     24  C   UNL     1       2.499  15.427  18.784  0.00  0.00    +0.000 A 
ATOM     25  C   UNL     1       3.336  15.546  17.547  0.00  0.00    +0.000 C 
ATOM     26  C   UNL     1       2.803  14.422  19.699  0.00  0.00    +0.000 A 
ATOM     27  C   UNL     1       2.070  14.305  20.875  0.00  0.00    +0.000 A 
ENDBRANCH   8  21
BRANCH   1  33
ATOM     28  C   UNL     1      -6.387  15.171  23.194  0.00  0.00    +0.000 A 
ATOM     29  C   UNL     1      -7.331  16.186  22.913  0.00  0.00    +0.000 A 
ATOM     30  C   UNL     1      -7.099  17.145  21.938  0.00  0.00    +0.000 A 
ATOM     31  C   UNL     1      -5.919  17.115  21.227  0.00  0.00    +0.000 A 
ATOM     32  C   UNL     1      -4.960  16.140  21.517  0.00  0.00    +0.000 A 
ATOM     33  C   UNL     1      -5.138  15.167  22.522  0.00  0.00    +0.000 A 
BRANCH  28  35
ATOM     34  C   UNL     1      -7.583  13.248  23.859  0.00  0.00    +0.000 C 
ATOM     35  O   UNL     1      -6.650  14.280  24.205  0.00  0.00    +0.000 OA
ENDBRANCH  28  35
ENDBRANCH   1  33
TORSDOF 4
ENDMDL
MODEL 9
REMARK VINA RESULT:      -7.2      2.534      5.781
REMARK  Name = 
REMARK  6 active torsions:
REMARK  status: ('A' for Active; 'I' for Inactive)
REMARK    1  A    between atoms: C_1  and  O_2
REMARK    2  A    between atoms: O_2  and  C_3
REMARK    3  A    between atoms: C_8  and  N_9
REMARK    4  A    between atoms: C_13  and  C_14
REMARK    5  A    between atoms: C_23  and  C_25
REMARK    6  A    between atoms: C_28  and  C_29
REMARK                            x       y       z     vdW  Elec       q    Type
REMARK                         _______ _______ _______ _____ _____    ______ ____
ROOT
ATOM      1  N   UNL     1      -3.894  14.408  23.078  0.00  0.00    +0.000 N 
ATOM      2  C   UNL     1      -3.844  13.075  22.739  0.00  0.00    +0.000 C 
ATOM      3  O   UNL     1      -4.718  12.353  22.262  0.00  0.00    +0.000 OA
ATOM      4  C   UNL     1      -2.473  12.523  22.981  0.00  0.00    +0.000 C 
ATOM      5  C   UNL     1      -1.891  12.090  21.633  0.00  0.00    +0.000 C 
ATOM      6  N   UNL     1      -1.238  13.305  21.118  0.00  0.00    +0.000 NA
ATOM      7  N   UNL     1      -0.943  14.130  22.227  0.00  0.00    +0.000 N 
ATOM      8  C   UNL     1       0.180  14.978  22.262  0.00  0.00    +0.000 C 
ATOM      9  O   UNL     1       0.504  15.589  23.273  0.00  0.00    +0.000 OA
ATOM     10  C   UNL     1      -1.681  13.733  23.420  0.00  0.00    +0.000 C 
ATOM     11  C   UNL     1      -2.745  14.759  23.758  0.00  0.00    +0.000 C 
ATOM     12  O   UNL     1      -2.578  15.652  24.576  0.00  0.00    +0.000 OA
ATOM     13  H   UNL     1      -1.873  13.819  20.499  0.00  0.00    +0.000 HD
ENDROOT
BRANCH   5  14
ATOM     14  C   UNL     1      -0.899  10.943  21.741  0.00  0.00    +0.000 A 
ATOM     15  C   UNL     1      -0.563  10.345  22.968  0.00  0.00    +0.000 A 
ATOM     16  C   UNL     1       0.348   9.286  23.028  0.00  0.00    +0.000 A 
ATOM     17  C   UNL     1       0.943   8.807  21.864  0.00  0.00    +0.000 A 
ATOM     18  C   UNL     1       0.635   9.394  20.641  0.00  0.00    +0.000 A 
ATOM     19  C   UNL     1      -0.273  10.451  20.588  0.00  0.00    +0.000 A 
ATOM     20  F   UNL     1      -0.539  11.000  19.394  0.00  0.00    +0.000 F 
ENDBRANCH   5  14
BRANCH   8  21
ATOM     21  C   UNL     1       0.978  15.154  21.010  0.00  0.00    +0.000 A 
ATOM     22  C   UNL     1       2.059  14.299  20.760  0.00  0.00    +0.000 A 
ATOM     23  C   UNL     1       2.860  14.489  19.625  0.00  0.00    +0.000 A 
ATOM     24  C   UNL     1       2.599  15.542  18.735  0.00  0.00    +0.000 A 
ATOM     25  C   UNL     1       3.441  15.790  17.520  0.00  0.00    +0.000 C 
ATOM     26  C   UNL     1       1.506  16.372  18.969  0.00  0.00    +0.000 A 
ATOM     27  C   UNL     1       0.683  16.149  20.067  0.00  0.00    +0.000 A 
ENDBRANCH   8  21
BRANCH   1  33
ATOM     28  C   UNL     1      -5.177  16.015  21.605  0.00  0.00    +0.000 A 
ATOM     29  C   UNL     1      -6.406  16.664  21.346  0.00  0.00    +0.000 A 
ATOM     30  C   UNL     1      -7.442  16.655  22.268  0.00  0.00    +0.000 A 
ATOM     31  C   UNL     1      -7.275  15.994  23.466  0.00  0.00    +0.000 A 
ATOM     32  C   UNL     1      -6.080  15.316  23.723  0.00  0.00    +0.000 A 
ATOM     33  C   UNL     1      -5.013  15.270  22.802  0.00  0.00    +0.000 A 
BRANCH  28  35
ATOM     34  C   UNL     1      -3.226  17.051  20.774  0.00  0.00    +0.000 C 
ATOM     35  O   UNL     1      -4.207  16.015  20.634  0.00  0.00    +0.000 OA
ENDBRANCH  28  35
ENDBRANCH   1  33
TORSDOF 4
ENDMDL
