MODEL 1
REMARK VINA RESULT:      -8.8      0.000      0.000
REMARK  Name = 
REMARK  8 active torsions:
REMARK  status: ('A' for Active; 'I' for Inactive)
REMARK    1  A    between atoms: C_1  and  C_2
REMARK    2  A    between atoms: C_2  and  C_3
REMARK    3  A    between atoms: C_6  and  C_7
REMARK    4  A    between atoms: C_8  and  C_9
REMARK    5  A    between atoms: C_18  and  C_19
REMARK    6  A    between atoms: C_19  and  N_20
REMARK    7  A    between atoms: C_24  and  C_25
REMARK    8  A    between atoms: C_25  and  C_27
REMARK                            x       y       z     vdW  Elec       q    Type
REMARK                         _______ _______ _______ _____ _____    ______ ____
ROOT
ATOM      1  C   UNL     1       1.140  13.987  18.634  0.00  0.00    +0.000 C 
ATOM      2  O   UNL     1       1.699  13.526  17.637  0.00  0.00    +0.000 OA
ATOM      3  N   UNL     1       0.089  13.293  19.256  0.00  0.00    +0.000 N 
ATOM      4  C   UNL     1      -0.480  13.551  20.589  0.00  0.00    +0.000 C 
ATOM      5  C   UNL     1      -0.396  12.426  21.628  0.00  0.00    +0.000 C 
ATOM      6  O   UNL     1      -0.988  11.198  21.203  0.00  0.00    +0.000 OA
ATOM      7  C   UNL     1      -0.093  10.490  20.446  0.00  0.00    +0.000 A 
ATOM      8  C   UNL     1       0.539   9.389  21.017  0.00  0.00    +0.000 A 
ATOM      9  C   UNL     1       1.415   8.626  20.245  0.00  0.00    +0.000 A 
ATOM     10  C   UNL     1       1.623   8.937  18.891  0.00  0.00    +0.000 A 
ATOM     11  C   UNL     1       0.973  10.047  18.337  0.00  0.00    +0.000 A 
ATOM     12  C   UNL     1       0.139  10.852  19.119  0.00  0.00    +0.000 A 
ATOM     13  C   UNL     1      -0.444  12.118  18.561  0.00  0.00    +0.000 C 
ENDROOT
BRANCH   1  19
ATOM     14  C   UNL     1       1.015  16.592  19.018  0.00  0.00    +0.000 A 
ATOM     15  N   UNL     1       1.733  17.499  19.695  0.00  0.00    +0.000 NA
ATOM     16  O   UNL     1       2.842  16.831  20.156  0.00  0.00    +0.000 OA
ATOM     17  C   UNL     1       2.775  15.525  19.790  0.00  0.00    +0.000 A 
ATOM     18  C   UNL     1       3.970  14.725  20.135  0.00  0.00    +0.000 C 
ATOM     19  C   UNL     1       1.570  15.281  19.151  0.00  0.00    +0.000 A 
BRANCH  14  21
ATOM     20  C   UNL     1       0.114  18.130  17.236  0.00  0.00    +0.000 C 
ATOM     21  C   UNL     1      -0.186  17.051  18.260  0.00  0.00    +0.000 C 
ENDBRANCH  14  21
ENDBRANCH   1  19
BRANCH  10  22
ATOM     22  C   UNL     1       2.511   8.073  18.023  0.00  0.00    +0.000 C 
BRANCH  22  23
ATOM     23  N   UNL     1       2.681   6.686  18.514  0.00  0.00    +0.000 NA
ATOM     24  C   UNL     1       1.733   5.784  17.837  0.00  0.00    +0.000 C 
ATOM     25  C   UNL     1       1.978   4.312  18.161  0.00  0.00    +0.000 C 
ATOM     26  C   UNL     1       3.405   3.918  17.817  0.00  0.00    +0.000 C 
ATOM     27  C   UNL     1       4.391   4.810  18.578  0.00  0.00    +0.000 C 
ATOM     28  C   UNL     1       4.089   6.293  18.319  0.00  0.00    +0.000 C 
BRANCH  27  29
ATOM     29  C   UNL     1       5.819   4.521  18.120  0.00  0.00    +0.000 C 
ATOM     30  O   UNL     1       6.704   4.224  18.923  0.00  0.00    +0.000 OA
BRANCH  29  31
ATOM     31  C   UNL     1       6.162   4.539  16.672  0.00  0.00    +0.000 A 
ATOM     32  C   UNL     1       5.658   3.638  15.731  0.00  0.00    +0.000 A 
ATOM     33  C   UNL     1       6.058   3.740  14.399  0.00  0.00    +0.000 A 
ATOM     34  C   UNL     1       6.945   4.740  14.045  0.00  0.00    +0.000 A 
ATOM     35  N   UNL     1       7.460   5.625  14.928  0.00  0.00    +0.000 NA
ATOM     36  C   UNL     1       7.056   5.507  16.218  0.00  0.00    +0.000 A 
ENDBRANCH  29  31
ENDBRANCH  27  29
ENDBRANCH  22  23
ENDBRANCH  10  22
TORSDOF 6
ENDMDL
MODEL 2
REMARK VINA RESULT:      -8.4      1.132      2.014
REMARK  Name = 
REMARK  8 active torsions:
REMARK  status: ('A' for Active; 'I' for Inactive)
REMARK    1  A    between atoms: C_1  and  C_2
REMARK    2  A    between atoms: C_2  and  C_3
REMARK    3  A    between atoms: C_6  and  C_7
REMARK    4  A    between atoms: C_8  and  C_9
REMARK    5  A    between atoms: C_18  and  C_19
REMARK    6  A    between atoms: C_19  and  N_20
REMARK    7  A    between atoms: C_24  and  C_25
REMARK    8  A    between atoms: C_25  and  C_27
REMARK                            x       y       z     vdW  Elec       q    Type
REMARK                         _______ _______ _______ _____ _____    ______ ____
ROOT
ATOM      1  C   UNL     1       0.610  13.320  19.321  0.00  0.00    +0.000 C 
ATOM      2  O   UNL     1       1.083  12.964  18.240  0.00  0.00    +0.000 OA
ATOM      3  N   UNL     1      -0.268  12.485  20.032  0.00  0.00    +0.000 N 
ATOM      4  C   UNL     1      -0.685  12.625  21.438  0.00  0.00    +0.000 C 
ATOM      5  C   UNL     1      -0.343  11.479  22.397  0.00  0.00    +0.000 C 
ATOM      6  O   UNL     1      -0.846  10.208  21.986  0.00  0.00    +0.000 OA
ATOM      7  C   UNL     1       0.016   9.637  21.088  0.00  0.00    +0.000 A 
ATOM      8  C   UNL     1       0.833   8.597  21.518  0.00  0.00    +0.000 A 
ATOM      9  C   UNL     1       1.681   7.970  20.604  0.00  0.00    +0.000 A 
ATOM     10  C   UNL     1       1.675   8.353  19.253  0.00  0.00    +0.000 A 
ATOM     11  C   UNL     1       0.841   9.401  18.842  0.00  0.00    +0.000 A 
ATOM     12  C   UNL     1       0.032  10.074  19.763  0.00  0.00    +0.000 A 
ATOM     13  C   UNL     1      -0.755  11.283  19.349  0.00  0.00    +0.000 C 
ENDROOT
BRANCH   1  19
ATOM     14  C   UNL     1       2.137  15.120  20.494  0.00  0.00    +0.000 A 
ATOM     15  N   UNL     1       2.033  16.423  20.787  0.00  0.00    +0.000 NA
ATOM     16  O   UNL     1       0.742  16.776  20.475  0.00  0.00    +0.000 OA
ATOM     17  C   UNL     1       0.085  15.703  19.965  0.00  0.00    +0.000 A 
ATOM     18  C   UNL     1      -1.351  15.931  19.694  0.00  0.00    +0.000 C 
ATOM     19  C   UNL     1       0.958  14.634  19.847  0.00  0.00    +0.000 A 
BRANCH  14  21
ATOM     20  C   UNL     1       3.976  14.843  22.195  0.00  0.00    +0.000 C 
ATOM     21  C   UNL     1       3.389  14.399  20.869  0.00  0.00    +0.000 C 
ENDBRANCH  14  21
ENDBRANCH   1  19
BRANCH  10  22
ATOM     22  C   UNL     1       2.534   7.632  18.237  0.00  0.00    +0.000 C 
BRANCH  22  23
ATOM     23  N   UNL     1       2.880   6.240  18.609  0.00  0.00    +0.000 NA
ATOM     24  C   UNL     1       1.983   5.291  17.928  0.00  0.00    +0.000 C 
ATOM     25  C   UNL     1       2.400   3.835  18.124  0.00  0.00    +0.000 C 
ATOM     26  C   UNL     1       3.831   3.620  17.659  0.00  0.00    +0.000 C 
ATOM     27  C   UNL     1       4.773   4.559  18.420  0.00  0.00    +0.000 C 
ATOM     28  C   UNL     1       4.303   6.015  18.294  0.00  0.00    +0.000 C 
BRANCH  27  29
ATOM     29  C   UNL     1       6.186   4.457  17.849  0.00  0.00    +0.000 C 
ATOM     30  O   UNL     1       7.163   4.279  18.579  0.00  0.00    +0.000 OA
BRANCH  29  31
ATOM     31  C   UNL     1       6.409   4.516  16.379  0.00  0.00    +0.000 A 
ATOM     32  C   UNL     1       5.710   3.749  15.444  0.00  0.00    +0.000 A 
ATOM     33  C   UNL     1       6.011   3.877  14.088  0.00  0.00    +0.000 A 
ATOM     34  C   UNL     1       6.996   4.768  13.706  0.00  0.00    +0.000 A 
ATOM     35  N   UNL     1       7.700   5.521  14.582  0.00  0.00    +0.000 NA
ATOM     36  C   UNL     1       7.389   5.381  15.895  0.00  0.00    +0.000 A 
ENDBRANCH  29  31
ENDBRANCH  27  29
ENDBRANCH  22  23
ENDBRANCH  10  22
TORSDOF 6
ENDMDL
MODEL 3
REMARK VINA RESULT:      -8.4      0.831      1.938
REMARK  Name = 
REMARK  8 active torsions:
REMARK  status: ('A' for Active; 'I' for Inactive)
REMARK    1  A    between atoms: C_1  and  C_2
REMARK    2  A    between atoms: C_2  and  C_3
REMARK    3  A    between atoms: C_6  and  C_7
REMARK    4  A    between atoms: C_8  and  C_9
REMARK    5  A    between atoms: C_18  and  C_19
REMARK    6  A    between atoms: C_19  and  N_20
REMARK    7  A    between atoms: C_24  and  C_25
REMARK    8  A    between atoms: C_25  and  C_27
REMARK                            x       y       z     vdW  Elec       q    Type
REMARK                         _______ _______ _______ _____ _____    ______ ____
ROOT
ATOM      1  C   UNL     1       1.993  14.190  18.522  0.00  0.00    +0.000 C 
ATOM      2  O   UNL     1       2.457  13.623  17.531  0.00  0.00    +0.000 OA
ATOM      3  N   UNL     1       0.832  13.707  19.149  0.00  0.00    +0.000 N 
ATOM      4  C   UNL     1       0.321  14.079  20.479  0.00  0.00    +0.000 C 
ATOM      5  C   UNL     1       0.196  12.969  21.529  0.00  0.00    +0.000 C 
ATOM      6  O   UNL     1      -0.613  11.867  21.115  0.00  0.00    +0.000 OA
ATOM      7  C   UNL     1       0.136  10.998  20.366  0.00  0.00    +0.000 A 
ATOM      8  C   UNL     1       0.553   9.806  20.949  0.00  0.00    +0.000 A 
ATOM      9  C   UNL     1       1.273   8.886  20.186  0.00  0.00    +0.000 A 
ATOM     10  C   UNL     1       1.534   9.140  18.829  0.00  0.00    +0.000 A 
ATOM     11  C   UNL     1       1.101  10.346  18.263  0.00  0.00    +0.000 A 
ATOM     12  C   UNL     1       0.430  11.298  19.036  0.00  0.00    +0.000 A 
ATOM     13  C   UNL     1       0.091  12.645  18.465  0.00  0.00    +0.000 C 
ENDROOT
BRANCH   1  19
ATOM     14  C   UNL     1       3.716  15.563  19.969  0.00  0.00    +0.000 A 
ATOM     15  N   UNL     1       4.032  16.857  20.115  0.00  0.00    +0.000 NA
ATOM     16  O   UNL     1       3.096  17.555  19.390  0.00  0.00    +0.000 OA
ATOM     17  C   UNL     1       2.245  16.688  18.785  0.00  0.00    +0.000 A 
ATOM     18  C   UNL     1       1.123  17.326  18.064  0.00  0.00    +0.000 C 
ATOM     19  C   UNL     1       2.655  15.386  19.027  0.00  0.00    +0.000 A 
BRANCH  14  21
ATOM     20  C   UNL     1       3.984  14.428  22.204  0.00  0.00    +0.000 C 
ATOM     21  C   UNL     1       4.463  14.549  20.770  0.00  0.00    +0.000 C 
ENDBRANCH  14  21
ENDBRANCH   1  19
BRANCH  10  22
ATOM     22  C   UNL     1       2.247   8.118  17.970  0.00  0.00    +0.000 C 
BRANCH  22  23
ATOM     23  N   UNL     1       2.507   6.826  18.648  0.00  0.00    +0.000 NA
ATOM     24  C   UNL     1       1.593   5.789  18.138  0.00  0.00    +0.000 C 
ATOM     25  C   UNL     1       1.928   4.394  18.660  0.00  0.00    +0.000 C 
ATOM     26  C   UNL     1       3.366   4.028  18.329  0.00  0.00    +0.000 C 
ATOM     27  C   UNL     1       4.320   5.070  18.922  0.00  0.00    +0.000 C 
ATOM     28  C   UNL     1       3.929   6.483  18.465  0.00  0.00    +0.000 C 
BRANCH  27  29
ATOM     29  C   UNL     1       5.749   4.792  18.463  0.00  0.00    +0.000 C 
ATOM     30  O   UNL     1       6.648   4.550  19.270  0.00  0.00    +0.000 OA
BRANCH  29  31
ATOM     31  C   UNL     1       6.078   4.752  17.012  0.00  0.00    +0.000 A 
ATOM     32  C   UNL     1       5.493   3.877  16.094  0.00  0.00    +0.000 A 
ATOM     33  C   UNL     1       5.887   3.919  14.757  0.00  0.00    +0.000 A 
ATOM     34  C   UNL     1       6.850   4.835  14.375  0.00  0.00    +0.000 A 
ATOM     35  N   UNL     1       7.445   5.692  15.236  0.00  0.00    +0.000 NA
ATOM     36  C   UNL     1       7.045   5.634  16.531  0.00  0.00    +0.000 A 
ENDBRANCH  29  31
ENDBRANCH  27  29
ENDBRANCH  22  23
ENDBRANCH  10  22
TORSDOF 6
ENDMDL
MODEL 4
REMARK VINA RESULT:      -8.3      1.187      1.917
REMARK  Name = 
REMARK  8 active torsions:
REMARK  status: ('A' for Active; 'I' for Inactive)
REMARK    1  A    between atoms: C_1  and  C_2
REMARK    2  A    between atoms: C_2  and  C_3
REMARK    3  A    between atoms: C_6  and  C_7
REMARK    4  A    between atoms: C_8  and  C_9
REMARK    5  A    between atoms: C_18  and  C_19
REMARK    6  A    between atoms: C_19  and  N_20
REMARK    7  A    between atoms: C_24  and  C_25
REMARK    8  A    between atoms: C_25  and  C_27
REMARK                            x       y       z     vdW  Elec       q    Type
REMARK                         _______ _______ _______ _____ _____    ______ ____
ROOT
ATOM      1  C   UNL     1       0.842  13.631  19.341  0.00  0.00    +0.000 C 
ATOM      2  O   UNL     1       1.473  12.773  18.723  0.00  0.00    +0.000 OA
ATOM      3  N   UNL     1      -0.383  13.320  19.955  0.00  0.00    +0.000 N 
ATOM      4  C   UNL     1      -1.107  14.126  20.954  0.00  0.00    +0.000 C 
ATOM      5  C   UNL     1      -1.351  13.500  22.331  0.00  0.00    +0.000 C 
ATOM      6  O   UNL     1      -2.045  12.253  22.288  0.00  0.00    +0.000 OA
ATOM      7  C   UNL     1      -1.159  11.237  22.044  0.00  0.00    +0.000 A 
ATOM      8  C   UNL     1      -0.792  10.407  23.099  0.00  0.00    +0.000 A 
ATOM      9  C   UNL     1       0.070   9.336  22.859  0.00  0.00    +0.000 A 
ATOM     10  C   UNL     1       0.527   9.071  21.558  0.00  0.00    +0.000 A 
ATOM     11  C   UNL     1       0.142   9.919  20.511  0.00  0.00    +0.000 A 
ATOM     12  C   UNL     1      -0.674  11.028  20.753  0.00  0.00    +0.000 A 
ATOM     13  C   UNL     1      -0.971  12.011  19.659  0.00  0.00    +0.000 C 
ENDROOT
BRANCH   1  19
ATOM     14  C   UNL     1       0.867  16.235  18.932  0.00  0.00    +0.000 A 
ATOM     15  N   UNL     1       1.682  17.249  19.249  0.00  0.00    +0.000 NA
ATOM     16  O   UNL     1       2.798  16.673  19.808  0.00  0.00    +0.000 OA
ATOM     17  C   UNL     1       2.640  15.325  19.859  0.00  0.00    +0.000 A 
ATOM     18  C   UNL     1       3.825  14.583  20.341  0.00  0.00    +0.000 C 
ATOM     19  C   UNL     1       1.373  14.987  19.412  0.00  0.00    +0.000 A 
BRANCH  14  21
ATOM     20  C   UNL     1      -0.362  17.883  17.473  0.00  0.00    +0.000 C 
ATOM     21  C   UNL     1      -0.376  16.530  18.160  0.00  0.00    +0.000 C 
ENDBRANCH  14  21
ENDBRANCH   1  19
BRANCH  10  22
ATOM     22  C   UNL     1       1.402   7.870  21.271  0.00  0.00    +0.000 C 
BRANCH  22  23
ATOM     23  N   UNL     1       1.607   7.595  19.829  0.00  0.00    +0.000 NA
ATOM     24  C   UNL     1       1.909   8.845  19.109  0.00  0.00    +0.000 C 
ATOM     25  C   UNL     1       2.312   8.610  17.655  0.00  0.00    +0.000 C 
ATOM     26  C   UNL     1       3.498   7.663  17.573  0.00  0.00    +0.000 C 
ATOM     27  C   UNL     1       3.156   6.337  18.260  0.00  0.00    +0.000 C 
ATOM     28  C   UNL     1       2.669   6.582  19.695  0.00  0.00    +0.000 C 
BRANCH  27  29
ATOM     29  C   UNL     1       4.393   5.443  18.316  0.00  0.00    +0.000 C 
ATOM     30  O   UNL     1       4.721   4.863  19.352  0.00  0.00    +0.000 OA
BRANCH  29  31
ATOM     31  C   UNL     1       5.205   5.206  17.092  0.00  0.00    +0.000 A 
ATOM     32  C   UNL     1       4.790   4.430  16.007  0.00  0.00    +0.000 A 
ATOM     33  C   UNL     1       5.640   4.266  14.914  0.00  0.00    +0.000 A 
ATOM     34  C   UNL     1       6.877   4.883  14.934  0.00  0.00    +0.000 A 
ATOM     35  N   UNL     1       7.317   5.635  15.969  0.00  0.00    +0.000 NA
ATOM     36  C   UNL     1       6.473   5.781  17.021  0.00  0.00    +0.000 A 
ENDBRANCH  29  31
ENDBRANCH  27  29
ENDBRANCH  22  23
ENDBRANCH  10  22
TORSDOF 6
ENDMDL
MODEL 5
REMARK VINA RESULT:      -8.1      1.345      1.639
REMARK  Name = 
REMARK  8 active torsions:
REMARK  status: ('A' for Active; 'I' for Inactive)
REMARK    1  A    between atoms: C_1  and  C_2
REMARK    2  A    between atoms: C_2  and  C_3
REMARK    3  A    between atoms: C_6  and  C_7
REMARK    4  A    between atoms: C_8  and  C_9
REMARK    5  A    between atoms: C_18  and  C_19
REMARK    6  A    between atoms: C_19  and  N_20
REMARK    7  A    between atoms: C_24  and  C_25
REMARK    8  A    between atoms: C_25  and  C_27
REMARK                            x       y       z     vdW  Elec       q    Type
REMARK                         _______ _______ _______ _____ _____    ______ ____
ROOT
ATOM      1  C   UNL     1       0.682  13.595  19.278  0.00  0.00    +0.000 C 
ATOM      2  O   UNL     1       1.191  13.040  18.302  0.00  0.00    +0.000 OA
ATOM      3  N   UNL     1      -0.302  12.945  20.043  0.00  0.00    +0.000 N 
ATOM      4  C   UNL     1      -0.792  13.334  21.377  0.00  0.00    +0.000 C 
ATOM      5  C   UNL     1      -0.601  12.335  22.523  0.00  0.00    +0.000 C 
ATOM      6  O   UNL     1      -1.176  11.051  22.277  0.00  0.00    +0.000 OA
ATOM      7  C   UNL     1      -0.309  10.288  21.542  0.00  0.00    +0.000 A 
ATOM      8  C   UNL     1       0.396   9.276  22.185  0.00  0.00    +0.000 A 
ATOM      9  C   UNL     1       1.246   8.455  21.442  0.00  0.00    +0.000 A 
ATOM     10  C   UNL     1       1.354   8.619  20.052  0.00  0.00    +0.000 A 
ATOM     11  C   UNL     1       0.632   9.643  19.425  0.00  0.00    +0.000 A 
ATOM     12  C   UNL     1      -0.177  10.507  20.170  0.00  0.00    +0.000 A 
ATOM     13  C   UNL     1      -0.838  11.686  19.519  0.00  0.00    +0.000 C 
ENDROOT
BRANCH   1  19
ATOM     14  C   UNL     1       0.627  16.228  19.192  0.00  0.00    +0.000 A 
ATOM     15  N   UNL     1       1.291  17.223  19.795  0.00  0.00    +0.000 NA
ATOM     16  O   UNL     1       2.300  16.622  20.509  0.00  0.00    +0.000 OA
ATOM     17  C   UNL     1       2.221  15.274  20.366  0.00  0.00    +0.000 A 
ATOM     18  C   UNL     1       3.324  14.520  21.002  0.00  0.00    +0.000 C 
ATOM     19  C   UNL     1       1.099  14.949  19.621  0.00  0.00    +0.000 A 
BRANCH  14  21
ATOM     20  C   UNL     1      -0.746  18.059  18.134  0.00  0.00    +0.000 C 
ATOM     21  C   UNL     1      -0.443  16.574  18.211  0.00  0.00    +0.000 C 
ENDBRANCH  14  21
ENDBRANCH   1  19
BRANCH  10  22
ATOM     22  C   UNL     1       2.214   7.689  19.224  0.00  0.00    +0.000 C 
BRANCH  22  23
ATOM     23  N   UNL     1       2.526   6.398  19.882  0.00  0.00    +0.000 NA
ATOM     24  C   UNL     1       1.288   5.752  20.352  0.00  0.00    +0.000 C 
ATOM     25  C   UNL     1       1.519   4.336  20.875  0.00  0.00    +0.000 C 
ATOM     26  C   UNL     1       2.185   3.475  19.815  0.00  0.00    +0.000 C 
ATOM     27  C   UNL     1       3.508   4.112  19.380  0.00  0.00    +0.000 C 
ATOM     28  C   UNL     1       3.287   5.565  18.934  0.00  0.00    +0.000 C 
BRANCH  27  29
ATOM     29  C   UNL     1       4.103   3.333  18.208  0.00  0.00    +0.000 C 
ATOM     30  O   UNL     1       3.676   2.222  17.892  0.00  0.00    +0.000 OA
BRANCH  29  31
ATOM     31  C   UNL     1       5.187   3.930  17.381  0.00  0.00    +0.000 A 
ATOM     32  C   UNL     1       6.387   4.427  17.894  0.00  0.00    +0.000 A 
ATOM     33  C   UNL     1       7.330   4.978  17.026  0.00  0.00    +0.000 A 
ATOM     34  C   UNL     1       7.048   5.012  15.673  0.00  0.00    +0.000 A 
ATOM     35  N   UNL     1       5.894   4.548  15.140  0.00  0.00    +0.000 NA
ATOM     36  C   UNL     1       4.993   4.017  16.004  0.00  0.00    +0.000 A 
ENDBRANCH  29  31
ENDBRANCH  27  29
ENDBRANCH  22  23
ENDBRANCH  10  22
TORSDOF 6
ENDMDL
MODEL 6
REMARK VINA RESULT:      -8.1      1.551      2.378
REMARK  Name = 
REMARK  8 active torsions:
REMARK  status: ('A' for Active; 'I' for Inactive)
REMARK    1  A    between atoms: C_1  and  C_2
REMARK    2  A    between atoms: C_2  and  C_3
REMARK    3  A    between atoms: C_6  and  C_7
REMARK    4  A    between atoms: C_8  and  C_9
REMARK    5  A    between atoms: C_18  and  C_19
REMARK    6  A    between atoms: C_19  and  N_20
REMARK    7  A    between atoms: C_24  and  C_25
REMARK    8  A    between atoms: C_25  and  C_27
REMARK                            x       y       z     vdW  Elec       q    Type
REMARK                         _______ _______ _______ _____ _____    ______ ____
ROOT
ATOM      1  C   UNL     1       0.588  14.154  19.521  0.00  0.00    +0.000 C 
ATOM      2  O   UNL     1       1.340  13.356  18.961  0.00  0.00    +0.000 OA
ATOM      3  N   UNL     1      -0.661  13.740  20.016  0.00  0.00    +0.000 N 
ATOM      4  C   UNL     1      -1.536  14.474  20.946  0.00  0.00    +0.000 C 
ATOM      5  C   UNL     1      -1.856  13.814  22.292  0.00  0.00    +0.000 C 
ATOM      6  O   UNL     1      -2.441  12.517  22.178  0.00  0.00    +0.000 OA
ATOM      7  C   UNL     1      -1.458  11.577  22.014  0.00  0.00    +0.000 A 
ATOM      8  C   UNL     1      -1.126  10.766  23.095  0.00  0.00    +0.000 A 
ATOM      9  C   UNL     1      -0.163   9.770  22.932  0.00  0.00    +0.000 A 
ATOM     10  C   UNL     1       0.433   9.557  21.678  0.00  0.00    +0.000 A 
ATOM     11  C   UNL     1       0.081  10.385  20.604  0.00  0.00    +0.000 A 
ATOM     12  C   UNL     1      -0.840  11.422  20.773  0.00  0.00    +0.000 A 
ATOM     13  C   UNL     1      -1.112  12.393  19.660  0.00  0.00    +0.000 C 
ENDROOT
BRANCH   1  19
ATOM     14  C   UNL     1       0.555  16.736  18.990  0.00  0.00    +0.000 A 
ATOM     15  N   UNL     1       1.201  17.818  19.444  0.00  0.00    +0.000 NA
ATOM     16  O   UNL     1       2.174  17.346  20.292  0.00  0.00    +0.000 OA
ATOM     17  C   UNL     1       2.092  15.993  20.375  0.00  0.00    +0.000 A 
ATOM     18  C   UNL     1       3.161  15.357  21.175  0.00  0.00    +0.000 C 
ATOM     19  C   UNL     1       1.000  15.547  19.648  0.00  0.00    +0.000 A 
BRANCH  14  21
ATOM     20  C   UNL     1      -0.746  18.360  17.569  0.00  0.00    +0.000 C 
ATOM     21  C   UNL     1      -0.470  16.911  17.919  0.00  0.00    +0.000 C 
ENDBRANCH  14  21
ENDBRANCH   1  19
BRANCH  10  22
ATOM     22  C   UNL     1       1.424   8.432  21.468  0.00  0.00    +0.000 C 
BRANCH  22  23
ATOM     23  N   UNL     1       1.452   7.894  20.088  0.00  0.00    +0.000 NA
ATOM     24  C   UNL     1       2.092   8.858  19.177  0.00  0.00    +0.000 C 
ATOM     25  C   UNL     1       2.319   8.292  17.777  0.00  0.00    +0.000 C 
ATOM     26  C   UNL     1       3.141   7.015  17.842  0.00  0.00    +0.000 C 
ATOM     27  C   UNL     1       2.437   5.986  18.733  0.00  0.00    +0.000 C 
ATOM     28  C   UNL     1       2.132   6.586  20.113  0.00  0.00    +0.000 C 
BRANCH  27  29
ATOM     29  C   UNL     1       3.331   4.763  18.926  0.00  0.00    +0.000 C 
ATOM     30  O   UNL     1       2.966   3.800  19.602  0.00  0.00    +0.000 OA
BRANCH  29  31
ATOM     31  C   UNL     1       4.654   4.684  18.248  0.00  0.00    +0.000 A 
ATOM     32  C   UNL     1       4.830   4.374  16.897  0.00  0.00    +0.000 A 
ATOM     33  C   UNL     1       6.119   4.316  16.368  0.00  0.00    +0.000 A 
ATOM     34  C   UNL     1       7.192   4.571  17.202  0.00  0.00    +0.000 A 
ATOM     35  N   UNL     1       7.062   4.866  18.515  0.00  0.00    +0.000 NA
ATOM     36  C   UNL     1       5.798   4.918  19.007  0.00  0.00    +0.000 A 
ENDBRANCH  29  31
ENDBRANCH  27  29
ENDBRANCH  22  23
ENDBRANCH  10  22
TORSDOF 6
ENDMDL
MODEL 7
REMARK VINA RESULT:      -7.9      2.778      4.591
REMARK  Name = 
REMARK  8 active torsions:
REMARK  status: ('A' for Active; 'I' for Inactive)
REMARK    1  A    between atoms: C_1  and  C_2
REMARK    2  A    between atoms: C_2  and  C_3
REMARK    3  A    between atoms: C_6  and  C_7
REMARK    4  A    between atoms: C_8  and  C_9
REMARK    5  A    between atoms: C_18  and  C_19
REMARK    6  A    between atoms: C_19  and  N_20
REMARK    7  A    between atoms: C_24  and  C_25
REMARK    8  A    between atoms: C_25  and  C_27
REMARK                            x       y       z     vdW  Elec       q    Type
REMARK                         _______ _______ _______ _____ _____    ______ ____
ROOT
ATOM      1  C   UNL     1      -2.750  10.823  18.683  0.00  0.00    +0.000 C 
ATOM      2  O   UNL     1      -2.628   9.596  18.664  0.00  0.00    +0.000 OA
ATOM      3  N   UNL     1      -1.791  11.631  19.317  0.00  0.00    +0.000 N 
ATOM      4  C   UNL     1      -1.632  13.090  19.185  0.00  0.00    +0.000 C 
ATOM      5  C   UNL     1      -0.304  13.611  18.624  0.00  0.00    +0.000 C 
ATOM      6  O   UNL     1       0.845  13.177  19.352  0.00  0.00    +0.000 OA
ATOM      7  C   UNL     1       1.219  11.930  18.926  0.00  0.00    +0.000 A 
ATOM      8  C   UNL     1       2.336  11.815  18.104  0.00  0.00    +0.000 A 
ATOM      9  C   UNL     1       2.762  10.549  17.702  0.00  0.00    +0.000 A 
ATOM     10  C   UNL     1       2.098   9.398  18.159  0.00  0.00    +0.000 A 
ATOM     11  C   UNL     1       0.978   9.539  18.988  0.00  0.00    +0.000 A 
ATOM     12  C   UNL     1       0.510  10.806  19.349  0.00  0.00    +0.000 A 
ATOM     13  C   UNL     1      -0.769  10.957  20.121  0.00  0.00    +0.000 C 
ENDROOT
BRANCH   1  19
ATOM     14  C   UNL     1      -4.259  11.637  16.681  0.00  0.00    +0.000 A 
ATOM     15  N   UNL     1      -5.463  12.211  16.557  0.00  0.00    +0.000 NA
ATOM     16  O   UNL     1      -5.863  12.521  17.835  0.00  0.00    +0.000 OA
ATOM     17  C   UNL     1      -4.924  12.105  18.723  0.00  0.00    +0.000 A 
ATOM     18  C   UNL     1      -5.192  12.482  20.128  0.00  0.00    +0.000 C 
ATOM     19  C   UNL     1      -3.917  11.428  18.054  0.00  0.00    +0.000 A 
BRANCH  14  21
ATOM     20  C   UNL     1      -3.893  10.018  14.784  0.00  0.00    +0.000 C 
ATOM     21  C   UNL     1      -3.486  11.322  15.444  0.00  0.00    +0.000 C 
ENDBRANCH  14  21
ENDBRANCH   1  19
BRANCH  10  22
ATOM     22  C   UNL     1       2.595   8.017  17.792  0.00  0.00    +0.000 C 
BRANCH  22  23
ATOM     23  N   UNL     1       2.917   7.156  18.954  0.00  0.00    +0.000 NA
ATOM     24  C   UNL     1       1.688   6.554  19.500  0.00  0.00    +0.000 C 
ATOM     25  C   UNL     1       1.968   5.513  20.582  0.00  0.00    +0.000 C 
ATOM     26  C   UNL     1       2.889   4.425  20.055  0.00  0.00    +0.000 C 
ATOM     27  C   UNL     1       4.196   5.046  19.552  0.00  0.00    +0.000 C 
ATOM     28  C   UNL     1       3.910   6.153  18.527  0.00  0.00    +0.000 C 
BRANCH  27  29
ATOM     29  C   UNL     1       5.058   3.978  18.882  0.00  0.00    +0.000 C 
ATOM     30  O   UNL     1       5.269   2.891  19.421  0.00  0.00    +0.000 OA
BRANCH  29  31
ATOM     31  C   UNL     1       5.623   4.211  17.525  0.00  0.00    +0.000 A 
ATOM     32  C   UNL     1       4.924   4.002  16.334  0.00  0.00    +0.000 A 
ATOM     33  C   UNL     1       5.557   4.241  15.115  0.00  0.00    +0.000 A 
ATOM     34  C   UNL     1       6.867   4.684  15.120  0.00  0.00    +0.000 A 
ATOM     35  N   UNL     1       7.578   4.890  16.252  0.00  0.00    +0.000 NA
ATOM     36  C   UNL     1       6.941   4.652  17.426  0.00  0.00    +0.000 A 
ENDBRANCH  29  31
ENDBRANCH  27  29
ENDBRANCH  22  23
ENDBRANCH  10  22
TORSDOF 6
ENDMDL
MODEL 8
REMARK VINA RESULT:      -7.9      1.433      2.427
REMARK  Name = 
REMARK  8 active torsions:
REMARK  status: ('A' for Active; 'I' for Inactive)
REMARK    1  A    between atoms: C_1  and  C_2
REMARK    2  A    between atoms: C_2  and  C_3
REMARK    3  A    between atoms: C_6  and  C_7
REMARK    4  A    between atoms: C_8  and  C_9
REMARK    5  A    between atoms: C_18  and  C_19
REMARK    6  A    between atoms: C_19  and  N_20
REMARK    7  A    between atoms: C_24  and  C_25
REMARK    8  A    between atoms: C_25  and  C_27
REMARK                            x       y       z     vdW  Elec       q    Type
REMARK                         _______ _______ _______ _____ _____    ______ ____
ROOT
ATOM      1  C   UNL     1       0.731  14.415  19.155  0.00  0.00    +0.000 C 
ATOM      2  O   UNL     1       1.459  13.553  18.659  0.00  0.00    +0.000 OA
ATOM      3  N   UNL     1      -0.554  14.091  19.621  0.00  0.00    +0.000 N 
ATOM      4  C   UNL     1      -1.420  14.913  20.484  0.00  0.00    +0.000 C 
ATOM      5  C   UNL     1      -1.822  14.333  21.845  0.00  0.00    +0.000 C 
ATOM      6  O   UNL     1      -2.473  13.065  21.767  0.00  0.00    +0.000 OA
ATOM      7  C   UNL     1      -1.537  12.068  21.682  0.00  0.00    +0.000 A 
ATOM      8  C   UNL     1      -1.288  11.292  22.809  0.00  0.00    +0.000 A 
ATOM      9  C   UNL     1      -0.375  10.240  22.727  0.00  0.00    +0.000 A 
ATOM     10  C   UNL     1       0.252   9.938  21.507  0.00  0.00    +0.000 A 
ATOM     11  C   UNL     1      -0.017  10.732  20.384  0.00  0.00    +0.000 A 
ATOM     12  C   UNL     1      -0.886  11.824  20.473  0.00  0.00    +0.000 A 
ATOM     13  C   UNL     1      -1.065  12.754  19.309  0.00  0.00    +0.000 C 
ENDROOT
BRANCH   1  19
ATOM     14  C   UNL     1       0.743  17.000  18.641  0.00  0.00    +0.000 A 
ATOM     15  N   UNL     1       1.484  18.051  19.016  0.00  0.00    +0.000 NA
ATOM     16  O   UNL     1       2.533  17.532  19.737  0.00  0.00    +0.000 OA
ATOM     17  C   UNL     1       2.405  16.183  19.825  0.00  0.00    +0.000 A 
ATOM     18  C   UNL     1       3.536  15.497  20.485  0.00  0.00    +0.000 C 
ATOM     19  C   UNL     1       1.214  15.788  19.235  0.00  0.00    +0.000 A 
BRANCH  14  21
ATOM     20  C   UNL     1      -0.195  18.403  16.769  0.00  0.00    +0.000 C 
ATOM     21  C   UNL     1      -0.397  17.227  17.705  0.00  0.00    +0.000 C 
ENDBRANCH  14  21
ENDBRANCH   1  19
BRANCH  10  22
ATOM     22  C   UNL     1       1.186   8.754  21.385  0.00  0.00    +0.000 C 
BRANCH  22  23
ATOM     23  N   UNL     1       1.316   8.218  20.009  0.00  0.00    +0.000 NA
ATOM     24  C   UNL     1       1.826   9.261  19.101  0.00  0.00    +0.000 C 
ATOM     25  C   UNL     1       2.156   8.726  17.709  0.00  0.00    +0.000 C 
ATOM     26  C   UNL     1       3.152   7.581  17.797  0.00  0.00    +0.000 C 
ATOM     27  C   UNL     1       2.589   6.466  18.684  0.00  0.00    +0.000 C 
ATOM     28  C   UNL     1       2.177   7.022  20.055  0.00  0.00    +0.000 C 
BRANCH  27  29
ATOM     29  C   UNL     1       3.646   5.385  18.900  0.00  0.00    +0.000 C 
ATOM     30  O   UNL     1       3.580   4.602  19.849  0.00  0.00    +0.000 OA
BRANCH  29  31
ATOM     31  C   UNL     1       4.760   5.218  17.927  0.00  0.00    +0.000 A 
ATOM     32  C   UNL     1       6.016   5.814  18.057  0.00  0.00    +0.000 A 
ATOM     33  C   UNL     1       6.984   5.597  17.076  0.00  0.00    +0.000 A 
ATOM     34  C   UNL     1       6.670   4.790  15.998  0.00  0.00    +0.000 A 
ATOM     35  N   UNL     1       5.463   4.203  15.834  0.00  0.00    +0.000 NA
ATOM     36  C   UNL     1       4.538   4.426  16.802  0.00  0.00    +0.000 A 
ENDBRANCH  29  31
ENDBRANCH  27  29
ENDBRANCH  22  23
ENDBRANCH  10  22
TORSDOF 6
ENDMDL
MODEL 9
REMARK VINA RESULT:      -7.9      1.120      2.222
REMARK  Name = 
REMARK  8 active torsions:
REMARK  status: ('A' for Active; 'I' for Inactive)
REMARK    1  A    between atoms: C_1  and  C_2
REMARK    2  A    between atoms: C_2  and  C_3
REMARK    3  A    between atoms: C_6  and  C_7
REMARK    4  A    between atoms: C_8  and  C_9
REMARK    5  A    between atoms: C_18  and  C_19
REMARK    6  A    between atoms: C_19  and  N_20
REMARK    7  A    between atoms: C_24  and  C_25
REMARK    8  A    between atoms: C_25  and  C_27
REMARK                            x       y       z     vdW  Elec       q    Type
REMARK                         _______ _______ _______ _____ _____    ______ ____
ROOT
ATOM      1  C   UNL     1       1.960  13.841  19.758  0.00  0.00    +0.000 C 
ATOM      2  O   UNL     1       2.631  13.489  18.786  0.00  0.00    +0.000 OA
ATOM      3  N   UNL     1       0.727  13.228  20.040  0.00  0.00    +0.000 N 
ATOM      4  C   UNL     1      -0.045  13.321  21.291  0.00  0.00    +0.000 C 
ATOM      5  C   UNL     1      -0.309  12.023  22.061  0.00  0.00    +0.000 C 
ATOM      6  O   UNL     1      -0.966  11.014  21.293  0.00  0.00    +0.000 OA
ATOM      7  C   UNL     1      -0.046  10.322  20.552  0.00  0.00    +0.000 A 
ATOM      8  C   UNL     1       0.315   9.043  20.965  0.00  0.00    +0.000 A 
ATOM      9  C   UNL     1       1.213   8.304  20.195  0.00  0.00    +0.000 A 
ATOM     10  C   UNL     1       1.713   8.826  18.991  0.00  0.00    +0.000 A 
ATOM     11  C   UNL     1       1.333  10.114  18.594  0.00  0.00    +0.000 A 
ATOM     12  C   UNL     1       0.479  10.885  19.389  0.00  0.00    +0.000 A 
ATOM     13  C   UNL     1       0.185  12.313  19.033  0.00  0.00    +0.000 C 
ENDROOT
BRANCH   1  19
ATOM     14  C   UNL     1       3.489  14.968  21.584  0.00  0.00    +0.000 A 
ATOM     15  N   UNL     1       3.620  16.196  22.104  0.00  0.00    +0.000 NA
ATOM     16  O   UNL     1       2.582  16.934  21.587  0.00  0.00    +0.000 OA
ATOM     17  C   UNL     1       1.855  16.167  20.735  0.00  0.00    +0.000 A 
ATOM     18  C   UNL     1       0.642  16.821  20.198  0.00  0.00    +0.000 C 
ATOM     19  C   UNL     1       2.451  14.923  20.603  0.00  0.00    +0.000 A 
BRANCH  14  21
ATOM     20  C   UNL     1       5.740  14.378  22.554  0.00  0.00    +0.000 C 
ATOM     21  C   UNL     1       4.387  13.883  22.079  0.00  0.00    +0.000 C 
ENDBRANCH  14  21
ENDBRANCH   1  19
BRANCH  10  22
ATOM     22  C   UNL     1       2.628   8.005  18.108  0.00  0.00    +0.000 C 
BRANCH  22  23
ATOM     23  N   UNL     1       2.904   6.641  18.616  0.00  0.00    +0.000 NA
ATOM     24  C   UNL     1       1.955   5.677  18.032  0.00  0.00    +0.000 C 
ATOM     25  C   UNL     1       2.297   4.228  18.371  0.00  0.00    +0.000 C 
ATOM     26  C   UNL     1       3.713   3.894  17.930  0.00  0.00    +0.000 C 
ATOM     27  C   UNL     1       4.706   4.853  18.595  0.00  0.00    +0.000 C 
ATOM     28  C   UNL     1       4.311   6.312  18.326  0.00  0.00    +0.000 C 
BRANCH  27  29
ATOM     29  C   UNL     1       6.109   4.622  18.038  0.00  0.00    +0.000 C 
ATOM     30  O   UNL     1       7.073   4.431  18.782  0.00  0.00    +0.000 OA
BRANCH  29  31
ATOM     31  C   UNL     1       6.335   4.566  16.568  0.00  0.00    +0.000 A 
ATOM     32  C   UNL     1       5.646   3.719  15.697  0.00  0.00    +0.000 A 
ATOM     33  C   UNL     1       5.948   3.742  14.335  0.00  0.00    +0.000 A 
ATOM     34  C   UNL     1       6.925   4.610  13.884  0.00  0.00    +0.000 A 
ATOM     35  N   UNL     1       7.618   5.439  14.698  0.00  0.00    +0.000 NA
ATOM     36  C   UNL     1       7.306   5.400  16.018  0.00  0.00    +0.000 A 
ENDBRANCH  29  31
ENDBRANCH  27  29
ENDBRANCH  22  23
ENDBRANCH  10  22
TORSDOF 6
ENDMDL
