MODEL 1
REMARK VINA RESULT:      -7.7      0.000      0.000
REMARK  Name = 
REMARK  8 active torsions:
REMARK  status: ('A' for Active; 'I' for Inactive)
REMARK    1  A    between atoms: C_1  and  O_2
REMARK    2  A    between atoms: O_2  and  C_3
REMARK    3  A    between atoms: N_10  and  C_11
REMARK    4  A    between atoms: C_21  and  O_22
REMARK    5  A    between atoms: O_22  and  C_23
REMARK    6  A    between atoms: C_23  and  C_24
REMARK    7  A    between atoms: C_24  and  C_25
REMARK    8  A    between atoms: C_25  and  N_26
REMARK                            x       y       z     vdW  Elec       q    Type
REMARK                         _______ _______ _______ _____ _____    ______ ____
ROOT
ATOM      1  C   UNL     1       6.221   5.138  16.606  0.00  0.00    +0.000 A 
ATOM      2  C   UNL     1       5.020   4.444  16.796  0.00  0.00    +0.000 A 
ATOM      3  C   UNL     1       3.888   5.042  17.327  0.00  0.00    +0.000 A 
ATOM      4  N   UNL     1       2.801   4.286  17.490  0.00  0.00    +0.000 NA
ATOM      5  C   UNL     1       1.728   4.885  18.011  0.00  0.00    +0.000 A 
ATOM      6  N   UNL     1       1.643   6.167  18.358  0.00  0.00    +0.000 NA
ATOM      7  C   UNL     1       2.739   6.929  18.168  0.00  0.00    +0.000 A 
ATOM      8  N   UNL     1       2.662   8.318  18.472  0.00  0.00    +0.000 N 
ATOM      9  C   UNL     1       3.934   6.398  17.660  0.00  0.00    +0.000 A 
ATOM     10  C   UNL     1       5.130   7.122  17.457  0.00  0.00    +0.000 A 
ATOM     11  C   UNL     1       6.250   6.513  16.887  0.00  0.00    +0.000 A 
ATOM     12  H   UNL     1       2.915   8.850  17.642  0.00  0.00    +0.000 HD
ENDROOT
BRANCH   8  13
ATOM     13  C   UNL     1       1.584   8.902  19.181  0.00  0.00    +0.000 A 
ATOM     14  C   UNL     1       0.649   9.705  18.510  0.00  0.00    +0.000 A 
ATOM     15  C   UNL     1      -0.365  10.362  19.207  0.00  0.00    +0.000 A 
ATOM     16  C   UNL     1      -0.450  10.207  20.582  0.00  0.00    +0.000 A 
ATOM     17  F   UNL     1      -1.408  10.869  21.248  0.00  0.00    +0.000 F 
ATOM     18  C   UNL     1       0.451   9.386  21.263  0.00  0.00    +0.000 A 
ATOM     19 CL   UNL     1       0.346   9.199  22.973  0.00  0.00    +0.000 Cl
ATOM     20  C   UNL     1       1.463   8.725  20.564  0.00  0.00    +0.000 A 
ENDBRANCH   8  13
BRANCH   1  22
ATOM     21  C   UNL     1       7.539   4.478  14.701  0.00  0.00    +0.000 C 
ATOM     22  O   UNL     1       7.352   4.546  16.113  0.00  0.00    +0.000 OA
ENDBRANCH   1  22
BRANCH  11  23
ATOM     23  O   UNL     1       7.292   7.381  16.672  0.00  0.00    +0.000 OA
BRANCH  23  24
ATOM     24  C   UNL     1       7.875   7.925  17.857  0.00  0.00    +0.000 C 
BRANCH  24  25
ATOM     25  C   UNL     1       7.938   9.456  17.773  0.00  0.00    +0.000 C 
BRANCH  25  26
ATOM     26  C   UNL     1       9.106   9.934  18.642  0.00  0.00    +0.000 C 
BRANCH  26  27
ATOM     27  N   UNL     1       9.892  11.041  18.074  0.00  0.00    +0.000 NA
ATOM     28  C   UNL     1       9.064  12.285  18.090  0.00  0.00    +0.000 C 
ATOM     29  C   UNL     1       9.756  12.704  19.363  0.00  0.00    +0.000 C 
ATOM     30  C   UNL     1      10.172  14.153  19.505  0.00  0.00    +0.000 C 
ATOM     31  S   UNL     1       9.993  13.996  21.323  0.00  0.00    +0.000 S 
ATOM     32  C   UNL     1       8.993  12.606  20.674  0.00  0.00    +0.000 C 
ATOM     33  C   UNL     1      10.809  11.656  19.078  0.00  0.00    +0.000 C 
ENDBRANCH  26  27
ENDBRANCH  25  26
ENDBRANCH  24  25
ENDBRANCH  23  24
ENDBRANCH  11  23
TORSDOF 7
ENDMDL
MODEL 2
REMARK VINA RESULT:      -7.5      1.190      1.558
REMARK  Name = 
REMARK  8 active torsions:
REMARK  status: ('A' for Active; 'I' for Inactive)
REMARK    1  A    between atoms: C_1  and  O_2
REMARK    2  A    between atoms: O_2  and  C_3
REMARK    3  A    between atoms: N_10  and  C_11
REMARK    4  A    between atoms: C_21  and  O_22
REMARK    5  A    between atoms: O_22  and  C_23
REMARK    6  A    between atoms: C_23  and  C_24
REMARK    7  A    between atoms: C_24  and  C_25
REMARK    8  A    between atoms: C_25  and  N_26
REMARK                            x       y       z     vdW  Elec       q    Type
REMARK                         _______ _______ _______ _____ _____    ______ ____
ROOT
ATOM      1  C   UNL     1       6.217   4.978  16.279  0.00  0.00    +0.000 A 
ATOM      2  C   UNL     1       5.013   4.283  16.446  0.00  0.00    +0.000 A 
ATOM      3  C   UNL     1       3.934   4.816  17.135  0.00  0.00    +0.000 A 
ATOM      4  N   UNL     1       2.840   4.062  17.260  0.00  0.00    +0.000 NA
ATOM      5  C   UNL     1       1.820   4.595  17.936  0.00  0.00    +0.000 A 
ATOM      6  N   UNL     1       1.793   5.813  18.473  0.00  0.00    +0.000 NA
ATOM      7  C   UNL     1       2.894   6.576  18.322  0.00  0.00    +0.000 A 
ATOM      8  N   UNL     1       2.875   7.905  18.831  0.00  0.00    +0.000 N 
ATOM      9  C   UNL     1       4.038   6.106  17.660  0.00  0.00    +0.000 A 
ATOM     10  C   UNL     1       5.238   6.831  17.485  0.00  0.00    +0.000 A 
ATOM     11  C   UNL     1       6.302   6.295  16.756  0.00  0.00    +0.000 A 
ATOM     12  H   UNL     1       3.088   8.550  18.074  0.00  0.00    +0.000 HD
ENDROOT
BRANCH   8  13
ATOM     13  C   UNL     1       1.862   8.396  19.691  0.00  0.00    +0.000 A 
ATOM     14  C   UNL     1       1.688   7.840  20.968  0.00  0.00    +0.000 A 
ATOM     15  C   UNL     1       0.639   8.247  21.792  0.00  0.00    +0.000 A 
ATOM     16  C   UNL     1      -0.236   9.222  21.340  0.00  0.00    +0.000 A 
ATOM     17  F   UNL     1      -1.262   9.584  22.126  0.00  0.00    +0.000 F 
ATOM     18  C   UNL     1      -0.060   9.811  20.086  0.00  0.00    +0.000 A 
ATOM     19 CL   UNL     1      -1.152  11.021  19.525  0.00  0.00    +0.000 Cl
ATOM     20  C   UNL     1       0.993   9.407  19.264  0.00  0.00    +0.000 A 
ENDBRANCH   8  13
BRANCH   1  22
ATOM     21  C   UNL     1       7.374   4.558  14.207  0.00  0.00    +0.000 C 
ATOM     22  O   UNL     1       7.297   4.446  15.627  0.00  0.00    +0.000 OA
ENDBRANCH   1  22
BRANCH  11  23
ATOM     23  O   UNL     1       7.350   7.168  16.600  0.00  0.00    +0.000 OA
BRANCH  23  24
ATOM     24  C   UNL     1       7.235   8.383  17.340  0.00  0.00    +0.000 C 
BRANCH  24  25
ATOM     25  C   UNL     1       8.517   8.651  18.140  0.00  0.00    +0.000 C 
BRANCH  25  26
ATOM     26  C   UNL     1       8.543  10.136  18.517  0.00  0.00    +0.000 C 
BRANCH  26  27
ATOM     27  N   UNL     1       9.855  10.646  18.948  0.00  0.00    +0.000 NA
ATOM     28  C   UNL     1      10.447  11.463  17.846  0.00  0.00    +0.000 C 
ATOM     29  C   UNL     1       9.952  12.711  18.533  0.00  0.00    +0.000 C 
ATOM     30  C   UNL     1      10.880  13.907  18.593  0.00  0.00    +0.000 C 
ATOM     31  S   UNL     1       9.411  15.006  18.634  0.00  0.00    +0.000 S 
ATOM     32  C   UNL     1       8.754  13.440  17.948  0.00  0.00    +0.000 C 
ATOM     33  C   UNL     1       9.736  11.880  19.779  0.00  0.00    +0.000 C 
ENDBRANCH  26  27
ENDBRANCH  25  26
ENDBRANCH  24  25
ENDBRANCH  23  24
ENDBRANCH  11  23
TORSDOF 7
ENDMDL
MODEL 3
REMARK VINA RESULT:      -7.2      6.617     10.398
REMARK  Name = 
REMARK  8 active torsions:
REMARK  status: ('A' for Active; 'I' for Inactive)
REMARK    1  A    between atoms: C_1  and  O_2
REMARK    2  A    between atoms: O_2  and  C_3
REMARK    3  A    between atoms: N_10  and  C_11
REMARK    4  A    between atoms: C_21  and  O_22
REMARK    5  A    between atoms: O_22  and  C_23
REMARK    6  A    between atoms: C_23  and  C_24
REMARK    7  A    between atoms: C_24  and  C_25
REMARK    8  A    between atoms: C_25  and  N_26
REMARK                            x       y       z     vdW  Elec       q    Type
REMARK                         _______ _______ _______ _____ _____    ______ ____
ROOT
ATOM      1  C   UNL     1       0.505  11.830  20.509  0.00  0.00    +0.000 A 
ATOM      2  C   UNL     1       0.917  11.429  19.232  0.00  0.00    +0.000 A 
ATOM      3  C   UNL     1       1.353  10.142  18.959  0.00  0.00    +0.000 A 
ATOM      4  N   UNL     1       1.748   9.868  17.714  0.00  0.00    +0.000 NA
ATOM      5  C   UNL     1       2.171   8.624  17.481  0.00  0.00    +0.000 A 
ATOM      6  N   UNL     1       2.212   7.635  18.371  0.00  0.00    +0.000 NA
ATOM      7  C   UNL     1       1.789   7.914  19.620  0.00  0.00    +0.000 A 
ATOM      8  N   UNL     1       1.763   6.863  20.580  0.00  0.00    +0.000 N 
ATOM      9  C   UNL     1       1.356   9.197  19.988  0.00  0.00    +0.000 A 
ATOM     10  C   UNL     1       0.925   9.577  21.279  0.00  0.00    +0.000 A 
ATOM     11  C   UNL     1       0.454  10.867  21.529  0.00  0.00    +0.000 A 
ATOM     12  H   UNL     1       0.820   6.782  20.952  0.00  0.00    +0.000 HD
ENDROOT
BRANCH   8  13
ATOM     13  C   UNL     1       2.373   5.603  20.371  0.00  0.00    +0.000 A 
ATOM     14  C   UNL     1       1.842   4.451  20.975  0.00  0.00    +0.000 A 
ATOM     15  C   UNL     1       2.481   3.218  20.855  0.00  0.00    +0.000 A 
ATOM     16  C   UNL     1       3.654   3.132  20.120  0.00  0.00    +0.000 A 
ATOM     17  F   UNL     1       4.279   1.948  20.038  0.00  0.00    +0.000 F 
ATOM     18  C   UNL     1       4.179   4.258  19.485  0.00  0.00    +0.000 A 
ATOM     19 CL   UNL     1       5.639   4.150  18.575  0.00  0.00    +0.000 Cl
ATOM     20  C   UNL     1       3.537   5.493  19.600  0.00  0.00    +0.000 A 
ENDBRANCH   8  13
BRANCH   1  22
ATOM     21  C   UNL     1      -0.499  13.890  19.764  0.00  0.00    +0.000 C 
ATOM     22  O   UNL     1       0.104  13.107  20.793  0.00  0.00    +0.000 OA
ENDBRANCH   1  22
BRANCH  11  23
ATOM     23  O   UNL     1      -0.015  11.038  22.808  0.00  0.00    +0.000 OA
BRANCH  23  24
ATOM     24  C   UNL     1      -1.435  10.973  22.941  0.00  0.00    +0.000 C 
BRANCH  24  25
ATOM     25  C   UNL     1      -2.001  12.342  23.341  0.00  0.00    +0.000 C 
BRANCH  25  26
ATOM     26  C   UNL     1      -3.103  12.712  22.344  0.00  0.00    +0.000 C 
BRANCH  26  27
ATOM     27  N   UNL     1      -4.466  12.337  22.754  0.00  0.00    +0.000 NA
ATOM     28  C   UNL     1      -4.801  13.040  24.030  0.00  0.00    +0.000 C 
ATOM     29  C   UNL     1      -5.539  14.088  23.235  0.00  0.00    +0.000 C 
ATOM     30  C   UNL     1      -6.873  14.575  23.761  0.00  0.00    +0.000 C 
ATOM     31  S   UNL     1      -6.575  16.187  22.939  0.00  0.00    +0.000 S 
ATOM     32  C   UNL     1      -4.901  15.457  23.066  0.00  0.00    +0.000 C 
ATOM     33  C   UNL     1      -5.509  13.143  22.054  0.00  0.00    +0.000 C 
ENDBRANCH  26  27
ENDBRANCH  25  26
ENDBRANCH  24  25
ENDBRANCH  23  24
ENDBRANCH  11  23
TORSDOF 7
ENDMDL
MODEL 4
REMARK VINA RESULT:      -7.2      1.089      1.367
REMARK  Name = 
REMARK  8 active torsions:
REMARK  status: ('A' for Active; 'I' for Inactive)
REMARK    1  A    between atoms: C_1  and  O_2
REMARK    2  A    between atoms: O_2  and  C_3
REMARK    3  A    between atoms: N_10  and  C_11
REMARK    4  A    between atoms: C_21  and  O_22
REMARK    5  A    between atoms: O_22  and  C_23
REMARK    6  A    between atoms: C_23  and  C_24
REMARK    7  A    between atoms: C_24  and  C_25
REMARK    8  A    between atoms: C_25  and  N_26
REMARK                            x       y       z     vdW  Elec       q    Type
REMARK                         _______ _______ _______ _____ _____    ______ ____
ROOT
ATOM      1  C   UNL     1       6.472   5.159  17.168  0.00  0.00    +0.000 A 
ATOM      2  C   UNL     1       5.285   4.444  17.367  0.00  0.00    +0.000 A 
ATOM      3  C   UNL     1       4.085   5.064  17.679  0.00  0.00    +0.000 A 
ATOM      4  N   UNL     1       3.016   4.290  17.874  0.00  0.00    +0.000 NA
ATOM      5  C   UNL     1       1.875   4.911  18.182  0.00  0.00    +0.000 A 
ATOM      6  N   UNL     1       1.710   6.227  18.290  0.00  0.00    +0.000 NA
ATOM      7  C   UNL     1       2.790   7.003  18.069  0.00  0.00    +0.000 A 
ATOM      8  N   UNL     1       2.633   8.417  18.117  0.00  0.00    +0.000 N 
ATOM      9  C   UNL     1       4.048   6.457  17.773  0.00  0.00    +0.000 A 
ATOM     10  C   UNL     1       5.231   7.198  17.556  0.00  0.00    +0.000 A 
ATOM     11  C   UNL     1       6.423   6.562  17.205  0.00  0.00    +0.000 A 
ATOM     12  H   UNL     1       2.947   8.812  17.234  0.00  0.00    +0.000 HD
ENDROOT
BRANCH   8  13
ATOM     13  C   UNL     1       1.470   9.055  18.612  0.00  0.00    +0.000 A 
ATOM     14  C   UNL     1       0.543   9.624  17.725  0.00  0.00    +0.000 A 
ATOM     15  C   UNL     1      -0.560  10.336  18.197  0.00  0.00    +0.000 A 
ATOM     16  C   UNL     1      -0.743  10.471  19.564  0.00  0.00    +0.000 A 
ATOM     17  F   UNL     1      -1.788  11.185  20.008  0.00  0.00    +0.000 F 
ATOM     18  C   UNL     1       0.149   9.884  20.463  0.00  0.00    +0.000 A 
ATOM     19 CL   UNL     1      -0.077  10.057  22.163  0.00  0.00    +0.000 Cl
ATOM     20  C   UNL     1       1.251   9.167  19.991  0.00  0.00    +0.000 A 
ENDBRANCH   8  13
BRANCH   1  22
ATOM     21  C   UNL     1       8.565   4.267  17.963  0.00  0.00    +0.000 C 
ATOM     22  O   UNL     1       7.667   4.552  16.891  0.00  0.00    +0.000 OA
ENDBRANCH   1  22
BRANCH  11  23
ATOM     23  O   UNL     1       7.449   7.435  16.937  0.00  0.00    +0.000 OA
BRANCH  23  24
ATOM     24  C   UNL     1       7.360   8.690  17.611  0.00  0.00    +0.000 C 
BRANCH  24  25
ATOM     25  C   UNL     1       8.617   8.936  18.458  0.00  0.00    +0.000 C 
BRANCH  25  26
ATOM     26  C   UNL     1       8.955  10.429  18.386  0.00  0.00    +0.000 C 
BRANCH  26  27
ATOM     27  N   UNL     1       9.674  10.960  19.556  0.00  0.00    +0.000 NA
ATOM     28  C   UNL     1      11.034  11.409  19.128  0.00  0.00    +0.000 C 
ATOM     29  C   UNL     1      10.519  12.824  19.045  0.00  0.00    +0.000 C 
ATOM     30  C   UNL     1      11.396  13.935  19.585  0.00  0.00    +0.000 C 
ATOM     31  S   UNL     1      10.626  15.086  18.382  0.00  0.00    +0.000 S 
ATOM     32  C   UNL     1      10.278  13.433  17.674  0.00  0.00    +0.000 C 
ATOM     33  C   UNL     1       9.313  12.380  19.844  0.00  0.00    +0.000 C 
ENDBRANCH  26  27
ENDBRANCH  25  26
ENDBRANCH  24  25
ENDBRANCH  23  24
ENDBRANCH  11  23
TORSDOF 7
ENDMDL
MODEL 5
REMARK VINA RESULT:      -7.1      5.590      8.051
REMARK  Name = 
REMARK  8 active torsions:
REMARK  status: ('A' for Active; 'I' for Inactive)
REMARK    1  A    between atoms: C_1  and  O_2
REMARK    2  A    between atoms: O_2  and  C_3
REMARK    3  A    between atoms: N_10  and  C_11
REMARK    4  A    between atoms: C_21  and  O_22
REMARK    5  A    between atoms: O_22  and  C_23
REMARK    6  A    between atoms: C_23  and  C_24
REMARK    7  A    between atoms: C_24  and  C_25
REMARK    8  A    between atoms: C_25  and  N_26
REMARK                            x       y       z     vdW  Elec       q    Type
REMARK                         _______ _______ _______ _____ _____    ______ ____
ROOT
ATOM      1  C   UNL     1       1.787   7.118  20.132  0.00  0.00    +0.000 A 
ATOM      2  C   UNL     1       2.237   5.800  20.277  0.00  0.00    +0.000 A 
ATOM      3  C   UNL     1       3.052   5.183  19.341  0.00  0.00    +0.000 A 
ATOM      4  N   UNL     1       3.405   3.915  19.560  0.00  0.00    +0.000 NA
ATOM      5  C   UNL     1       4.183   3.342  18.640  0.00  0.00    +0.000 A 
ATOM      6  N   UNL     1       4.651   3.929  17.540  0.00  0.00    +0.000 NA
ATOM      7  C   UNL     1       4.308   5.217  17.338  0.00  0.00    +0.000 A 
ATOM      8  N   UNL     1       4.841   5.893  16.204  0.00  0.00    +0.000 N 
ATOM      9  C   UNL     1       3.467   5.909  18.222  0.00  0.00    +0.000 A 
ATOM     10  C   UNL     1       3.039   7.247  18.067  0.00  0.00    +0.000 A 
ATOM     11  C   UNL     1       2.249   7.866  19.038  0.00  0.00    +0.000 A 
ATOM     12  H   UNL     1       5.332   6.726  16.519  0.00  0.00    +0.000 HD
ENDROOT
BRANCH   8  13
ATOM     13  C   UNL     1       5.517   5.231  15.150  0.00  0.00    +0.000 A 
ATOM     14  C   UNL     1       6.915   5.310  15.047  0.00  0.00    +0.000 A 
ATOM     15  C   UNL     1       7.590   4.743  13.967  0.00  0.00    +0.000 A 
ATOM     16  C   UNL     1       6.862   4.084  12.987  0.00  0.00    +0.000 A 
ATOM     17  F   UNL     1       7.516   3.570  11.934  0.00  0.00    +0.000 F 
ATOM     18  C   UNL     1       5.475   3.966  13.088  0.00  0.00    +0.000 A 
ATOM     19 CL   UNL     1       4.573   3.150  11.867  0.00  0.00    +0.000 Cl
ATOM     20  C   UNL     1       4.801   4.530  14.173  0.00  0.00    +0.000 A 
ENDBRANCH   8  13
BRANCH   1  22
ATOM     21  C   UNL     1       1.486   8.724  21.902  0.00  0.00    +0.000 C 
ATOM     22  O   UNL     1       0.956   7.723  21.035  0.00  0.00    +0.000 OA
ENDBRANCH   1  22
BRANCH  11  23
ATOM     23  O   UNL     1       2.006   9.192  18.778  0.00  0.00    +0.000 OA
BRANCH  23  24
ATOM     24  C   UNL     1       0.871   9.444  17.950  0.00  0.00    +0.000 C 
BRANCH  24  25
ATOM     25  C   UNL     1      -0.239  10.137  18.752  0.00  0.00    +0.000 C 
BRANCH  25  26
ATOM     26  C   UNL     1      -0.024  11.651  18.653  0.00  0.00    +0.000 C 
BRANCH  26  27
ATOM     27  N   UNL     1      -0.254  12.395  19.902  0.00  0.00    +0.000 NA
ATOM     28  C   UNL     1       0.927  12.215  20.800  0.00  0.00    +0.000 C 
ATOM     29  C   UNL     1       1.460  13.547  20.333  0.00  0.00    +0.000 C 
ATOM     30  C   UNL     1       2.051  14.481  21.368  0.00  0.00    +0.000 C 
ATOM     31  S   UNL     1       3.135  15.187  20.067  0.00  0.00    +0.000 S 
ATOM     32  C   UNL     1       2.640  13.564  19.377  0.00  0.00    +0.000 C 
ATOM     33  C   UNL     1       0.088  13.842  19.768  0.00  0.00    +0.000 C 
ENDBRANCH  26  27
ENDBRANCH  25  26
ENDBRANCH  24  25
ENDBRANCH  23  24
ENDBRANCH  11  23
TORSDOF 7
ENDMDL
MODEL 6
REMARK VINA RESULT:      -7.1      0.997      1.114
REMARK  Name = 
REMARK  8 active torsions:
REMARK  status: ('A' for Active; 'I' for Inactive)
REMARK    1  A    between atoms: C_1  and  O_2
REMARK    2  A    between atoms: O_2  and  C_3
REMARK    3  A    between atoms: N_10  and  C_11
REMARK    4  A    between atoms: C_21  and  O_22
REMARK    5  A    between atoms: O_22  and  C_23
REMARK    6  A    between atoms: C_23  and  C_24
REMARK    7  A    between atoms: C_24  and  C_25
REMARK    8  A    between atoms: C_25  and  N_26
REMARK                            x       y       z     vdW  Elec       q    Type
REMARK                         _______ _______ _______ _____ _____    ______ ____
ROOT
ATOM      1  C   UNL     1       5.727   4.866  17.265  0.00  0.00    +0.000 A 
ATOM      2  C   UNL     1       4.641   4.180  17.823  0.00  0.00    +0.000 A 
ATOM      3  C   UNL     1       3.571   4.833  18.413  0.00  0.00    +0.000 A 
ATOM      4  N   UNL     1       2.597   4.087  18.939  0.00  0.00    +0.000 NA
ATOM      5  C   UNL     1       1.582   4.741  19.508  0.00  0.00    +0.000 A 
ATOM      6  N   UNL     1       1.449   6.064  19.577  0.00  0.00    +0.000 NA
ATOM      7  C   UNL     1       2.425   6.810  19.023  0.00  0.00    +0.000 A 
ATOM      8  N   UNL     1       2.283   8.226  19.026  0.00  0.00    +0.000 N 
ATOM      9  C   UNL     1       3.556   6.230  18.428  0.00  0.00    +0.000 A 
ATOM     10  C   UNL     1       4.633   6.941  17.853  0.00  0.00    +0.000 A 
ATOM     11  C   UNL     1       5.686   6.269  17.228  0.00  0.00    +0.000 A 
ATOM     12  H   UNL     1       2.343   8.564  18.068  0.00  0.00    +0.000 HD
ENDROOT
BRANCH   8  13
ATOM     13  C   UNL     1       1.298   8.909  19.780  0.00  0.00    +0.000 A 
ATOM     14  C   UNL     1       0.403   9.786  19.146  0.00  0.00    +0.000 A 
ATOM     15  C   UNL     1      -0.513  10.535  19.884  0.00  0.00    +0.000 A 
ATOM     16  C   UNL     1      -0.541  10.400  21.264  0.00  0.00    +0.000 A 
ATOM     17  F   UNL     1      -1.403  11.149  21.968  0.00  0.00    +0.000 F 
ATOM     18  C   UNL     1       0.317   9.508  21.910  0.00  0.00    +0.000 A 
ATOM     19 CL   UNL     1       0.283   9.345  23.625  0.00  0.00    +0.000 Cl
ATOM     20  C   UNL     1       1.231   8.754  21.170  0.00  0.00    +0.000 A 
ENDBRANCH   8  13
BRANCH   1  22
ATOM     21  C   UNL     1       6.821   3.997  15.302  0.00  0.00    +0.000 C 
ATOM     22  O   UNL     1       6.803   4.227  16.710  0.00  0.00    +0.000 OA
ENDBRANCH   1  22
BRANCH  11  23
ATOM     23  O   UNL     1       6.596   7.110  16.638  0.00  0.00    +0.000 OA
BRANCH  23  24
ATOM     24  C   UNL     1       6.786   8.355  17.311  0.00  0.00    +0.000 C 
BRANCH  24  25
ATOM     25  C   UNL     1       8.200   8.437  17.904  0.00  0.00    +0.000 C 
BRANCH  25  26
ATOM     26  C   UNL     1       8.470   9.893  18.294  0.00  0.00    +0.000 C 
BRANCH  26  27
ATOM     27  N   UNL     1       9.599  10.091  19.219  0.00  0.00    +0.000 NA
ATOM     28  C   UNL     1      10.510  11.135  18.659  0.00  0.00    +0.000 C 
ATOM     29  C   UNL     1       9.852  12.158  19.552  0.00  0.00    +0.000 C 
ATOM     30  C   UNL     1      10.738  13.162  20.259  0.00  0.00    +0.000 C 
ATOM     31  S   UNL     1       9.345  14.355  20.247  0.00  0.00    +0.000 S 
ATOM     32  C   UNL     1       8.899  13.164  18.929  0.00  0.00    +0.000 C 
ATOM     33  C   UNL     1       9.255  11.013  20.340  0.00  0.00    +0.000 C 
ENDBRANCH  26  27
ENDBRANCH  25  26
ENDBRANCH  24  25
ENDBRANCH  23  24
ENDBRANCH  11  23
TORSDOF 7
ENDMDL
MODEL 7
REMARK VINA RESULT:      -7.0      1.745      2.193
REMARK  Name = 
REMARK  8 active torsions:
REMARK  status: ('A' for Active; 'I' for Inactive)
REMARK    1  A    between atoms: C_1  and  O_2
REMARK    2  A    between atoms: O_2  and  C_3
REMARK    3  A    between atoms: N_10  and  C_11
REMARK    4  A    between atoms: C_21  and  O_22
REMARK    5  A    between atoms: O_22  and  C_23
REMARK    6  A    between atoms: C_23  and  C_24
REMARK    7  A    between atoms: C_24  and  C_25
REMARK    8  A    between atoms: C_25  and  N_26
REMARK                            x       y       z     vdW  Elec       q    Type
REMARK                         _______ _______ _______ _____ _____    ______ ____
ROOT
ATOM      1  C   UNL     1       5.523   4.905  17.704  0.00  0.00    +0.000 A 
ATOM      2  C   UNL     1       4.546   4.227  18.443  0.00  0.00    +0.000 A 
ATOM      3  C   UNL     1       3.530   4.886  19.117  0.00  0.00    +0.000 A 
ATOM      4  N   UNL     1       2.662   4.149  19.813  0.00  0.00    +0.000 NA
ATOM      5  C   UNL     1       1.699   4.809  20.460  0.00  0.00    +0.000 A 
ATOM      6  N   UNL     1       1.518   6.128  20.452  0.00  0.00    +0.000 NA
ATOM      7  C   UNL     1       2.385   6.863  19.727  0.00  0.00    +0.000 A 
ATOM      8  N   UNL     1       2.183   8.270  19.649  0.00  0.00    +0.000 N 
ATOM      9  C   UNL     1       3.456   6.279  19.036  0.00  0.00    +0.000 A 
ATOM     10  C   UNL     1       4.422   6.980  18.279  0.00  0.00    +0.000 A 
ATOM     11  C   UNL     1       5.417   6.299  17.575  0.00  0.00    +0.000 A 
ATOM     12  H   UNL     1       2.109   8.536  18.670  0.00  0.00    +0.000 HD
ENDROOT
BRANCH   8  13
ATOM     13  C   UNL     1       1.271   8.973  20.472  0.00  0.00    +0.000 A 
ATOM     14  C   UNL     1       1.209   8.705  21.849  0.00  0.00    +0.000 A 
ATOM     15  C   UNL     1       0.255   9.321  22.659  0.00  0.00    +0.000 A 
ATOM     16  C   UNL     1      -0.637  10.218  22.090  0.00  0.00    +0.000 A 
ATOM     17  F   UNL     1      -1.572  10.780  22.870  0.00  0.00    +0.000 F 
ATOM     18  C   UNL     1      -0.569  10.523  20.730  0.00  0.00    +0.000 A 
ATOM     19 CL   UNL     1      -1.681  11.635  20.025  0.00  0.00    +0.000 Cl
ATOM     20  C   UNL     1       0.389   9.910  19.920  0.00  0.00    +0.000 A 
ENDBRANCH   8  13
BRANCH   1  22
ATOM     21  C   UNL     1       7.851   4.290  17.641  0.00  0.00    +0.000 C 
ATOM     22  O   UNL     1       6.548   4.263  17.063  0.00  0.00    +0.000 OA
ENDBRANCH   1  22
BRANCH  11  23
ATOM     23  O   UNL     1       6.210   7.124  16.816  0.00  0.00    +0.000 OA
BRANCH  23  24
ATOM     24  C   UNL     1       7.403   7.569  17.460  0.00  0.00    +0.000 C 
BRANCH  24  25
ATOM     25  C   UNL     1       7.454   9.103  17.500  0.00  0.00    +0.000 C 
BRANCH  25  26
ATOM     26  C   UNL     1       8.698   9.519  18.291  0.00  0.00    +0.000 C 
BRANCH  26  27
ATOM     27  N   UNL     1       8.582  10.802  19.004  0.00  0.00    +0.000 NA
ATOM     28  C   UNL     1       9.853  11.063  19.746  0.00  0.00    +0.000 C 
ATOM     29  C   UNL     1      10.306  11.953  18.617  0.00  0.00    +0.000 C 
ATOM     30  C   UNL     1      10.981  13.263  18.968  0.00  0.00    +0.000 C 
ATOM     31  S   UNL     1      11.910  13.173  17.389  0.00  0.00    +0.000 S 
ATOM     32  C   UNL     1      11.382  11.442  17.672  0.00  0.00    +0.000 C 
ATOM     33  C   UNL     1       8.877  11.968  18.120  0.00  0.00    +0.000 C 
ENDBRANCH  26  27
ENDBRANCH  25  26
ENDBRANCH  24  25
ENDBRANCH  23  24
ENDBRANCH  11  23
TORSDOF 7
ENDMDL
MODEL 8
REMARK VINA RESULT:      -7.0      5.821      9.223
REMARK  Name = 
REMARK  8 active torsions:
REMARK  status: ('A' for Active; 'I' for Inactive)
REMARK    1  A    between atoms: C_1  and  O_2
REMARK    2  A    between atoms: O_2  and  C_3
REMARK    3  A    between atoms: N_10  and  C_11
REMARK    4  A    between atoms: C_21  and  O_22
REMARK    5  A    between atoms: O_22  and  C_23
REMARK    6  A    between atoms: C_23  and  C_24
REMARK    7  A    between atoms: C_24  and  C_25
REMARK    8  A    between atoms: C_25  and  N_26
REMARK                            x       y       z     vdW  Elec       q    Type
REMARK                         _______ _______ _______ _____ _____    ______ ____
ROOT
ATOM      1  C   UNL     1      -3.034  10.247  16.558  0.00  0.00    +0.000 A 
ATOM      2  C   UNL     1      -4.199  10.961  16.865  0.00  0.00    +0.000 A 
ATOM      3  C   UNL     1      -4.325  11.720  18.018  0.00  0.00    +0.000 A 
ATOM      4  N   UNL     1      -5.486  12.343  18.231  0.00  0.00    +0.000 NA
ATOM      5  C   UNL     1      -5.585  13.060  19.353  0.00  0.00    +0.000 A 
ATOM      6  N   UNL     1      -4.624  13.222  20.260  0.00  0.00    +0.000 NA
ATOM      7  C   UNL     1      -3.447  12.608  20.026  0.00  0.00    +0.000 A 
ATOM      8  N   UNL     1      -2.379  12.811  20.945  0.00  0.00    +0.000 N 
ATOM      9  C   UNL     1      -3.242  11.801  18.897  0.00  0.00    +0.000 A 
ATOM     10  C   UNL     1      -2.051  11.103  18.594  0.00  0.00    +0.000 A 
ATOM     11  C   UNL     1      -1.926  10.374  17.410  0.00  0.00    +0.000 A 
ATOM     12  H   UNL     1      -1.575  13.175  20.440  0.00  0.00    +0.000 HD
ENDROOT
BRANCH   8  13
ATOM     13  C   UNL     1      -2.547  13.425  22.210  0.00  0.00    +0.000 A 
ATOM     14  C   UNL     1      -3.191  12.737  23.251  0.00  0.00    +0.000 A 
ATOM     15  C   UNL     1      -3.446  13.358  24.473  0.00  0.00    +0.000 A 
ATOM     16  C   UNL     1      -3.047  14.673  24.659  0.00  0.00    +0.000 A 
ATOM     17  F   UNL     1      -3.326  15.273  25.826  0.00  0.00    +0.000 F 
ATOM     18  C   UNL     1      -2.375  15.363  23.649  0.00  0.00    +0.000 A 
ATOM     19 CL   UNL     1      -1.884  16.999  23.882  0.00  0.00    +0.000 Cl
ATOM     20  C   UNL     1      -2.116  14.740  22.427  0.00  0.00    +0.000 A 
ENDBRANCH   8  13
BRANCH   1  22
ATOM     21  C   UNL     1      -3.248  10.028  14.168  0.00  0.00    +0.000 C 
ATOM     22  O   UNL     1      -2.914   9.470  15.437  0.00  0.00    +0.000 OA
ENDBRANCH   1  22
BRANCH  11  23
ATOM     23  O   UNL     1      -0.675   9.840  17.228  0.00  0.00    +0.000 OA
BRANCH  23  24
ATOM     24  C   UNL     1       0.137   9.800  18.402  0.00  0.00    +0.000 C 
BRANCH  24  25
ATOM     25  C   UNL     1       1.618   9.640  18.027  0.00  0.00    +0.000 C 
BRANCH  25  26
ATOM     26  C   UNL     1       1.894   8.150  17.802  0.00  0.00    +0.000 C 
BRANCH  26  27
ATOM     27  N   UNL     1       2.999   7.595  18.601  0.00  0.00    +0.000 NA
ATOM     28  C   UNL     1       2.449   6.591  19.562  0.00  0.00    +0.000 C 
ATOM     29  C   UNL     1       2.843   5.491  18.609  0.00  0.00    +0.000 C 
ATOM     30  C   UNL     1       3.475   4.241  19.184  0.00  0.00    +0.000 C 
ATOM     31  S   UNL     1       2.792   3.284  17.777  0.00  0.00    +0.000 S 
ATOM     32  C   UNL     1       1.755   4.794  17.810  0.00  0.00    +0.000 C 
ATOM     33  C   UNL     1       3.715   6.496  17.888  0.00  0.00    +0.000 C 
ENDBRANCH  26  27
ENDBRANCH  25  26
ENDBRANCH  24  25
ENDBRANCH  23  24
ENDBRANCH  11  23
TORSDOF 7
ENDMDL
MODEL 9
REMARK VINA RESULT:      -6.9      6.512     11.027
REMARK  Name = 
REMARK  8 active torsions:
REMARK  status: ('A' for Active; 'I' for Inactive)
REMARK    1  A    between atoms: C_1  and  O_2
REMARK    2  A    between atoms: O_2  and  C_3
REMARK    3  A    between atoms: N_10  and  C_11
REMARK    4  A    between atoms: C_21  and  O_22
REMARK    5  A    between atoms: O_22  and  C_23
REMARK    6  A    between atoms: C_23  and  C_24
REMARK    7  A    between atoms: C_24  and  C_25
REMARK    8  A    between atoms: C_25  and  N_26
REMARK                            x       y       z     vdW  Elec       q    Type
REMARK                         _______ _______ _______ _____ _____    ______ ____
ROOT
ATOM      1  C   UNL     1      -2.032  12.117  21.398  0.00  0.00    +0.000 A 
ATOM      2  C   UNL     1      -1.244  11.529  22.395  0.00  0.00    +0.000 A 
ATOM      3  C   UNL     1      -0.278  10.575  22.117  0.00  0.00    +0.000 A 
ATOM      4  N   UNL     1       0.402  10.058  23.142  0.00  0.00    +0.000 NA
ATOM      5  C   UNL     1       1.320   9.135  22.847  0.00  0.00    +0.000 A 
ATOM      6  N   UNL     1       1.628   8.706  21.625  0.00  0.00    +0.000 NA
ATOM      7  C   UNL     1       0.952   9.251  20.593  0.00  0.00    +0.000 A 
ATOM      8  N   UNL     1       1.300   8.858  19.270  0.00  0.00    +0.000 N 
ATOM      9  C   UNL     1      -0.058  10.203  20.788  0.00  0.00    +0.000 A 
ATOM     10  C   UNL     1      -0.830  10.800  19.765  0.00  0.00    +0.000 A 
ATOM     11  C   UNL     1      -1.773  11.787  20.059  0.00  0.00    +0.000 A 
ATOM     12  H   UNL     1       1.543   9.688  18.734  0.00  0.00    +0.000 HD
ENDROOT
BRANCH   8  13
ATOM     13  C   UNL     1       2.146   7.760  18.980  0.00  0.00    +0.000 A 
ATOM     14  C   UNL     1       2.179   6.646  19.835  0.00  0.00    +0.000 A 
ATOM     15  C   UNL     1       3.072   5.598  19.616  0.00  0.00    +0.000 A 
ATOM     16  C   UNL     1       3.931   5.658  18.529  0.00  0.00    +0.000 A 
ATOM     17  F   UNL     1       4.809   4.661  18.345  0.00  0.00    +0.000 F 
ATOM     18  C   UNL     1       3.891   6.741  17.649  0.00  0.00    +0.000 A 
ATOM     19 CL   UNL     1       4.964   6.816  16.302  0.00  0.00    +0.000 Cl
ATOM     20  C   UNL     1       2.994   7.789  17.866  0.00  0.00    +0.000 A 
ENDBRANCH   8  13
BRANCH   1  22
ATOM     21  C   UNL     1      -2.684  14.184  22.450  0.00  0.00    +0.000 C 
ATOM     22  O   UNL     1      -3.010  13.036  21.669  0.00  0.00    +0.000 OA
ENDBRANCH   1  22
BRANCH  11  23
ATOM     23  O   UNL     1      -2.361  12.327  18.942  0.00  0.00    +0.000 OA
BRANCH  23  24
ATOM     24  C   UNL     1      -2.167  11.581  17.741  0.00  0.00    +0.000 C 
BRANCH  24  25
ATOM     25  C   UNL     1      -3.502  11.380  17.010  0.00  0.00    +0.000 C 
BRANCH  25  26
ATOM     26  C   UNL     1      -4.528  10.865  18.024  0.00  0.00    +0.000 C 
BRANCH  26  27
ATOM     27  N   UNL     1      -5.935  11.102  17.661  0.00  0.00    +0.000 NA
ATOM     28  C   UNL     1      -6.731  11.312  18.909  0.00  0.00    +0.000 C 
ATOM     29  C   UNL     1      -6.629  12.802  18.699  0.00  0.00    +0.000 C 
ATOM     30  C   UNL     1      -7.865  13.643  18.939  0.00  0.00    +0.000 C 
ATOM     31  S   UNL     1      -6.782  15.057  19.379  0.00  0.00    +0.000 S 
ATOM     32  C   UNL     1      -5.691  13.601  19.589  0.00  0.00    +0.000 C 
ATOM     33  C   UNL     1      -6.188  12.523  17.279  0.00  0.00    +0.000 C 
ENDBRANCH  26  27
ENDBRANCH  25  26
ENDBRANCH  24  25
ENDBRANCH  23  24
ENDBRANCH  11  23
TORSDOF 7
ENDMDL
