MODEL 1
REMARK VINA RESULT:      -7.6      0.000      0.000
REMARK  Name = 
REMARK  3 active torsions:
REMARK  status: ('A' for Active; 'I' for Inactive)
REMARK    1  A    between atoms: C_1  and  C_2
REMARK    2  A    between atoms: C_10  and  C_11
REMARK    3  A    between atoms: C_11  and  N_12
REMARK                            x       y       z     vdW  Elec       q    Type
REMARK                         _______ _______ _______ _____ _____    ______ ____
ROOT
ATOM      1  C   UNL     1      -0.999  11.869  22.602  0.00  0.00    +0.000 C 
ATOM      2  C   UNL     1      -0.149  10.681  22.310  0.00  0.00    +0.000 C 
ATOM      3  O   UNL     1       0.184   9.910  23.205  0.00  0.00    +0.000 OA
ATOM      4  N   UNL     1       0.262  10.444  20.943  0.00  0.00    +0.000 N 
ATOM      5  C   UNL     1      -0.079  11.366  19.837  0.00  0.00    +0.000 C 
ATOM      6  C   UNL     1       1.044  11.370  18.794  0.00  0.00    +0.000 C 
ATOM      7  C   UNL     1       1.322   9.960  18.260  0.00  0.00    +0.000 C 
ATOM      8  N   UNL     1       1.416   9.011  19.350  0.00  0.00    +0.000 N 
ATOM      9  N   UNL     1       1.942   7.787  19.200  0.00  0.00    +0.000 NA
ATOM     10  C   UNL     1       1.831   7.252  20.432  0.00  0.00    +0.000 A 
ATOM     11  C   UNL     1       1.246   8.160  21.349  0.00  0.00    +0.000 A 
ATOM     12  C   UNL     1       0.936   9.269  20.603  0.00  0.00    +0.000 A 
ENDROOT
BRANCH  10  13
ATOM     13  C   UNL     1       2.256   5.838  20.739  0.00  0.00    +0.000 C 
BRANCH  13  14
ATOM     14  N   UNL     1       2.527   4.973  19.591  0.00  0.00    +0.000 N 
ATOM     15  C   UNL     1       1.497   4.037  19.150  0.00  0.00    +0.000 C 
ATOM     16  C   UNL     1       1.423   4.060  17.628  0.00  0.00    +0.000 C 
ATOM     17  O   UNL     1       2.661   3.655  17.032  0.00  0.00    +0.000 OA
ATOM     18  C   UNL     1       3.768   4.205  17.645  0.00  0.00    +0.000 A 
ATOM     19  C   UNL     1       4.963   4.049  16.936  0.00  0.00    +0.000 A 
ATOM     20  C   UNL     1       6.150   4.553  17.456  0.00  0.00    +0.000 A 
ATOM     21  C   UNL     1       6.138   5.203  18.685  0.00  0.00    +0.000 A 
ATOM     22  C   UNL     1       4.941   5.356  19.396  0.00  0.00    +0.000 A 
ATOM     23  C   UNL     1       3.726   4.860  18.901  0.00  0.00    +0.000 A 
ENDBRANCH  13  14
ENDBRANCH  10  13
TORSDOF 2
ENDMDL
MODEL 2
REMARK VINA RESULT:      -7.5      1.917      3.298
REMARK  Name = 
REMARK  3 active torsions:
REMARK  status: ('A' for Active; 'I' for Inactive)
REMARK    1  A    between atoms: C_1  and  C_2
REMARK    2  A    between atoms: C_10  and  C_11
REMARK    3  A    between atoms: C_11  and  N_12
REMARK                            x       y       z     vdW  Elec       q    Type
REMARK                         _______ _______ _______ _____ _____    ______ ____
ROOT
ATOM      1  C   UNL     1      -1.053  12.592  19.681  0.00  0.00    +0.000 C 
ATOM      2  C   UNL     1      -0.366  11.373  19.167  0.00  0.00    +0.000 C 
ATOM      3  O   UNL     1      -0.271  11.166  17.961  0.00  0.00    +0.000 OA
ATOM      4  N   UNL     1       0.203  10.446  20.122  0.00  0.00    +0.000 N 
ATOM      5  C   UNL     1       0.078  10.631  21.584  0.00  0.00    +0.000 C 
ATOM      6  C   UNL     1       0.006   9.267  22.280  0.00  0.00    +0.000 C 
ATOM      7  C   UNL     1       1.222   8.398  21.943  0.00  0.00    +0.000 C 
ATOM      8  N   UNL     1       1.485   8.416  20.519  0.00  0.00    +0.000 N 
ATOM      9  N   UNL     1       2.285   7.523  19.920  0.00  0.00    +0.000 NA
ATOM     10  C   UNL     1       2.252   7.901  18.626  0.00  0.00    +0.000 A 
ATOM     11  C   UNL     1       1.413   9.025  18.428  0.00  0.00    +0.000 A 
ATOM     12  C   UNL     1       0.977   9.370  19.682  0.00  0.00    +0.000 A 
ENDROOT
BRANCH  10  13
ATOM     13  C   UNL     1       3.060   7.203  17.560  0.00  0.00    +0.000 C 
BRANCH  13  14
ATOM     14  N   UNL     1       3.773   5.994  17.968  0.00  0.00    +0.000 N 
ATOM     15  C   UNL     1       5.232   6.006  17.993  0.00  0.00    +0.000 C 
ATOM     16  C   UNL     1       5.715   5.305  19.258  0.00  0.00    +0.000 C 
ATOM     17  O   UNL     1       5.292   3.938  19.299  0.00  0.00    +0.000 OA
ATOM     18  C   UNL     1       3.981   3.759  18.906  0.00  0.00    +0.000 A 
ATOM     19  C   UNL     1       3.458   2.493  19.185  0.00  0.00    +0.000 A 
ATOM     20  C   UNL     1       2.149   2.188  18.829  0.00  0.00    +0.000 A 
ATOM     21  C   UNL     1       1.371   3.148  18.191  0.00  0.00    +0.000 A 
ATOM     22  C   UNL     1       1.898   4.416  17.909  0.00  0.00    +0.000 A 
ATOM     23  C   UNL     1       3.214   4.756  18.254  0.00  0.00    +0.000 A 
ENDBRANCH  13  14
ENDBRANCH  10  13
TORSDOF 2
ENDMDL
MODEL 3
REMARK VINA RESULT:      -7.5      1.030      1.181
REMARK  Name = 
REMARK  3 active torsions:
REMARK  status: ('A' for Active; 'I' for Inactive)
REMARK    1  A    between atoms: C_1  and  C_2
REMARK    2  A    between atoms: C_10  and  C_11
REMARK    3  A    between atoms: C_11  and  N_12
REMARK                            x       y       z     vdW  Elec       q    Type
REMARK                         _______ _______ _______ _____ _____    ______ ____
ROOT
ATOM      1  C   UNL     1      -0.624  11.047  22.346  0.00  0.00    +0.000 C 
ATOM      2  C   UNL     1       0.270   9.908  21.992  0.00  0.00    +0.000 C 
ATOM      3  O   UNL     1       0.648   9.115  22.849  0.00  0.00    +0.000 OA
ATOM      4  N   UNL     1       0.669   9.745  20.611  0.00  0.00    +0.000 N 
ATOM      5  C   UNL     1       0.273  10.698  19.550  0.00  0.00    +0.000 C 
ATOM      6  C   UNL     1       1.378  10.791  18.492  0.00  0.00    +0.000 C 
ATOM      7  C   UNL     1       1.706   9.417  17.896  0.00  0.00    +0.000 C 
ATOM      8  N   UNL     1       1.855   8.429  18.943  0.00  0.00    +0.000 N 
ATOM      9  N   UNL     1       2.428   7.235  18.734  0.00  0.00    +0.000 NA
ATOM     10  C   UNL     1       2.358   6.644  19.944  0.00  0.00    +0.000 A 
ATOM     11  C   UNL     1       1.751   7.489  20.907  0.00  0.00    +0.000 A 
ATOM     12  C   UNL     1       1.384   8.614  20.213  0.00  0.00    +0.000 A 
ENDROOT
BRANCH  10  13
ATOM     13  C   UNL     1       2.845   5.237  20.185  0.00  0.00    +0.000 C 
BRANCH  13  14
ATOM     14  N   UNL     1       3.527   4.582  19.070  0.00  0.00    +0.000 N 
ATOM     15  C   UNL     1       2.845   3.509  18.354  0.00  0.00    +0.000 C 
ATOM     16  C   UNL     1       3.072   3.687  16.857  0.00  0.00    +0.000 C 
ATOM     17  O   UNL     1       4.462   3.616  16.521  0.00  0.00    +0.000 OA
ATOM     18  C   UNL     1       5.271   4.310  17.397  0.00  0.00    +0.000 A 
ATOM     19  C   UNL     1       6.587   4.486  16.958  0.00  0.00    +0.000 A 
ATOM     20  C   UNL     1       7.502   5.162  17.757  0.00  0.00    +0.000 A 
ATOM     21  C   UNL     1       7.099   5.654  18.994  0.00  0.00    +0.000 A 
ATOM     22  C   UNL     1       5.781   5.475  19.434  0.00  0.00    +0.000 A 
ATOM     23  C   UNL     1       4.833   4.797  18.653  0.00  0.00    +0.000 A 
ENDBRANCH  13  14
ENDBRANCH  10  13
TORSDOF 2
ENDMDL
MODEL 4
REMARK VINA RESULT:      -7.4      1.375      2.480
REMARK  Name = 
REMARK  3 active torsions:
REMARK  status: ('A' for Active; 'I' for Inactive)
REMARK    1  A    between atoms: C_1  and  C_2
REMARK    2  A    between atoms: C_10  and  C_11
REMARK    3  A    between atoms: C_11  and  N_12
REMARK                            x       y       z     vdW  Elec       q    Type
REMARK                         _______ _______ _______ _____ _____    ______ ____
ROOT
ATOM      1  C   UNL     1      -1.939  12.108  23.174  0.00  0.00    +0.000 C 
ATOM      2  C   UNL     1      -0.898  11.147  22.710  0.00  0.00    +0.000 C 
ATOM      3  O   UNL     1      -0.285  10.448  23.511  0.00  0.00    +0.000 OA
ATOM      4  N   UNL     1      -0.638  11.042  21.290  0.00  0.00    +0.000 N 
ATOM      5  C   UNL     1      -1.322  11.892  20.290  0.00  0.00    +0.000 C 
ATOM      6  C   UNL     1      -0.382  12.172  19.112  0.00  0.00    +0.000 C 
ATOM      7  C   UNL     1       0.121  10.874  18.470  0.00  0.00    +0.000 C 
ATOM      8  N   UNL     1       0.570   9.944  19.485  0.00  0.00    +0.000 N 
ATOM      9  N   UNL     1       1.324   8.873  19.202  0.00  0.00    +0.000 NA
ATOM     10  C   UNL     1       1.504   8.295  20.406  0.00  0.00    +0.000 A 
ATOM     11  C   UNL     1       0.867   9.027  21.440  0.00  0.00    +0.000 A 
ATOM     12  C   UNL     1       0.222  10.056  20.803  0.00  0.00    +0.000 A 
ENDROOT
BRANCH  10  13
ATOM     13  C   UNL     1       2.266   7.005  20.578  0.00  0.00    +0.000 C 
BRANCH  13  14
ATOM     14  N   UNL     1       2.469   6.201  19.374  0.00  0.00    +0.000 N 
ATOM     15  C   UNL     1       3.068   6.825  18.198  0.00  0.00    +0.000 C 
ATOM     16  C   UNL     1       4.087   5.868  17.591  0.00  0.00    +0.000 C 
ATOM     17  O   UNL     1       3.475   4.643  17.168  0.00  0.00    +0.000 OA
ATOM     18  C   UNL     1       2.564   4.146  18.077  0.00  0.00    +0.000 A 
ATOM     19  C   UNL     1       2.151   2.834  17.827  0.00  0.00    +0.000 A 
ATOM     20  C   UNL     1       1.227   2.223  18.668  0.00  0.00    +0.000 A 
ATOM     21  C   UNL     1       0.716   2.930  19.751  0.00  0.00    +0.000 A 
ATOM     22  C   UNL     1       1.128   4.246  19.999  0.00  0.00    +0.000 A 
ATOM     23  C   UNL     1       2.058   4.891  19.170  0.00  0.00    +0.000 A 
ENDBRANCH  13  14
ENDBRANCH  10  13
TORSDOF 2
ENDMDL
MODEL 5
REMARK VINA RESULT:      -7.3      2.238      7.737
REMARK  Name = 
REMARK  3 active torsions:
REMARK  status: ('A' for Active; 'I' for Inactive)
REMARK    1  A    between atoms: C_1  and  C_2
REMARK    2  A    between atoms: C_10  and  C_11
REMARK    3  A    between atoms: C_11  and  N_12
REMARK                            x       y       z     vdW  Elec       q    Type
REMARK                         _______ _______ _______ _____ _____    ______ ____
ROOT
ATOM      1  C   UNL     1       5.074   4.053  16.468  0.00  0.00    +0.000 C 
ATOM      2  C   UNL     1       4.567   5.396  16.868  0.00  0.00    +0.000 C 
ATOM      3  O   UNL     1       4.897   6.403  16.250  0.00  0.00    +0.000 OA
ATOM      4  N   UNL     1       3.661   5.486  17.993  0.00  0.00    +0.000 N 
ATOM      5  C   UNL     1       3.267   4.306  18.795  0.00  0.00    +0.000 C 
ATOM      6  C   UNL     1       3.036   4.718  20.253  0.00  0.00    +0.000 C 
ATOM      7  C   UNL     1       1.984   5.828  20.365  0.00  0.00    +0.000 C 
ATOM      8  N   UNL     1       2.244   6.876  19.400  0.00  0.00    +0.000 N 
ATOM      9  N   UNL     1       1.673   8.087  19.476  0.00  0.00    +0.000 NA
ATOM     10  C   UNL     1       2.176   8.732  18.406  0.00  0.00    +0.000 A 
ATOM     11  C   UNL     1       3.075   7.916  17.674  0.00  0.00    +0.000 A 
ATOM     12  C   UNL     1       3.052   6.701  18.311  0.00  0.00    +0.000 A 
ENDROOT
BRANCH  10  13
ATOM     13  C   UNL     1       1.772  10.140  18.047  0.00  0.00    +0.000 C 
BRANCH  13  14
ATOM     14  N   UNL     1       0.666  10.716  18.810  0.00  0.00    +0.000 N 
ATOM     15  C   UNL     1       0.930  11.265  20.137  0.00  0.00    +0.000 C 
ATOM     16  C   UNL     1       0.179  12.581  20.290  0.00  0.00    +0.000 C 
ATOM     17  O   UNL     1      -1.237  12.399  20.171  0.00  0.00    +0.000 OA
ATOM     18  C   UNL     1      -1.594  11.553  19.141  0.00  0.00    +0.000 A 
ATOM     19  C   UNL     1      -2.956  11.561  18.827  0.00  0.00    +0.000 A 
ATOM     20  C   UNL     1      -3.441  10.744  17.813  0.00  0.00    +0.000 A 
ATOM     21  C   UNL     1      -2.562   9.918  17.120  0.00  0.00    +0.000 A 
ATOM     22  C   UNL     1      -1.198   9.908  17.437  0.00  0.00    +0.000 A 
ATOM     23  C   UNL     1      -0.676  10.720  18.456  0.00  0.00    +0.000 A 
ENDBRANCH  13  14
ENDBRANCH  10  13
TORSDOF 2
ENDMDL
MODEL 6
REMARK VINA RESULT:      -7.1      1.686      2.127
REMARK  Name = 
REMARK  3 active torsions:
REMARK  status: ('A' for Active; 'I' for Inactive)
REMARK    1  A    between atoms: C_1  and  C_2
REMARK    2  A    between atoms: C_10  and  C_11
REMARK    3  A    between atoms: C_11  and  N_12
REMARK                            x       y       z     vdW  Elec       q    Type
REMARK                         _______ _______ _______ _____ _____    ______ ____
ROOT
ATOM      1  C   UNL     1      -0.492  10.599  22.761  0.00  0.00    +0.000 C 
ATOM      2  C   UNL     1       0.300   9.714  21.860  0.00  0.00    +0.000 C 
ATOM      3  O   UNL     1       0.576   8.565  22.190  0.00  0.00    +0.000 OA
ATOM      4  N   UNL     1       0.723  10.235  20.578  0.00  0.00    +0.000 N 
ATOM      5  C   UNL     1       0.451  11.626  20.153  0.00  0.00    +0.000 C 
ATOM      6  C   UNL     1       1.592  12.133  19.264  0.00  0.00    +0.000 C 
ATOM      7  C   UNL     1       1.806  11.225  18.047  0.00  0.00    +0.000 C 
ATOM      8  N   UNL     1       1.830   9.834  18.448  0.00  0.00    +0.000 N 
ATOM      9  N   UNL     1       2.293   8.860  17.651  0.00  0.00    +0.000 NA
ATOM     10  C   UNL     1       2.132   7.749  18.397  0.00  0.00    +0.000 A 
ATOM     11  C   UNL     1       1.578   8.045  19.668  0.00  0.00    +0.000 A 
ATOM     12  C   UNL     1       1.341   9.396  19.647  0.00  0.00    +0.000 A 
ENDROOT
BRANCH  10  13
ATOM     13  C   UNL     1       2.476   6.374  17.883  0.00  0.00    +0.000 C 
BRANCH  13  14
ATOM     14  N   UNL     1       3.621   5.712  18.507  0.00  0.00    +0.000 N 
ATOM     15  C   UNL     1       3.391   4.794  19.618  0.00  0.00    +0.000 C 
ATOM     16  C   UNL     1       4.268   3.562  19.437  0.00  0.00    +0.000 C 
ATOM     17  O   UNL     1       5.660   3.899  19.434  0.00  0.00    +0.000 OA
ATOM     18  C   UNL     1       5.947   5.026  18.693  0.00  0.00    +0.000 A 
ATOM     19  C   UNL     1       7.309   5.230  18.449  0.00  0.00    +0.000 A 
ATOM     20  C   UNL     1       7.726   6.338  17.720  0.00  0.00    +0.000 A 
ATOM     21  C   UNL     1       6.781   7.240  17.244  0.00  0.00    +0.000 A 
ATOM     22  C   UNL     1       5.417   7.037  17.492  0.00  0.00    +0.000 A 
ATOM     23  C   UNL     1       4.962   5.930  18.224  0.00  0.00    +0.000 A 
ENDBRANCH  13  14
ENDBRANCH  10  13
TORSDOF 2
ENDMDL
MODEL 7
REMARK VINA RESULT:      -7.0      2.167      7.579
REMARK  Name = 
REMARK  3 active torsions:
REMARK  status: ('A' for Active; 'I' for Inactive)
REMARK    1  A    between atoms: C_1  and  C_2
REMARK    2  A    between atoms: C_10  and  C_11
REMARK    3  A    between atoms: C_11  and  N_12
REMARK                            x       y       z     vdW  Elec       q    Type
REMARK                         _______ _______ _______ _____ _____    ______ ____
ROOT
ATOM      1  C   UNL     1       6.211   4.798  15.647  0.00  0.00    +0.000 C 
ATOM      2  C   UNL     1       5.343   5.897  16.157  0.00  0.00    +0.000 C 
ATOM      3  O   UNL     1       5.238   6.953  15.542  0.00  0.00    +0.000 OA
ATOM      4  N   UNL     1       4.610   5.684  17.387  0.00  0.00    +0.000 N 
ATOM      5  C   UNL     1       4.736   4.445  18.186  0.00  0.00    +0.000 C 
ATOM      6  C   UNL     1       4.569   4.764  19.676  0.00  0.00    +0.000 C 
ATOM      7  C   UNL     1       3.232   5.459  19.957  0.00  0.00    +0.000 C 
ATOM      8  N   UNL     1       3.004   6.529  19.008  0.00  0.00    +0.000 N 
ATOM      9  N   UNL     1       2.078   7.480  19.199  0.00  0.00    +0.000 NA
ATOM     10  C   UNL     1       2.198   8.251  18.100  0.00  0.00    +0.000 A 
ATOM     11  C   UNL     1       3.215   7.777  17.234  0.00  0.00    +0.000 A 
ATOM     12  C   UNL     1       3.678   6.628  17.823  0.00  0.00    +0.000 A 
ENDROOT
BRANCH  10  13
ATOM     13  C   UNL     1       1.306   9.441  17.847  0.00  0.00    +0.000 C 
BRANCH  13  14
ATOM     14  N   UNL     1       1.060  10.326  18.984  0.00  0.00    +0.000 N 
ATOM     15  C   UNL     1       0.057   9.945  19.974  0.00  0.00    +0.000 C 
ATOM     16  C   UNL     1       0.600  10.232  21.369  0.00  0.00    +0.000 C 
ATOM     17  O   UNL     1       0.882  11.625  21.551  0.00  0.00    +0.000 OA
ATOM     18  C   UNL     1       1.514  12.200  20.467  0.00  0.00    +0.000 A 
ATOM     19  C   UNL     1       2.039  13.473  20.708  0.00  0.00    +0.000 A 
ATOM     20  C   UNL     1       2.691  14.161  19.691  0.00  0.00    +0.000 A 
ATOM     21  C   UNL     1       2.809  13.574  18.435  0.00  0.00    +0.000 A 
ATOM     22  C   UNL     1       2.280  12.300  18.193  0.00  0.00    +0.000 A 
ATOM     23  C   UNL     1       1.616  11.579  19.197  0.00  0.00    +0.000 A 
ENDBRANCH  13  14
ENDBRANCH  10  13
TORSDOF 2
ENDMDL
MODEL 8
REMARK VINA RESULT:      -6.9      2.089      7.639
REMARK  Name = 
REMARK  3 active torsions:
REMARK  status: ('A' for Active; 'I' for Inactive)
REMARK    1  A    between atoms: C_1  and  C_2
REMARK    2  A    between atoms: C_10  and  C_11
REMARK    3  A    between atoms: C_11  and  N_12
REMARK                            x       y       z     vdW  Elec       q    Type
REMARK                         _______ _______ _______ _____ _____    ______ ____
ROOT
ATOM      1  C   UNL     1       6.649   5.064  15.219  0.00  0.00    +0.000 C 
ATOM      2  C   UNL     1       5.658   6.001  15.820  0.00  0.00    +0.000 C 
ATOM      3  O   UNL     1       5.327   7.027  15.233  0.00  0.00    +0.000 OA
ATOM      4  N   UNL     1       5.080   5.666  17.103  0.00  0.00    +0.000 N 
ATOM      5  C   UNL     1       5.478   4.462  17.867  0.00  0.00    +0.000 C 
ATOM      6  C   UNL     1       5.390   4.745  19.371  0.00  0.00    +0.000 C 
ATOM      7  C   UNL     1       3.986   5.206  19.777  0.00  0.00    +0.000 C 
ATOM      8  N   UNL     1       3.502   6.226  18.869  0.00  0.00    +0.000 N 
ATOM      9  N   UNL     1       2.452   7.009  19.154  0.00  0.00    +0.000 NA
ATOM     10  C   UNL     1       2.346   7.792  18.063  0.00  0.00    +0.000 A 
ATOM     11  C   UNL     1       3.349   7.497  17.105  0.00  0.00    +0.000 A 
ATOM     12  C   UNL     1       4.046   6.440  17.633  0.00  0.00    +0.000 A 
ENDROOT
BRANCH  10  13
ATOM     13  C   UNL     1       1.251   8.817  17.907  0.00  0.00    +0.000 C 
BRANCH  13  14
ATOM     14  N   UNL     1       1.297   9.964  18.813  0.00  0.00    +0.000 N 
ATOM     15  C   UNL     1       2.131  11.110  18.464  0.00  0.00    +0.000 C 
ATOM     16  C   UNL     1       1.365  12.393  18.763  0.00  0.00    +0.000 C 
ATOM     17  O   UNL     1       1.038  12.502  20.153  0.00  0.00    +0.000 OA
ATOM     18  C   UNL     1       0.584  11.320  20.701  0.00  0.00    +0.000 A 
ATOM     19  C   UNL     1       0.009  11.450  21.969  0.00  0.00    +0.000 A 
ATOM     20  C   UNL     1      -0.479  10.329  22.630  0.00  0.00    +0.000 A 
ATOM     21  C   UNL     1      -0.384   9.081  22.024  0.00  0.00    +0.000 A 
ATOM     22  C   UNL     1       0.195   8.951  20.754  0.00  0.00    +0.000 A 
ATOM     23  C   UNL     1       0.697  10.062  20.060  0.00  0.00    +0.000 A 
ENDBRANCH  13  14
ENDBRANCH  10  13
TORSDOF 2
ENDMDL
MODEL 9
REMARK VINA RESULT:      -6.8      1.819      2.538
REMARK  Name = 
REMARK  3 active torsions:
REMARK  status: ('A' for Active; 'I' for Inactive)
REMARK    1  A    between atoms: C_1  and  C_2
REMARK    2  A    between atoms: C_10  and  C_11
REMARK    3  A    between atoms: C_11  and  N_12
REMARK                            x       y       z     vdW  Elec       q    Type
REMARK                         _______ _______ _______ _____ _____    ______ ____
ROOT
ATOM      1  C   UNL     1      -2.013  12.575  20.036  0.00  0.00    +0.000 C 
ATOM      2  C   UNL     1      -1.162  11.485  19.479  0.00  0.00    +0.000 C 
ATOM      3  O   UNL     1      -1.075  11.311  18.267  0.00  0.00    +0.000 OA
ATOM      4  N   UNL     1      -0.424  10.646  20.399  0.00  0.00    +0.000 N 
ATOM      5  C   UNL     1      -0.528  10.790  21.868  0.00  0.00    +0.000 C 
ATOM      6  C   UNL     1      -0.364   9.423  22.540  0.00  0.00    +0.000 C 
ATOM      7  C   UNL     1       0.962   8.758  22.151  0.00  0.00    +0.000 C 
ATOM      8  N   UNL     1       1.171   8.836  20.720  0.00  0.00    +0.000 N 
ATOM      9  N   UNL     1       2.081   8.088  20.081  0.00  0.00    +0.000 NA
ATOM     10  C   UNL     1       1.947   8.472  18.796  0.00  0.00    +0.000 A 
ATOM     11  C   UNL     1       0.936   9.454  18.643  0.00  0.00    +0.000 A 
ATOM     12  C   UNL     1       0.494   9.710  19.916  0.00  0.00    +0.000 A 
ENDROOT
BRANCH  10  13
ATOM     13  C   UNL     1       2.818   7.924  17.693  0.00  0.00    +0.000 C 
BRANCH  13  14
ATOM     14  N   UNL     1       3.135   6.498  17.760  0.00  0.00    +0.000 N 
ATOM     15  C   UNL     1       2.213   5.598  18.444  0.00  0.00    +0.000 C 
ATOM     16  C   UNL     1       2.053   4.327  17.619  0.00  0.00    +0.000 C 
ATOM     17  O   UNL     1       3.298   3.636  17.466  0.00  0.00    +0.000 OA
ATOM     18  C   UNL     1       4.357   4.475  17.185  0.00  0.00    +0.000 A 
ATOM     19  C   UNL     1       5.521   3.823  16.769  0.00  0.00    +0.000 A 
ATOM     20  C   UNL     1       6.661   4.559  16.464  0.00  0.00    +0.000 A 
ATOM     21  C   UNL     1       6.632   5.945  16.584  0.00  0.00    +0.000 A 
ATOM     22  C   UNL     1       5.465   6.598  17.003  0.00  0.00    +0.000 A 
ATOM     23  C   UNL     1       4.299   5.885  17.319  0.00  0.00    +0.000 A 
ENDBRANCH  13  14
ENDBRANCH  10  13
TORSDOF 2
ENDMDL
