MODEL 1
REMARK VINA RESULT:      -6.4      0.000      0.000
REMARK  Name = 
REMARK  15 active torsions:
REMARK  status: ('A' for Active; 'I' for Inactive)
REMARK    1  A    between atoms: C_1  and  S_2
REMARK    2  A    between atoms: S_2  and  C_3
REMARK    3  A    between atoms: C_3  and  C_4
REMARK    4  A    between atoms: C_4  and  C_5
REMARK    5  A    between atoms: C_5  and  N_6
REMARK    6  A    between atoms: C_5  and  C_11
REMARK    7  A    between atoms: C_7  and  C_9
REMARK    8  A    between atoms: C_9  and  S_10
REMARK    9  A    between atoms: N_13  and  C_14
REMARK   10  A    between atoms: C_14  and  C_15
REMARK   11  A    between atoms: C_14  and  C_20
REMARK   12  A    between atoms: C_15  and  C_16
REMARK   13  A    between atoms: C_16  and  C_17
REMARK   14  A    between atoms: C_17  and  C_18
REMARK   15  A    between atoms: C_18  and  N_19
REMARK                            x       y       z     vdW  Elec       q    Type
REMARK                         _______ _______ _______ _____ _____    ______ ____
ROOT
ATOM      1  C   UNL     1       3.899   4.064  17.553  0.00  0.00    +0.000 C 
ATOM      2  O   UNL     1       4.121   2.878  17.771  0.00  0.00    +0.000 OA
ATOM      3  N   UNL     1       4.629   4.817  16.657  0.00  0.00    +0.000 N 
ATOM      4  H   UNL     1       4.229   5.698  16.337  0.00  0.00    +0.000 HD
ENDROOT
BRANCH   1   5
ATOM      5  C   UNL     1       2.752   4.832  18.235  0.00  0.00    +0.000 C 
BRANCH   5   6
ATOM      6  N   UNL     1       2.686   6.196  17.722  0.00  0.00    +0.000 N 
ATOM      7  C   UNL     1       2.483   7.260  18.576  0.00  0.00    +0.000 C 
ATOM      8  O   UNL     1       2.389   7.122  19.794  0.00  0.00    +0.000 OA
ATOM      9  H   UNL     1       3.111   6.395  16.820  0.00  0.00    +0.000 HD
BRANCH   7  10
ATOM     10  C   UNL     1       2.329   8.606  17.891  0.00  0.00    +0.000 C 
BRANCH  10  11
ATOM     11  S   UNL     1       1.142   9.641  18.787  0.00  0.00    +0.000 S 
ATOM     12  H   UNL     1       0.601   8.649  19.511  0.00  0.00    +0.000 HD
ENDBRANCH  10  11
ENDBRANCH   7  10
ENDBRANCH   5   6
BRANCH   5  13
ATOM     13  C   UNL     1       1.418   4.105  18.016  0.00  0.00    +0.000 C 
BRANCH  13  14
ATOM     14  C   UNL     1       1.059   3.132  19.146  0.00  0.00    +0.000 C 
BRANCH  14  16
ATOM     15  C   UNL     1       2.677   2.701  21.353  0.00  0.00    +0.000 C 
ATOM     16  S   UNL     1       1.415   3.860  20.784  0.00  0.00    +0.000 S 
ENDBRANCH  14  16
ENDBRANCH  13  14
ENDBRANCH   5  13
ENDBRANCH   1   5
BRANCH   3  17
ATOM     17  C   UNL     1       5.783   4.240  15.954  0.00  0.00    +0.000 C 
BRANCH  17  18
ATOM     18  C   UNL     1       7.081   4.969  16.372  0.00  0.00    +0.000 C 
ATOM     19  N   UNL     1       7.947   4.252  17.153  0.00  0.00    +0.000 N 
ATOM     20  O   UNL     1       7.275   6.170  16.200  0.00  0.00    +0.000 OA
ATOM     21  H   UNL     1       7.927   3.242  17.129  0.00  0.00    +0.000 HD
ATOM     22  H   UNL     1       8.808   4.718  17.413  0.00  0.00    +0.000 HD
ENDBRANCH  17  18
BRANCH  17  23
ATOM     23  C   UNL     1       5.582   4.351  14.436  0.00  0.00    +0.000 C 
BRANCH  23  24
ATOM     24  C   UNL     1       6.880   4.479  13.624  0.00  0.00    +0.000 C 
BRANCH  24  25
ATOM     25  C   UNL     1       6.867   3.788  12.256  0.00  0.00    +0.000 C 
BRANCH  25  26
ATOM     26  C   UNL     1       5.544   3.077  11.975  0.00  0.00    +0.000 C 
BRANCH  26  27
ATOM     27  N   UNL     1       5.774   1.692  11.591  0.00  0.00    +0.000 NA
ATOM     28  H   UNL     1       5.102   1.085  12.058  0.00  0.00    +0.000 HD
ATOM     29  H   UNL     1       6.698   1.400  11.907  0.00  0.00    +0.000 HD
ENDBRANCH  26  27
ENDBRANCH  25  26
ENDBRANCH  24  25
ENDBRANCH  23  24
ENDBRANCH  17  23
ENDBRANCH   3  17
TORSDOF 14
ENDMDL
MODEL 2
REMARK VINA RESULT:      -6.2      1.386      1.658
REMARK  Name = 
REMARK  15 active torsions:
REMARK  status: ('A' for Active; 'I' for Inactive)
REMARK    1  A    between atoms: C_1  and  S_2
REMARK    2  A    between atoms: S_2  and  C_3
REMARK    3  A    between atoms: C_3  and  C_4
REMARK    4  A    between atoms: C_4  and  C_5
REMARK    5  A    between atoms: C_5  and  N_6
REMARK    6  A    between atoms: C_5  and  C_11
REMARK    7  A    between atoms: C_7  and  C_9
REMARK    8  A    between atoms: C_9  and  S_10
REMARK    9  A    between atoms: N_13  and  C_14
REMARK   10  A    between atoms: C_14  and  C_15
REMARK   11  A    between atoms: C_14  and  C_20
REMARK   12  A    between atoms: C_15  and  C_16
REMARK   13  A    between atoms: C_16  and  C_17
REMARK   14  A    between atoms: C_17  and  C_18
REMARK   15  A    between atoms: C_18  and  N_19
REMARK                            x       y       z     vdW  Elec       q    Type
REMARK                         _______ _______ _______ _____ _____    ______ ____
ROOT
ATOM      1  C   UNL     1       4.640   5.414  18.717  0.00  0.00    +0.000 C 
ATOM      2  O   UNL     1       5.222   5.201  19.775  0.00  0.00    +0.000 OA
ATOM      3  N   UNL     1       5.274   5.411  17.492  0.00  0.00    +0.000 N 
ATOM      4  H   UNL     1       4.696   5.331  16.656  0.00  0.00    +0.000 HD
ENDROOT
BRANCH   1   5
ATOM      5  C   UNL     1       3.124   5.673  18.643  0.00  0.00    +0.000 C 
BRANCH   5   6
ATOM      6  N   UNL     1       2.864   6.959  18.004  0.00  0.00    +0.000 N 
ATOM      7  C   UNL     1       2.251   7.980  18.701  0.00  0.00    +0.000 C 
ATOM      8  O   UNL     1       1.934   7.874  19.884  0.00  0.00    +0.000 OA
ATOM      9  H   UNL     1       3.417   7.214  17.189  0.00  0.00    +0.000 HD
BRANCH   7  10
ATOM     10  C   UNL     1       1.950   9.220  17.880  0.00  0.00    +0.000 C 
BRANCH  10  11
ATOM     11  S   UNL     1       0.586  10.155  18.621  0.00  0.00    +0.000 S 
ATOM     12  H   UNL     1       0.918  11.342  18.088  0.00  0.00    +0.000 HD
ENDBRANCH  10  11
ENDBRANCH   7  10
ENDBRANCH   5   6
BRANCH   5  13
ATOM     13  C   UNL     1       2.425   4.539  17.879  0.00  0.00    +0.000 C 
BRANCH  13  14
ATOM     14  C   UNL     1       2.029   3.355  18.771  0.00  0.00    +0.000 C 
BRANCH  14  16
ATOM     15  C   UNL     1       2.158   3.246  21.536  0.00  0.00    +0.000 C 
ATOM     16  S   UNL     1       1.097   3.916  20.239  0.00  0.00    +0.000 S 
ENDBRANCH  14  16
ENDBRANCH  13  14
ENDBRANCH   5  13
ENDBRANCH   1   5
BRANCH   3  17
ATOM     17  C   UNL     1       6.728   5.218  17.397  0.00  0.00    +0.000 C 
BRANCH  17  18
ATOM     18  C   UNL     1       7.462   6.546  17.696  0.00  0.00    +0.000 C 
ATOM     19  N   UNL     1       8.071   6.633  18.920  0.00  0.00    +0.000 N 
ATOM     20  O   UNL     1       7.369   7.550  16.996  0.00  0.00    +0.000 OA
ATOM     21  H   UNL     1       8.345   5.790  19.406  0.00  0.00    +0.000 HD
ATOM     22  H   UNL     1       8.570   7.492  19.112  0.00  0.00    +0.000 HD
ENDBRANCH  17  18
BRANCH  17  23
ATOM     23  C   UNL     1       7.100   4.715  15.996  0.00  0.00    +0.000 C 
BRANCH  23  24
ATOM     24  C   UNL     1       6.092   3.733  15.378  0.00  0.00    +0.000 C 
BRANCH  24  25
ATOM     25  C   UNL     1       5.543   4.136  14.005  0.00  0.00    +0.000 C 
BRANCH  25  26
ATOM     26  C   UNL     1       6.492   3.768  12.866  0.00  0.00    +0.000 C 
BRANCH  26  27
ATOM     27  N   UNL     1       5.979   2.632  12.114  0.00  0.00    +0.000 NA
ATOM     28  H   UNL     1       6.586   1.824  12.246  0.00  0.00    +0.000 HD
ATOM     29  H   UNL     1       5.995   2.848  11.118  0.00  0.00    +0.000 HD
ENDBRANCH  26  27
ENDBRANCH  25  26
ENDBRANCH  24  25
ENDBRANCH  23  24
ENDBRANCH  17  23
ENDBRANCH   3  17
TORSDOF 14
ENDMDL
MODEL 3
REMARK VINA RESULT:      -6.2      1.576      3.411
REMARK  Name = 
REMARK  15 active torsions:
REMARK  status: ('A' for Active; 'I' for Inactive)
REMARK    1  A    between atoms: C_1  and  S_2
REMARK    2  A    between atoms: S_2  and  C_3
REMARK    3  A    between atoms: C_3  and  C_4
REMARK    4  A    between atoms: C_4  and  C_5
REMARK    5  A    between atoms: C_5  and  N_6
REMARK    6  A    between atoms: C_5  and  C_11
REMARK    7  A    between atoms: C_7  and  C_9
REMARK    8  A    between atoms: C_9  and  S_10
REMARK    9  A    between atoms: N_13  and  C_14
REMARK   10  A    between atoms: C_14  and  C_15
REMARK   11  A    between atoms: C_14  and  C_20
REMARK   12  A    between atoms: C_15  and  C_16
REMARK   13  A    between atoms: C_16  and  C_17
REMARK   14  A    between atoms: C_17  and  C_18
REMARK   15  A    between atoms: C_18  and  N_19
REMARK                            x       y       z     vdW  Elec       q    Type
REMARK                         _______ _______ _______ _____ _____    ______ ____
ROOT
ATOM      1  C   UNL     1       4.233   4.515  17.647  0.00  0.00    +0.000 C 
ATOM      2  O   UNL     1       4.732   3.571  18.249  0.00  0.00    +0.000 OA
ATOM      3  N   UNL     1       4.692   4.959  16.424  0.00  0.00    +0.000 N 
ATOM      4  H   UNL     1       4.078   5.557  15.873  0.00  0.00    +0.000 HD
ENDROOT
BRANCH   1   5
ATOM      5  C   UNL     1       3.011   5.284  18.179  0.00  0.00    +0.000 C 
BRANCH   5   6
ATOM      6  N   UNL     1       2.371   4.532  19.253  0.00  0.00    +0.000 N 
ATOM      7  C   UNL     1       1.388   3.605  18.976  0.00  0.00    +0.000 C 
ATOM      8  O   UNL     1       1.034   3.341  17.829  0.00  0.00    +0.000 OA
ATOM      9  H   UNL     1       2.864   4.441  20.139  0.00  0.00    +0.000 HD
BRANCH   7  10
ATOM     10  C   UNL     1       0.741   2.979  20.197  0.00  0.00    +0.000 C 
BRANCH  10  11
ATOM     11  S   UNL     1       1.933   2.859  21.556  0.00  0.00    +0.000 S 
ATOM     12  H   UNL     1       1.840   1.529  21.715  0.00  0.00    +0.000 HD
ENDBRANCH  10  11
ENDBRANCH   7  10
ENDBRANCH   5   6
BRANCH   5  13
ATOM     13  C   UNL     1       3.428   6.678  18.668  0.00  0.00    +0.000 C 
BRANCH  13  14
ATOM     14  C   UNL     1       3.070   7.803  17.688  0.00  0.00    +0.000 C 
BRANCH  14  16
ATOM     15  C   UNL     1       1.666   8.213  20.040  0.00  0.00    +0.000 C 
ATOM     16  S   UNL     1       1.748   8.870  18.361  0.00  0.00    +0.000 S 
ENDBRANCH  14  16
ENDBRANCH  13  14
ENDBRANCH   5  13
ENDBRANCH   1   5
BRANCH   3  17
ATOM     17  C   UNL     1       5.877   4.354  15.800  0.00  0.00    +0.000 C 
BRANCH  17  18
ATOM     18  C   UNL     1       7.165   4.923  16.440  0.00  0.00    +0.000 C 
ATOM     19  N   UNL     1       7.393   6.259  16.245  0.00  0.00    +0.000 N 
ATOM     20  O   UNL     1       8.047   4.225  16.932  0.00  0.00    +0.000 OA
ATOM     21  H   UNL     1       6.618   6.877  16.047  0.00  0.00    +0.000 HD
ATOM     22  H   UNL     1       8.224   6.640  16.679  0.00  0.00    +0.000 HD
ENDBRANCH  17  18
BRANCH  17  23
ATOM     23  C   UNL     1       5.873   4.629  14.290  0.00  0.00    +0.000 C 
BRANCH  23  24
ATOM     24  C   UNL     1       6.274   3.429  13.418  0.00  0.00    +0.000 C 
BRANCH  24  25
ATOM     25  C   UNL     1       5.558   3.334  12.066  0.00  0.00    +0.000 C 
BRANCH  25  26
ATOM     26  C   UNL     1       5.686   1.948  11.436  0.00  0.00    +0.000 C 
BRANCH  26  27
ATOM     27  N   UNL     1       7.084   1.556  11.331  0.00  0.00    +0.000 NA
ATOM     28  H   UNL     1       7.377   1.079  12.182  0.00  0.00    +0.000 HD
ATOM     29  H   UNL     1       7.666   2.388  11.248  0.00  0.00    +0.000 HD
ENDBRANCH  26  27
ENDBRANCH  25  26
ENDBRANCH  24  25
ENDBRANCH  23  24
ENDBRANCH  17  23
ENDBRANCH   3  17
TORSDOF 14
ENDMDL
MODEL 4
REMARK VINA RESULT:      -6.1      1.602      1.901
REMARK  Name = 
REMARK  15 active torsions:
REMARK  status: ('A' for Active; 'I' for Inactive)
REMARK    1  A    between atoms: C_1  and  S_2
REMARK    2  A    between atoms: S_2  and  C_3
REMARK    3  A    between atoms: C_3  and  C_4
REMARK    4  A    between atoms: C_4  and  C_5
REMARK    5  A    between atoms: C_5  and  N_6
REMARK    6  A    between atoms: C_5  and  C_11
REMARK    7  A    between atoms: C_7  and  C_9
REMARK    8  A    between atoms: C_9  and  S_10
REMARK    9  A    between atoms: N_13  and  C_14
REMARK   10  A    between atoms: C_14  and  C_15
REMARK   11  A    between atoms: C_14  and  C_20
REMARK   12  A    between atoms: C_15  and  C_16
REMARK   13  A    between atoms: C_16  and  C_17
REMARK   14  A    between atoms: C_17  and  C_18
REMARK   15  A    between atoms: C_18  and  N_19
REMARK                            x       y       z     vdW  Elec       q    Type
REMARK                         _______ _______ _______ _____ _____    ______ ____
ROOT
ATOM      1  C   UNL     1       4.852   4.205  18.989  0.00  0.00    +0.000 C 
ATOM      2  O   UNL     1       5.433   3.427  19.738  0.00  0.00    +0.000 OA
ATOM      3  N   UNL     1       5.486   4.889  17.972  0.00  0.00    +0.000 N 
ATOM      4  H   UNL     1       4.906   5.300  17.241  0.00  0.00    +0.000 HD
ENDROOT
BRANCH   1   5
ATOM      5  C   UNL     1       3.340   4.474  19.084  0.00  0.00    +0.000 C 
BRANCH   5   6
ATOM      6  N   UNL     1       3.071   5.898  18.915  0.00  0.00    +0.000 N 
ATOM      7  C   UNL     1       2.303   6.583  19.834  0.00  0.00    +0.000 C 
ATOM      8  O   UNL     1       1.847   6.050  20.843  0.00  0.00    +0.000 OA
ATOM      9  H   UNL     1       3.702   6.443  18.333  0.00  0.00    +0.000 HD
BRANCH   7  10
ATOM     10  C   UNL     1       2.019   8.030  19.473  0.00  0.00    +0.000 C 
BRANCH  10  11
ATOM     11  S   UNL     1       2.504   8.363  17.759  0.00  0.00    +0.000 S 
ATOM     12  H   UNL     1       3.435   9.286  18.049  0.00  0.00    +0.000 HD
ENDBRANCH  10  11
ENDBRANCH   7  10
ENDBRANCH   5   6
BRANCH   5  13
ATOM     13  C   UNL     1       2.584   3.651  18.032  0.00  0.00    +0.000 C 
BRANCH  13  14
ATOM     14  C   UNL     1       1.786   2.483  18.626  0.00  0.00    +0.000 C 
BRANCH  14  16
ATOM     15  C   UNL     1       1.784   2.481  21.396  0.00  0.00    +0.000 C 
ATOM     16  S   UNL     1       0.748   3.036  20.026  0.00  0.00    +0.000 S 
ENDBRANCH  14  16
ENDBRANCH  13  14
ENDBRANCH   5  13
ENDBRANCH   1   5
BRANCH   3  17
ATOM     17  C   UNL     1       6.937   4.771  17.775  0.00  0.00    +0.000 C 
BRANCH  17  18
ATOM     18  C   UNL     1       7.675   5.862  18.585  0.00  0.00    +0.000 C 
ATOM     19  N   UNL     1       8.071   5.507  19.848  0.00  0.00    +0.000 N 
ATOM     20  O   UNL     1       7.753   7.036  18.235  0.00  0.00    +0.000 OA
ATOM     21  H   UNL     1       8.215   4.533  20.074  0.00  0.00    +0.000 HD
ATOM     22  H   UNL     1       8.573   6.212  20.374  0.00  0.00    +0.000 HD
ENDBRANCH  17  18
BRANCH  17  23
ATOM     23  C   UNL     1       7.276   4.902  16.284  0.00  0.00    +0.000 C 
BRANCH  23  24
ATOM     24  C   UNL     1       6.082   5.248  15.381  0.00  0.00    +0.000 C 
BRANCH  24  25
ATOM     25  C   UNL     1       5.639   4.135  14.426  0.00  0.00    +0.000 C 
BRANCH  25  26
ATOM     26  C   UNL     1       6.582   3.981  13.234  0.00  0.00    +0.000 C 
BRANCH  26  27
ATOM     27  N   UNL     1       6.159   2.881  12.379  0.00  0.00    +0.000 NA
ATOM     28  H   UNL     1       5.210   3.045  12.045  0.00  0.00    +0.000 HD
ATOM     29  H   UNL     1       6.131   2.020  12.922  0.00  0.00    +0.000 HD
ENDBRANCH  26  27
ENDBRANCH  25  26
ENDBRANCH  24  25
ENDBRANCH  23  24
ENDBRANCH  17  23
ENDBRANCH   3  17
TORSDOF 14
ENDMDL
MODEL 5
REMARK VINA RESULT:      -6.0      1.532      3.749
REMARK  Name = 
REMARK  15 active torsions:
REMARK  status: ('A' for Active; 'I' for Inactive)
REMARK    1  A    between atoms: C_1  and  S_2
REMARK    2  A    between atoms: S_2  and  C_3
REMARK    3  A    between atoms: C_3  and  C_4
REMARK    4  A    between atoms: C_4  and  C_5
REMARK    5  A    between atoms: C_5  and  N_6
REMARK    6  A    between atoms: C_5  and  C_11
REMARK    7  A    between atoms: C_7  and  C_9
REMARK    8  A    between atoms: C_9  and  S_10
REMARK    9  A    between atoms: N_13  and  C_14
REMARK   10  A    between atoms: C_14  and  C_15
REMARK   11  A    between atoms: C_14  and  C_20
REMARK   12  A    between atoms: C_15  and  C_16
REMARK   13  A    between atoms: C_16  and  C_17
REMARK   14  A    between atoms: C_17  and  C_18
REMARK   15  A    between atoms: C_18  and  N_19
REMARK                            x       y       z     vdW  Elec       q    Type
REMARK                         _______ _______ _______ _____ _____    ______ ____
ROOT
ATOM      1  C   UNL     1       4.419   5.664  18.466  0.00  0.00    +0.000 C 
ATOM      2  O   UNL     1       4.845   5.481  19.601  0.00  0.00    +0.000 OA
ATOM      3  N   UNL     1       5.213   5.585  17.340  0.00  0.00    +0.000 N 
ATOM      4  H   UNL     1       4.751   5.485  16.437  0.00  0.00    +0.000 HD
ENDROOT
BRANCH   1   5
ATOM      5  C   UNL     1       2.939   5.966  18.174  0.00  0.00    +0.000 C 
BRANCH   5   6
ATOM      6  N   UNL     1       2.093   4.904  18.709  0.00  0.00    +0.000 N 
ATOM      7  C   UNL     1       2.009   3.683  18.073  0.00  0.00    +0.000 C 
ATOM      8  O   UNL     1       2.660   3.418  17.064  0.00  0.00    +0.000 OA
ATOM      9  H   UNL     1       1.842   4.937  19.694  0.00  0.00    +0.000 HD
BRANCH   7  10
ATOM     10  C   UNL     1       1.012   2.715  18.683  0.00  0.00    +0.000 C 
BRANCH  10  11
ATOM     11  S   UNL     1       1.178   2.686  20.487  0.00  0.00    +0.000 S 
ATOM     12  H   UNL     1       1.335   4.010  20.640  0.00  0.00    +0.000 HD
ENDBRANCH  10  11
ENDBRANCH   7  10
ENDBRANCH   5   6
BRANCH   5  13
ATOM     13  C   UNL     1       2.544   7.325  18.770  0.00  0.00    +0.000 C 
BRANCH  13  14
ATOM     14  C   UNL     1       2.431   8.442  17.724  0.00  0.00    +0.000 C 
BRANCH  14  16
ATOM     15  C   UNL     1       1.013   9.268  19.955  0.00  0.00    +0.000 C 
ATOM     16  S   UNL     1       1.165   9.670  18.201  0.00  0.00    +0.000 S 
ENDBRANCH  14  16
ENDBRANCH  13  14
ENDBRANCH   5  13
ENDBRANCH   1   5
BRANCH   3  17
ATOM     17  C   UNL     1       6.658   5.342  17.453  0.00  0.00    +0.000 C 
BRANCH  17  18
ATOM     18  C   UNL     1       7.408   6.678  17.663  0.00  0.00    +0.000 C 
ATOM     19  N   UNL     1       8.159   6.772  18.805  0.00  0.00    +0.000 N 
ATOM     20  O   UNL     1       7.220   7.681  16.979  0.00  0.00    +0.000 OA
ATOM     21  H   UNL     1       8.498   5.933  19.253  0.00  0.00    +0.000 HD
ATOM     22  H   UNL     1       8.667   7.638  18.936  0.00  0.00    +0.000 HD
ENDBRANCH  17  18
BRANCH  17  23
ATOM     23  C   UNL     1       7.173   4.642  16.188  0.00  0.00    +0.000 C 
BRANCH  23  24
ATOM     24  C   UNL     1       6.087   4.303  15.154  0.00  0.00    +0.000 C 
BRANCH  24  25
ATOM     25  C   UNL     1       6.576   4.183  13.707  0.00  0.00    +0.000 C 
BRANCH  25  26
ATOM     26  C   UNL     1       5.562   3.479  12.806  0.00  0.00    +0.000 C 
BRANCH  26  27
ATOM     27  N   UNL     1       6.216   2.473  11.981  0.00  0.00    +0.000 NA
ATOM     28  H   UNL     1       5.942   2.590  11.007  0.00  0.00    +0.000 HD
ATOM     29  H   UNL     1       5.901   1.546  12.262  0.00  0.00    +0.000 HD
ENDBRANCH  26  27
ENDBRANCH  25  26
ENDBRANCH  24  25
ENDBRANCH  23  24
ENDBRANCH  17  23
ENDBRANCH   3  17
TORSDOF 14
ENDMDL
MODEL 6
REMARK VINA RESULT:      -5.9      1.777      3.915
REMARK  Name = 
REMARK  15 active torsions:
REMARK  status: ('A' for Active; 'I' for Inactive)
REMARK    1  A    between atoms: C_1  and  S_2
REMARK    2  A    between atoms: S_2  and  C_3
REMARK    3  A    between atoms: C_3  and  C_4
REMARK    4  A    between atoms: C_4  and  C_5
REMARK    5  A    between atoms: C_5  and  N_6
REMARK    6  A    between atoms: C_5  and  C_11
REMARK    7  A    between atoms: C_7  and  C_9
REMARK    8  A    between atoms: C_9  and  S_10
REMARK    9  A    between atoms: N_13  and  C_14
REMARK   10  A    between atoms: C_14  and  C_15
REMARK   11  A    between atoms: C_14  and  C_20
REMARK   12  A    between atoms: C_15  and  C_16
REMARK   13  A    between atoms: C_16  and  C_17
REMARK   14  A    between atoms: C_17  and  C_18
REMARK   15  A    between atoms: C_18  and  N_19
REMARK                            x       y       z     vdW  Elec       q    Type
REMARK                         _______ _______ _______ _____ _____    ______ ____
ROOT
ATOM      1  C   UNL     1       4.680   5.463  18.653  0.00  0.00    +0.000 C 
ATOM      2  O   UNL     1       5.206   5.357  19.755  0.00  0.00    +0.000 OA
ATOM      3  N   UNL     1       5.387   5.411  17.470  0.00  0.00    +0.000 N 
ATOM      4  H   UNL     1       4.867   5.241  16.610  0.00  0.00    +0.000 HD
ENDROOT
BRANCH   1   5
ATOM      5  C   UNL     1       3.161   5.631  18.473  0.00  0.00    +0.000 C 
BRANCH   5   6
ATOM      6  N   UNL     1       2.451   4.555  19.157  0.00  0.00    +0.000 N 
ATOM      7  C   UNL     1       1.469   3.835  18.508  0.00  0.00    +0.000 C 
ATOM      8  O   UNL     1       1.174   4.033  17.331  0.00  0.00    +0.000 OA
ATOM      9  H   UNL     1       2.892   4.122  19.964  0.00  0.00    +0.000 HD
BRANCH   7  10
ATOM     10  C   UNL     1       0.746   2.821  19.374  0.00  0.00    +0.000 C 
BRANCH  10  11
ATOM     11  S   UNL     1       1.409   2.839  21.060  0.00  0.00    +0.000 S 
ATOM     12  H   UNL     1       0.410   3.553  21.602  0.00  0.00    +0.000 HD
ENDBRANCH  10  11
ENDBRANCH   7  10
ENDBRANCH   5   6
BRANCH   5  13
ATOM     13  C   UNL     1       2.707   6.999  19.002  0.00  0.00    +0.000 C 
BRANCH  13  14
ATOM     14  C   UNL     1       2.603   8.073  17.910  0.00  0.00    +0.000 C 
BRANCH  14  16
ATOM     15  C   UNL     1       2.270  10.821  18.007  0.00  0.00    +0.000 C 
ATOM     16  S   UNL     1       1.328   9.314  18.324  0.00  0.00    +0.000 S 
ENDBRANCH  14  16
ENDBRANCH  13  14
ENDBRANCH   5  13
ENDBRANCH   1   5
BRANCH   3  17
ATOM     17  C   UNL     1       6.852   5.294  17.473  0.00  0.00    +0.000 C 
BRANCH  17  18
ATOM     18  C   UNL     1       7.495   6.654  17.831  0.00  0.00    +0.000 C 
ATOM     19  N   UNL     1       7.424   7.623  16.866  0.00  0.00    +0.000 N 
ATOM     20  O   UNL     1       8.197   6.837  18.821  0.00  0.00    +0.000 OA
ATOM     21  H   UNL     1       6.697   7.583  16.165  0.00  0.00    +0.000 HD
ATOM     22  H   UNL     1       7.826   8.522  17.103  0.00  0.00    +0.000 HD
ENDBRANCH  17  18
BRANCH  17  23
ATOM     23  C   UNL     1       7.344   4.824  16.097  0.00  0.00    +0.000 C 
BRANCH  23  24
ATOM     24  C   UNL     1       6.249   4.242  15.188  0.00  0.00    +0.000 C 
BRANCH  24  25
ATOM     25  C   UNL     1       6.565   4.261  13.689  0.00  0.00    +0.000 C 
BRANCH  25  26
ATOM     26  C   UNL     1       5.564   3.446  12.872  0.00  0.00    +0.000 C 
BRANCH  26  27
ATOM     27  N   UNL     1       6.253   2.516  11.989  0.00  0.00    +0.000 NA
ATOM     28  H   UNL     1       6.285   1.591  12.414  0.00  0.00    +0.000 HD
ATOM     29  H   UNL     1       7.220   2.814  11.869  0.00  0.00    +0.000 HD
ENDBRANCH  26  27
ENDBRANCH  25  26
ENDBRANCH  24  25
ENDBRANCH  23  24
ENDBRANCH  17  23
ENDBRANCH   3  17
TORSDOF 14
ENDMDL
MODEL 7
REMARK VINA RESULT:      -5.9      1.953      3.767
REMARK  Name = 
REMARK  15 active torsions:
REMARK  status: ('A' for Active; 'I' for Inactive)
REMARK    1  A    between atoms: C_1  and  S_2
REMARK    2  A    between atoms: S_2  and  C_3
REMARK    3  A    between atoms: C_3  and  C_4
REMARK    4  A    between atoms: C_4  and  C_5
REMARK    5  A    between atoms: C_5  and  N_6
REMARK    6  A    between atoms: C_5  and  C_11
REMARK    7  A    between atoms: C_7  and  C_9
REMARK    8  A    between atoms: C_9  and  S_10
REMARK    9  A    between atoms: N_13  and  C_14
REMARK   10  A    between atoms: C_14  and  C_15
REMARK   11  A    between atoms: C_14  and  C_20
REMARK   12  A    between atoms: C_15  and  C_16
REMARK   13  A    between atoms: C_16  and  C_17
REMARK   14  A    between atoms: C_17  and  C_18
REMARK   15  A    between atoms: C_18  and  N_19
REMARK                            x       y       z     vdW  Elec       q    Type
REMARK                         _______ _______ _______ _____ _____    ______ ____
ROOT
ATOM      1  C   UNL     1       4.056   4.309  17.404  0.00  0.00    +0.000 C 
ATOM      2  O   UNL     1       4.317   3.139  17.661  0.00  0.00    +0.000 OA
ATOM      3  N   UNL     1       4.718   5.035  16.436  0.00  0.00    +0.000 N 
ATOM      4  H   UNL     1       4.280   5.892  16.100  0.00  0.00    +0.000 HD
ENDROOT
BRANCH   1   5
ATOM      5  C   UNL     1       2.931   5.083  18.114  0.00  0.00    +0.000 C 
BRANCH   5   6
ATOM      6  N   UNL     1       2.435   4.317  19.253  0.00  0.00    +0.000 N 
ATOM      7  C   UNL     1       1.326   3.507  19.127  0.00  0.00    +0.000 C 
ATOM      8  O   UNL     1       0.732   3.361  18.061  0.00  0.00    +0.000 OA
ATOM      9  H   UNL     1       3.076   4.118  20.018  0.00  0.00    +0.000 HD
BRANCH   7  10
ATOM     10  C   UNL     1       0.863   2.857  20.418  0.00  0.00    +0.000 C 
BRANCH  10  11
ATOM     11  S   UNL     1       2.080   3.123  21.734  0.00  0.00    +0.000 S 
ATOM     12  H   UNL     1       1.515   2.291  22.624  0.00  0.00    +0.000 HD
ENDBRANCH  10  11
ENDBRANCH   7  10
ENDBRANCH   5   6
BRANCH   5  13
ATOM     13  C   UNL     1       3.434   6.461  18.567  0.00  0.00    +0.000 C 
BRANCH  13  14
ATOM     14  C   UNL     1       2.309   7.413  18.992  0.00  0.00    +0.000 C 
BRANCH  14  16
ATOM     15  C   UNL     1       0.791   9.700  18.615  0.00  0.00    +0.000 C 
ATOM     16  S   UNL     1       2.173   8.830  17.845  0.00  0.00    +0.000 S 
ENDBRANCH  14  16
ENDBRANCH  13  14
ENDBRANCH   5  13
ENDBRANCH   1   5
BRANCH   3  17
ATOM     17  C   UNL     1       5.844   4.451  15.694  0.00  0.00    +0.000 C 
BRANCH  17  18
ATOM     18  C   UNL     1       7.185   4.934  16.294  0.00  0.00    +0.000 C 
ATOM     19  N   UNL     1       7.515   6.241  16.051  0.00  0.00    +0.000 N 
ATOM     20  O   UNL     1       8.018   4.185  16.796  0.00  0.00    +0.000 OA
ATOM     21  H   UNL     1       6.788   6.913  15.845  0.00  0.00    +0.000 HD
ATOM     22  H   UNL     1       8.382   6.568  16.459  0.00  0.00    +0.000 HD
ENDBRANCH  17  18
BRANCH  17  23
ATOM     23  C   UNL     1       5.758   4.843  14.213  0.00  0.00    +0.000 C 
BRANCH  23  24
ATOM     24  C   UNL     1       6.170   3.736  13.231  0.00  0.00    +0.000 C 
BRANCH  24  25
ATOM     25  C   UNL     1       7.446   4.014  12.429  0.00  0.00    +0.000 C 
BRANCH  25  26
ATOM     26  C   UNL     1       7.745   5.507  12.309  0.00  0.00    +0.000 C 
BRANCH  26  27
ATOM     27  N   UNL     1       8.869   5.879  13.157  0.00  0.00    +0.000 NA
ATOM     28  H   UNL     1       8.530   6.202  14.062  0.00  0.00    +0.000 HD
ATOM     29  H   UNL     1       9.368   6.661  12.737  0.00  0.00    +0.000 HD
ENDBRANCH  26  27
ENDBRANCH  25  26
ENDBRANCH  24  25
ENDBRANCH  23  24
ENDBRANCH  17  23
ENDBRANCH   3  17
TORSDOF 14
ENDMDL
MODEL 8
REMARK VINA RESULT:      -5.9      1.844      2.270
REMARK  Name = 
REMARK  15 active torsions:
REMARK  status: ('A' for Active; 'I' for Inactive)
REMARK    1  A    between atoms: C_1  and  S_2
REMARK    2  A    between atoms: S_2  and  C_3
REMARK    3  A    between atoms: C_3  and  C_4
REMARK    4  A    between atoms: C_4  and  C_5
REMARK    5  A    between atoms: C_5  and  N_6
REMARK    6  A    between atoms: C_5  and  C_11
REMARK    7  A    between atoms: C_7  and  C_9
REMARK    8  A    between atoms: C_9  and  S_10
REMARK    9  A    between atoms: N_13  and  C_14
REMARK   10  A    between atoms: C_14  and  C_15
REMARK   11  A    between atoms: C_14  and  C_20
REMARK   12  A    between atoms: C_15  and  C_16
REMARK   13  A    between atoms: C_16  and  C_17
REMARK   14  A    between atoms: C_17  and  C_18
REMARK   15  A    between atoms: C_18  and  N_19
REMARK                            x       y       z     vdW  Elec       q    Type
REMARK                         _______ _______ _______ _____ _____    ______ ____
ROOT
ATOM      1  C   UNL     1       4.290   4.563  18.650  0.00  0.00    +0.000 C 
ATOM      2  O   UNL     1       4.464   3.350  18.637  0.00  0.00    +0.000 OA
ATOM      3  N   UNL     1       5.312   5.474  18.479  0.00  0.00    +0.000 N 
ATOM      4  H   UNL     1       5.061   6.433  18.239  0.00  0.00    +0.000 HD
ENDROOT
BRANCH   1   5
ATOM      5  C   UNL     1       2.900   5.200  18.823  0.00  0.00    +0.000 C 
BRANCH   5   6
ATOM      6  N   UNL     1       2.830   6.463  18.095  0.00  0.00    +0.000 N 
ATOM      7  C   UNL     1       2.371   7.607  18.713  0.00  0.00    +0.000 C 
ATOM      8  O   UNL     1       2.040   7.632  19.897  0.00  0.00    +0.000 OA
ATOM      9  H   UNL     1       3.415   6.578  17.271  0.00  0.00    +0.000 HD
BRANCH   7  10
ATOM     10  C   UNL     1       2.254   8.818  17.806  0.00  0.00    +0.000 C 
BRANCH  10  11
ATOM     11  S   UNL     1       1.178  10.070  18.553  0.00  0.00    +0.000 S 
ATOM     12  H   UNL     1       0.034   9.616  18.017  0.00  0.00    +0.000 HD
ENDBRANCH  10  11
ENDBRANCH   7  10
ENDBRANCH   5   6
BRANCH   5  13
ATOM     13  C   UNL     1       1.806   4.236  18.340  0.00  0.00    +0.000 C 
BRANCH  13  14
ATOM     14  C   UNL     1       0.874   3.758  19.461  0.00  0.00    +0.000 C 
BRANCH  14  16
ATOM     15  C   UNL     1       2.168   3.229  21.853  0.00  0.00    +0.000 C 
ATOM     16  S   UNL     1       1.606   2.356  20.376  0.00  0.00    +0.000 S 
ENDBRANCH  14  16
ENDBRANCH  13  14
ENDBRANCH   5  13
ENDBRANCH   1   5
BRANCH   3  17
ATOM     17  C   UNL     1       6.705   5.027  18.341  0.00  0.00    +0.000 C 
BRANCH  17  18
ATOM     18  C   UNL     1       7.602   5.755  19.368  0.00  0.00    +0.000 C 
ATOM     19  N   UNL     1       8.265   6.862  18.908  0.00  0.00    +0.000 N 
ATOM     20  O   UNL     1       7.882   5.300  20.473  0.00  0.00    +0.000 OA
ATOM     21  H   UNL     1       7.904   7.369  18.111  0.00  0.00    +0.000 HD
ATOM     22  H   UNL     1       8.838   7.353  19.582  0.00  0.00    +0.000 HD
ENDBRANCH  17  18
BRANCH  17  23
ATOM     23  C   UNL     1       7.205   5.301  16.916  0.00  0.00    +0.000 C 
BRANCH  23  24
ATOM     24  C   UNL     1       6.140   5.854  15.956  0.00  0.00    +0.000 C 
BRANCH  24  25
ATOM     25  C   UNL     1       5.577   4.843  14.951  0.00  0.00    +0.000 C 
BRANCH  25  26
ATOM     26  C   UNL     1       6.654   4.277  14.028  0.00  0.00    +0.000 C 
BRANCH  26  27
ATOM     27  N   UNL     1       7.498   5.342  13.505  0.00  0.00    +0.000 NA
ATOM     28  H   UNL     1       6.947   6.188  13.369  0.00  0.00    +0.000 HD
ATOM     29  H   UNL     1       7.853   5.075  12.588  0.00  0.00    +0.000 HD
ENDBRANCH  26  27
ENDBRANCH  25  26
ENDBRANCH  24  25
ENDBRANCH  23  24
ENDBRANCH  17  23
ENDBRANCH   3  17
TORSDOF 14
ENDMDL
MODEL 9
REMARK VINA RESULT:      -5.9      1.791      3.671
REMARK  Name = 
REMARK  15 active torsions:
REMARK  status: ('A' for Active; 'I' for Inactive)
REMARK    1  A    between atoms: C_1  and  S_2
REMARK    2  A    between atoms: S_2  and  C_3
REMARK    3  A    between atoms: C_3  and  C_4
REMARK    4  A    between atoms: C_4  and  C_5
REMARK    5  A    between atoms: C_5  and  N_6
REMARK    6  A    between atoms: C_5  and  C_11
REMARK    7  A    between atoms: C_7  and  C_9
REMARK    8  A    between atoms: C_9  and  S_10
REMARK    9  A    between atoms: N_13  and  C_14
REMARK   10  A    between atoms: C_14  and  C_15
REMARK   11  A    between atoms: C_14  and  C_20
REMARK   12  A    between atoms: C_15  and  C_16
REMARK   13  A    between atoms: C_16  and  C_17
REMARK   14  A    between atoms: C_17  and  C_18
REMARK   15  A    between atoms: C_18  and  N_19
REMARK                            x       y       z     vdW  Elec       q    Type
REMARK                         _______ _______ _______ _____ _____    ______ ____
ROOT
ATOM      1  C   UNL     1       3.874   5.152  17.478  0.00  0.00    +0.000 C 
ATOM      2  O   UNL     1       3.996   4.051  16.953  0.00  0.00    +0.000 OA
ATOM      3  N   UNL     1       4.914   6.051  17.596  0.00  0.00    +0.000 N 
ATOM      4  H   UNL     1       4.683   7.024  17.795  0.00  0.00    +0.000 HD
ENDROOT
BRANCH   1   5
ATOM      5  C   UNL     1       2.532   5.663  18.032  0.00  0.00    +0.000 C 
BRANCH   5   6
ATOM      6  N   UNL     1       2.149   4.893  19.211  0.00  0.00    +0.000 N 
ATOM      7  C   UNL     1       1.361   3.767  19.092  0.00  0.00    +0.000 C 
ATOM      8  O   UNL     1       0.981   3.340  18.004  0.00  0.00    +0.000 OA
ATOM      9  H   UNL     1       2.718   4.980  20.051  0.00  0.00    +0.000 HD
BRANCH   7  10
ATOM     10  C   UNL     1       0.955   3.132  20.409  0.00  0.00    +0.000 C 
BRANCH  10  11
ATOM     11  S   UNL     1       2.412   2.840  21.447  0.00  0.00    +0.000 S 
ATOM     12  H   UNL     1       2.016   3.611  22.472  0.00  0.00    +0.000 HD
ENDBRANCH  10  11
ENDBRANCH   7  10
ENDBRANCH   5   6
BRANCH   5  13
ATOM     13  C   UNL     1       2.627   7.157  18.369  0.00  0.00    +0.000 C 
BRANCH  13  14
ATOM     14  C   UNL     1       2.140   7.497  19.784  0.00  0.00    +0.000 C 
BRANCH  14  16
ATOM     15  C   UNL     1       1.375   9.532  18.067  0.00  0.00    +0.000 C 
ATOM     16  S   UNL     1       1.176   9.050  19.796  0.00  0.00    +0.000 S 
ENDBRANCH  14  16
ENDBRANCH  13  14
ENDBRANCH   5  13
ENDBRANCH   1   5
BRANCH   3  17
ATOM     17  C   UNL     1       6.269   5.698  17.151  0.00  0.00    +0.000 C 
BRANCH  17  18
ATOM     18  C   UNL     1       7.313   6.589  17.864  0.00  0.00    +0.000 C 
ATOM     19  N   UNL     1       7.669   7.738  17.209  0.00  0.00    +0.000 N 
ATOM     20  O   UNL     1       7.947   6.237  18.855  0.00  0.00    +0.000 OA
ATOM     21  H   UNL     1       7.037   8.149  16.536  0.00  0.00    +0.000 HD
ATOM     22  H   UNL     1       8.336   8.334  17.682  0.00  0.00    +0.000 HD
ENDBRANCH  17  18
BRANCH  17  23
ATOM     23  C   UNL     1       6.383   5.867  15.630  0.00  0.00    +0.000 C 
BRANCH  23  24
ATOM     24  C   UNL     1       6.972   4.655  14.891  0.00  0.00    +0.000 C 
BRANCH  24  25
ATOM     25  C   UNL     1       5.986   3.885  14.007  0.00  0.00    +0.000 C 
BRANCH  25  26
ATOM     26  C   UNL     1       6.511   3.683  12.587  0.00  0.00    +0.000 C 
BRANCH  26  27
ATOM     27  N   UNL     1       5.988   2.451  12.013  0.00  0.00    +0.000 NA
ATOM     28  H   UNL     1       5.378   2.664  11.226  0.00  0.00    +0.000 HD
ATOM     29  H   UNL     1       5.414   1.971  12.704  0.00  0.00    +0.000 HD
ENDBRANCH  26  27
ENDBRANCH  25  26
ENDBRANCH  24  25
ENDBRANCH  23  24
ENDBRANCH  17  23
ENDBRANCH   3  17
TORSDOF 14
ENDMDL
