MODEL 1
REMARK VINA RESULT:      -6.9      0.000      0.000
REMARK  Name = 
REMARK  7 active torsions:
REMARK  status: ('A' for Active; 'I' for Inactive)
REMARK    1  A    between atoms: C_1  and  C_2
REMARK    2  A    between atoms: C_2  and  C_3
REMARK    3  A    between atoms: C_3  and  N_4
REMARK    4  A    between atoms: C_10  and  C_11
REMARK    5  A    between atoms: C_14  and  O_15
REMARK    6  A    between atoms: O_15  and  C_16
REMARK    7  A    between atoms: C_20  and  C_21
REMARK                            x       y       z     vdW  Elec       q    Type
REMARK                         _______ _______ _______ _____ _____    ______ ____
ROOT
ATOM      1  N   UNL     1       3.549   3.549  17.114  0.00  0.00    +0.000 N 
ATOM      2  C   UNL     1       4.757   4.143  16.734  0.00  0.00    +0.000 C 
ATOM      3  O   UNL     1       5.753   3.617  16.273  0.00  0.00    +0.000 OA
ATOM      4  C   UNL     1       4.569   5.506  17.056  0.00  0.00    +0.000 A 
ATOM      5  N   UNL     1       5.267   6.649  17.026  0.00  0.00    +0.000 N 
ATOM      6  N   UNL     1       4.565   7.671  17.571  0.00  0.00    +0.000 NA
ATOM      7  C   UNL     1       3.369   7.137  17.933  0.00  0.00    +0.000 A 
ATOM      8  C   UNL     1       3.351   5.767  17.612  0.00  0.00    +0.000 A 
ATOM      9  C   UNL     1       2.550   4.523  17.663  0.00  0.00    +0.000 C 
ATOM     10  H   UNL     1       6.208   6.823  16.684  0.00  0.00    +0.000 HD
ENDROOT
BRANCH   7  11
ATOM     11  C   UNL     1       2.348   7.960  18.583  0.00  0.00    +0.000 A 
ATOM     12  C   UNL     1       2.029   7.803  19.936  0.00  0.00    +0.000 A 
ATOM     13  C   UNL     1       1.055   8.613  20.531  0.00  0.00    +0.000 A 
ATOM     14  C   UNL     1       0.402   9.604  19.794  0.00  0.00    +0.000 A 
ATOM     15  C   UNL     1       0.697   9.754  18.441  0.00  0.00    +0.000 A 
ATOM     16  C   UNL     1       1.661   8.935  17.842  0.00  0.00    +0.000 A 
BRANCH  14  17
ATOM     17  O   UNL     1      -0.527  10.333  20.482  0.00  0.00    +0.000 OA
ATOM     18  C   UNL     1      -0.347  10.372  21.894  0.00  0.00    +0.000 C 
ENDBRANCH  14  17
ENDBRANCH   7  11
BRANCH   9  19
ATOM     19  C   UNL     1       2.138   4.238  19.091  0.00  0.00    +0.000 A 
ATOM     20  C   UNL     1       2.953   4.560  20.180  0.00  0.00    +0.000 A 
ATOM     21  C   UNL     1       2.582   4.139  21.454  0.00  0.00    +0.000 A 
ATOM     22  C   UNL     1       1.409   3.417  21.618  0.00  0.00    +0.000 A 
ATOM     23  C   UNL     1       0.645   3.147  20.497  0.00  0.00    +0.000 A 
ATOM     24  N   UNL     1       0.983   3.534  19.247  0.00  0.00    +0.000 NA
ENDBRANCH   9  19
BRANCH   1  25
ATOM     25  C   UNL     1       3.336   2.112  17.127  0.00  0.00    +0.000 C 
BRANCH  25  27
ATOM     26  C   UNL     1       4.669   1.679  19.234  0.00  0.00    +0.000 C 
ATOM     27  C   UNL     1       3.339   1.496  18.522  0.00  0.00    +0.000 C 
ENDBRANCH  25  27
ENDBRANCH   1  25
TORSDOF 5
ENDMDL
MODEL 2
REMARK VINA RESULT:      -6.8      0.480      1.099
REMARK  Name = 
REMARK  7 active torsions:
REMARK  status: ('A' for Active; 'I' for Inactive)
REMARK    1  A    between atoms: C_1  and  C_2
REMARK    2  A    between atoms: C_2  and  C_3
REMARK    3  A    between atoms: C_3  and  N_4
REMARK    4  A    between atoms: C_10  and  C_11
REMARK    5  A    between atoms: C_14  and  O_15
REMARK    6  A    between atoms: O_15  and  C_16
REMARK    7  A    between atoms: C_20  and  C_21
REMARK                            x       y       z     vdW  Elec       q    Type
REMARK                         _______ _______ _______ _____ _____    ______ ____
ROOT
ATOM      1  N   UNL     1       3.550   3.547  17.076  0.00  0.00    +0.000 N 
ATOM      2  C   UNL     1       4.770   4.116  16.700  0.00  0.00    +0.000 C 
ATOM      3  O   UNL     1       5.760   3.569  16.250  0.00  0.00    +0.000 OA
ATOM      4  C   UNL     1       4.604   5.486  17.011  0.00  0.00    +0.000 A 
ATOM      5  N   UNL     1       5.322   6.616  16.977  0.00  0.00    +0.000 N 
ATOM      6  N   UNL     1       4.634   7.654  17.509  0.00  0.00    +0.000 NA
ATOM      7  C   UNL     1       3.427   7.143  17.866  0.00  0.00    +0.000 A 
ATOM      8  C   UNL     1       3.387   5.771  17.556  0.00  0.00    +0.000 A 
ATOM      9  C   UNL     1       2.564   4.542  17.611  0.00  0.00    +0.000 C 
ATOM     10  H   UNL     1       6.269   6.770  16.640  0.00  0.00    +0.000 HD
ENDROOT
BRANCH   7  11
ATOM     11  C   UNL     1       2.416   7.989  18.503  0.00  0.00    +0.000 A 
ATOM     12  C   UNL     1       1.753   9.000  17.800  0.00  0.00    +0.000 A 
ATOM     13  C   UNL     1       0.783   9.784  18.435  0.00  0.00    +0.000 A 
ATOM     14  C   UNL     1       0.444   9.558  19.771  0.00  0.00    +0.000 A 
ATOM     15  C   UNL     1       1.115   8.569  20.487  0.00  0.00    +0.000 A 
ATOM     16  C   UNL     1       2.094   7.794  19.856  0.00  0.00    +0.000 A 
BRANCH  14  17
ATOM     17  O   UNL     1      -0.516  10.386  20.283  0.00  0.00    +0.000 OA
ATOM     18  C   UNL     1      -1.382  10.981  19.321  0.00  0.00    +0.000 C 
ENDBRANCH  14  17
ENDBRANCH   7  11
BRANCH   9  19
ATOM     19  C   UNL     1       2.137   4.275  19.038  0.00  0.00    +0.000 A 
ATOM     20  C   UNL     1       2.941   4.613  20.131  0.00  0.00    +0.000 A 
ATOM     21  C   UNL     1       2.557   4.208  21.407  0.00  0.00    +0.000 A 
ATOM     22  C   UNL     1       1.382   3.486  21.568  0.00  0.00    +0.000 A 
ATOM     23  C   UNL     1       0.631   3.202  20.442  0.00  0.00    +0.000 A 
ATOM     24  N   UNL     1       0.982   3.572  19.191  0.00  0.00    +0.000 NA
ENDBRANCH   9  19
BRANCH   1  25
ATOM     25  C   UNL     1       3.311   2.114  17.099  0.00  0.00    +0.000 C 
BRANCH  25  27
ATOM     26  C   UNL     1       4.627   1.654  19.211  0.00  0.00    +0.000 C 
ATOM     27  C   UNL     1       3.293   1.508  18.498  0.00  0.00    +0.000 C 
ENDBRANCH  25  27
ENDBRANCH   1  25
TORSDOF 5
ENDMDL
MODEL 3
REMARK VINA RESULT:      -6.7      7.040     10.577
REMARK  Name = 
REMARK  7 active torsions:
REMARK  status: ('A' for Active; 'I' for Inactive)
REMARK    1  A    between atoms: C_1  and  C_2
REMARK    2  A    between atoms: C_2  and  C_3
REMARK    3  A    between atoms: C_3  and  N_4
REMARK    4  A    between atoms: C_10  and  C_11
REMARK    5  A    between atoms: C_14  and  O_15
REMARK    6  A    between atoms: O_15  and  C_16
REMARK    7  A    between atoms: C_20  and  C_21
REMARK                            x       y       z     vdW  Elec       q    Type
REMARK                         _______ _______ _______ _____ _____    ______ ____
ROOT
ATOM      1  N   UNL     1      -2.752  13.254  23.437  0.00  0.00    +0.000 N 
ATOM      2  C   UNL     1      -1.458  13.783  23.470  0.00  0.00    +0.000 C 
ATOM      3  O   UNL     1      -0.947  14.494  24.315  0.00  0.00    +0.000 OA
ATOM      4  C   UNL     1      -0.888  13.335  22.257  0.00  0.00    +0.000 A 
ATOM      5  N   UNL     1       0.261  13.462  21.581  0.00  0.00    +0.000 N 
ATOM      6  N   UNL     1       0.194  12.851  20.374  0.00  0.00    +0.000 NA
ATOM      7  C   UNL     1      -1.046  12.301  20.314  0.00  0.00    +0.000 A 
ATOM      8  C   UNL     1      -1.747  12.594  21.499  0.00  0.00    +0.000 A 
ATOM      9  C   UNL     1      -3.032  12.433  22.215  0.00  0.00    +0.000 C 
ATOM     10  H   UNL     1       1.113  13.951  21.842  0.00  0.00    +0.000 HD
ENDROOT
BRANCH   7  11
ATOM     11  C   UNL     1      -1.483  11.568  19.124  0.00  0.00    +0.000 A 
ATOM     12  C   UNL     1      -2.640  11.925  18.424  0.00  0.00    +0.000 A 
ATOM     13  C   UNL     1      -3.025  11.210  17.283  0.00  0.00    +0.000 A 
ATOM     14  C   UNL     1      -2.252  10.146  16.813  0.00  0.00    +0.000 A 
ATOM     15  C   UNL     1      -1.110   9.769  17.516  0.00  0.00    +0.000 A 
ATOM     16  C   UNL     1      -0.733  10.474  18.664  0.00  0.00    +0.000 A 
BRANCH  14  17
ATOM     17  O   UNL     1      -2.727   9.525  15.691  0.00  0.00    +0.000 OA
ATOM     18  C   UNL     1      -3.368  10.378  14.748  0.00  0.00    +0.000 C 
ENDBRANCH  14  17
ENDBRANCH   7  11
BRANCH   9  19
ATOM     19  C   UNL     1      -4.164  12.966  21.363  0.00  0.00    +0.000 A 
ATOM     20  C   UNL     1      -4.214  14.299  20.943  0.00  0.00    +0.000 A 
ATOM     21  C   UNL     1      -5.353  14.761  20.288  0.00  0.00    +0.000 A 
ATOM     22  C   UNL     1      -6.409  13.890  20.060  0.00  0.00    +0.000 A 
ATOM     23  C   UNL     1      -6.282  12.582  20.491  0.00  0.00    +0.000 A 
ATOM     24  N   UNL     1      -5.195  12.106  21.138  0.00  0.00    +0.000 NA
ENDBRANCH   9  19
BRANCH   1  25
ATOM     25  C   UNL     1      -3.779  13.595  24.408  0.00  0.00    +0.000 C 
BRANCH  25  27
ATOM     26  C   UNL     1      -6.108  12.604  24.418  0.00  0.00    +0.000 C 
ATOM     27  C   UNL     1      -4.655  12.419  24.825  0.00  0.00    +0.000 C 
ENDBRANCH  25  27
ENDBRANCH   1  25
TORSDOF 5
ENDMDL
MODEL 4
REMARK VINA RESULT:      -6.7      4.167      9.297
REMARK  Name = 
REMARK  7 active torsions:
REMARK  status: ('A' for Active; 'I' for Inactive)
REMARK    1  A    between atoms: C_1  and  C_2
REMARK    2  A    between atoms: C_2  and  C_3
REMARK    3  A    between atoms: C_3  and  N_4
REMARK    4  A    between atoms: C_10  and  C_11
REMARK    5  A    between atoms: C_14  and  O_15
REMARK    6  A    between atoms: O_15  and  C_16
REMARK    7  A    between atoms: C_20  and  C_21
REMARK                            x       y       z     vdW  Elec       q    Type
REMARK                         _______ _______ _______ _____ _____    ______ ____
ROOT
ATOM      1  N   UNL     1      -1.753  12.872  21.556  0.00  0.00    +0.000 N 
ATOM      2  C   UNL     1      -1.907  12.198  22.770  0.00  0.00    +0.000 C 
ATOM      3  O   UNL     1      -2.476  12.567  23.781  0.00  0.00    +0.000 OA
ATOM      4  C   UNL     1      -1.199  10.990  22.569  0.00  0.00    +0.000 A 
ATOM      5  N   UNL     1      -0.870   9.893  23.263  0.00  0.00    +0.000 N 
ATOM      6  N   UNL     1      -0.065   9.076  22.541  0.00  0.00    +0.000 NA
ATOM      7  C   UNL     1       0.089   9.689  21.339  0.00  0.00    +0.000 A 
ATOM      8  C   UNL     1      -0.624  10.902  21.335  0.00  0.00    +0.000 A 
ATOM      9  C   UNL     1      -0.966  12.102  20.538  0.00  0.00    +0.000 C 
ATOM     10  H   UNL     1      -1.119   9.630  24.212  0.00  0.00    +0.000 HD
ENDROOT
BRANCH   7  11
ATOM     11  C   UNL     1       0.927   9.092  20.297  0.00  0.00    +0.000 A 
ATOM     12  C   UNL     1       1.121   9.718  19.061  0.00  0.00    +0.000 A 
ATOM     13  C   UNL     1       1.937   9.126  18.090  0.00  0.00    +0.000 A 
ATOM     14  C   UNL     1       2.588   7.916  18.344  0.00  0.00    +0.000 A 
ATOM     15  C   UNL     1       2.383   7.274  19.563  0.00  0.00    +0.000 A 
ATOM     16  C   UNL     1       1.557   7.858  20.529  0.00  0.00    +0.000 A 
BRANCH  14  17
ATOM     17  O   UNL     1       3.358   7.436  17.321  0.00  0.00    +0.000 OA
ATOM     18  C   UNL     1       4.354   6.492  17.700  0.00  0.00    +0.000 C 
ENDBRANCH  14  17
ENDBRANCH   7  11
BRANCH   9  19
ATOM     19  C   UNL     1       0.301  12.796  20.088  0.00  0.00    +0.000 A 
ATOM     20  C   UNL     1       0.516  13.162  18.756  0.00  0.00    +0.000 A 
ATOM     21  C   UNL     1       1.760  13.662  18.382  0.00  0.00    +0.000 A 
ATOM     22  C   UNL     1       2.757  13.794  19.338  0.00  0.00    +0.000 A 
ATOM     23  C   UNL     1       2.467  13.425  20.639  0.00  0.00    +0.000 A 
ATOM     24  N   UNL     1       1.274  12.928  21.031  0.00  0.00    +0.000 NA
ENDBRANCH   9  19
BRANCH   1  25
ATOM     25  C   UNL     1      -2.173  14.248  21.348  0.00  0.00    +0.000 C 
BRANCH  25  27
ATOM     26  C   UNL     1      -0.531  16.160  21.113  0.00  0.00    +0.000 C 
ATOM     27  C   UNL     1      -1.312  15.277  22.072  0.00  0.00    +0.000 C 
ENDBRANCH  25  27
ENDBRANCH   1  25
TORSDOF 5
ENDMDL
MODEL 5
REMARK VINA RESULT:      -6.6      4.291      9.369
REMARK  Name = 
REMARK  7 active torsions:
REMARK  status: ('A' for Active; 'I' for Inactive)
REMARK    1  A    between atoms: C_1  and  C_2
REMARK    2  A    between atoms: C_2  and  C_3
REMARK    3  A    between atoms: C_3  and  N_4
REMARK    4  A    between atoms: C_10  and  C_11
REMARK    5  A    between atoms: C_14  and  O_15
REMARK    6  A    between atoms: O_15  and  C_16
REMARK    7  A    between atoms: C_20  and  C_21
REMARK                            x       y       z     vdW  Elec       q    Type
REMARK                         _______ _______ _______ _____ _____    ______ ____
ROOT
ATOM      1  N   UNL     1      -1.750  13.157  21.546  0.00  0.00    +0.000 N 
ATOM      2  C   UNL     1      -1.976  12.545  22.783  0.00  0.00    +0.000 C 
ATOM      3  O   UNL     1      -2.554  12.988  23.758  0.00  0.00    +0.000 OA
ATOM      4  C   UNL     1      -1.328  11.295  22.656  0.00  0.00    +0.000 A 
ATOM      5  N   UNL     1      -1.078  10.213  23.405  0.00  0.00    +0.000 N 
ATOM      6  N   UNL     1      -0.297   9.325  22.745  0.00  0.00    +0.000 NA
ATOM      7  C   UNL     1      -0.075   9.875  21.523  0.00  0.00    +0.000 A 
ATOM      8  C   UNL     1      -0.722  11.122  21.445  0.00  0.00    +0.000 A 
ATOM      9  C   UNL     1      -0.976  12.302  20.588  0.00  0.00    +0.000 C 
ATOM     10  H   UNL     1      -1.369  10.005  24.357  0.00  0.00    +0.000 HD
ENDROOT
BRANCH   7  11
ATOM     11  C   UNL     1       0.761   9.190  20.535  0.00  0.00    +0.000 A 
ATOM     12  C   UNL     1       1.468   8.026  20.851  0.00  0.00    +0.000 A 
ATOM     13  C   UNL     1       2.250   7.388  19.880  0.00  0.00    +0.000 A 
ATOM     14  C   UNL     1       2.320   7.889  18.578  0.00  0.00    +0.000 A 
ATOM     15  C   UNL     1       1.637   9.061  18.260  0.00  0.00    +0.000 A 
ATOM     16  C   UNL     1       0.867   9.705  19.233  0.00  0.00    +0.000 A 
BRANCH  14  17
ATOM     17  O   UNL     1       3.114   7.182  17.718  0.00  0.00    +0.000 OA
ATOM     18  C   UNL     1       3.126   5.773  17.920  0.00  0.00    +0.000 C 
ENDBRANCH  14  17
ENDBRANCH   7  11
BRANCH   9  19
ATOM     19  C   UNL     1       0.340  12.909  20.150  0.00  0.00    +0.000 A 
ATOM     20  C   UNL     1       0.614  13.204  18.811  0.00  0.00    +0.000 A 
ATOM     21  C   UNL     1       1.893  13.622  18.456  0.00  0.00    +0.000 A 
ATOM     22  C   UNL     1       2.867  13.744  19.437  0.00  0.00    +0.000 A 
ATOM     23  C   UNL     1       2.519  13.449  20.743  0.00  0.00    +0.000 A 
ATOM     24  N   UNL     1       1.289  13.032  21.117  0.00  0.00    +0.000 NA
ENDBRANCH   9  19
BRANCH   1  25
ATOM     25  C   UNL     1      -2.090  14.541  21.267  0.00  0.00    +0.000 C 
BRANCH  25  27
ATOM     26  C   UNL     1      -0.322  16.333  20.993  0.00  0.00    +0.000 C 
ATOM     27  C   UNL     1      -1.192  15.555  21.967  0.00  0.00    +0.000 C 
ENDBRANCH  25  27
ENDBRANCH   1  25
TORSDOF 5
ENDMDL
MODEL 6
REMARK VINA RESULT:      -6.6      4.110      9.206
REMARK  Name = 
REMARK  7 active torsions:
REMARK  status: ('A' for Active; 'I' for Inactive)
REMARK    1  A    between atoms: C_1  and  C_2
REMARK    2  A    between atoms: C_2  and  C_3
REMARK    3  A    between atoms: C_3  and  N_4
REMARK    4  A    between atoms: C_10  and  C_11
REMARK    5  A    between atoms: C_14  and  O_15
REMARK    6  A    between atoms: O_15  and  C_16
REMARK    7  A    between atoms: C_20  and  C_21
REMARK                            x       y       z     vdW  Elec       q    Type
REMARK                         _______ _______ _______ _____ _____    ______ ____
ROOT
ATOM      1  N   UNL     1      -1.757  12.823  21.589  0.00  0.00    +0.000 N 
ATOM      2  C   UNL     1      -1.900  12.162  22.812  0.00  0.00    +0.000 C 
ATOM      3  O   UNL     1      -2.463  12.541  23.822  0.00  0.00    +0.000 OA
ATOM      4  C   UNL     1      -1.190  10.955  22.619  0.00  0.00    +0.000 A 
ATOM      5  N   UNL     1      -0.852   9.866  23.323  0.00  0.00    +0.000 N 
ATOM      6  N   UNL     1      -0.050   9.044  22.605  0.00  0.00    +0.000 NA
ATOM      7  C   UNL     1       0.094   9.643  21.394  0.00  0.00    +0.000 A 
ATOM      8  C   UNL     1      -0.623  10.854  21.382  0.00  0.00    +0.000 A 
ATOM      9  C   UNL     1      -0.975  12.044  20.574  0.00  0.00    +0.000 C 
ATOM     10  H   UNL     1      -1.094   9.613  24.277  0.00  0.00    +0.000 HD
ENDROOT
BRANCH   7  11
ATOM     11  C   UNL     1       0.926   9.038  20.354  0.00  0.00    +0.000 A 
ATOM     12  C   UNL     1       1.090   9.637  19.100  0.00  0.00    +0.000 A 
ATOM     13  C   UNL     1       1.902   9.037  18.130  0.00  0.00    +0.000 A 
ATOM     14  C   UNL     1       2.578   7.846  18.402  0.00  0.00    +0.000 A 
ATOM     15  C   UNL     1       2.404   7.229  19.639  0.00  0.00    +0.000 A 
ATOM     16  C   UNL     1       1.582   7.821  20.604  0.00  0.00    +0.000 A 
BRANCH  14  17
ATOM     17  O   UNL     1       3.341   7.356  17.379  0.00  0.00    +0.000 OA
ATOM     18  C   UNL     1       4.113   6.202  17.693  0.00  0.00    +0.000 C 
ENDBRANCH  14  17
ENDBRANCH   7  11
BRANCH   9  19
ATOM     19  C   UNL     1       0.287  12.737  20.107  0.00  0.00    +0.000 A 
ATOM     20  C   UNL     1       0.499  13.073  18.767  0.00  0.00    +0.000 A 
ATOM     21  C   UNL     1       1.739  13.573  18.381  0.00  0.00    +0.000 A 
ATOM     22  C   UNL     1       2.736  13.736  19.333  0.00  0.00    +0.000 A 
ATOM     23  C   UNL     1       2.449  13.395  20.643  0.00  0.00    +0.000 A 
ATOM     24  N   UNL     1       1.259  12.898  21.047  0.00  0.00    +0.000 NA
ENDBRANCH   9  19
BRANCH   1  25
ATOM     25  C   UNL     1      -2.182  14.195  21.368  0.00  0.00    +0.000 C 
BRANCH  25  27
ATOM     26  C   UNL     1      -4.239  13.004  20.498  0.00  0.00    +0.000 C 
ATOM     27  C   UNL     1      -3.634  14.332  20.923  0.00  0.00    +0.000 C 
ENDBRANCH  25  27
ENDBRANCH   1  25
TORSDOF 5
ENDMDL
MODEL 7
REMARK VINA RESULT:      -6.6      4.079      9.177
REMARK  Name = 
REMARK  7 active torsions:
REMARK  status: ('A' for Active; 'I' for Inactive)
REMARK    1  A    between atoms: C_1  and  C_2
REMARK    2  A    between atoms: C_2  and  C_3
REMARK    3  A    between atoms: C_3  and  N_4
REMARK    4  A    between atoms: C_10  and  C_11
REMARK    5  A    between atoms: C_14  and  O_15
REMARK    6  A    between atoms: O_15  and  C_16
REMARK    7  A    between atoms: C_20  and  C_21
REMARK                            x       y       z     vdW  Elec       q    Type
REMARK                         _______ _______ _______ _____ _____    ______ ____
ROOT
ATOM      1  N   UNL     1      -1.792  12.603  21.566  0.00  0.00    +0.000 N 
ATOM      2  C   UNL     1      -1.922  11.951  22.795  0.00  0.00    +0.000 C 
ATOM      3  O   UNL     1      -2.503  12.323  23.798  0.00  0.00    +0.000 OA
ATOM      4  C   UNL     1      -1.174  10.764  22.619  0.00  0.00    +0.000 A 
ATOM      5  N   UNL     1      -0.807   9.695  23.336  0.00  0.00    +0.000 N 
ATOM      6  N   UNL     1       0.025   8.890  22.632  0.00  0.00    +0.000 NA
ATOM      7  C   UNL     1       0.158   9.481  21.416  0.00  0.00    +0.000 A 
ATOM      8  C   UNL     1      -0.597  10.668  21.386  0.00  0.00    +0.000 A 
ATOM      9  C   UNL     1      -0.980  11.838  20.564  0.00  0.00    +0.000 C 
ATOM     10  H   UNL     1      -1.046   9.444  24.292  0.00  0.00    +0.000 HD
ENDROOT
BRANCH   7  11
ATOM     11  C   UNL     1       1.014   8.890  20.387  0.00  0.00    +0.000 A 
ATOM     12  C   UNL     1       1.718   7.702  20.608  0.00  0.00    +0.000 A 
ATOM     13  C   UNL     1       2.521   7.157  19.599  0.00  0.00    +0.000 A 
ATOM     14  C   UNL     1       2.617   7.775  18.350  0.00  0.00    +0.000 A 
ATOM     15  C   UNL     1       1.938   8.971  18.127  0.00  0.00    +0.000 A 
ATOM     16  C   UNL     1       1.146   9.523  19.140  0.00  0.00    +0.000 A 
BRANCH  14  17
ATOM     17  O   UNL     1       3.429   7.150  17.446  0.00  0.00    +0.000 OA
ATOM     18  C   UNL     1       3.576   5.746  17.627  0.00  0.00    +0.000 C 
ENDBRANCH  14  17
ENDBRANCH   7  11
BRANCH   9  19
ATOM     19  C   UNL     1       0.262  12.565  20.097  0.00  0.00    +0.000 A 
ATOM     20  C   UNL     1       0.490  12.860  18.749  0.00  0.00    +0.000 A 
ATOM     21  C   UNL     1       1.717  13.397  18.370  0.00  0.00    +0.000 A 
ATOM     22  C   UNL     1       2.684  13.635  19.336  0.00  0.00    +0.000 A 
ATOM     23  C   UNL     1       2.383  13.332  20.651  0.00  0.00    +0.000 A 
ATOM     24  N   UNL     1       1.206  12.801  21.049  0.00  0.00    +0.000 NA
ENDBRANCH   9  19
BRANCH   1  25
ATOM     25  C   UNL     1      -2.259  13.959  21.328  0.00  0.00    +0.000 C 
BRANCH  25  27
ATOM     26  C   UNL     1      -4.613  14.680  21.912  0.00  0.00    +0.000 C 
ATOM     27  C   UNL     1      -3.710  14.045  20.868  0.00  0.00    +0.000 C 
ENDBRANCH  25  27
ENDBRANCH   1  25
TORSDOF 5
ENDMDL
MODEL 8
REMARK VINA RESULT:      -6.5      4.108      9.164
REMARK  Name = 
REMARK  7 active torsions:
REMARK  status: ('A' for Active; 'I' for Inactive)
REMARK    1  A    between atoms: C_1  and  C_2
REMARK    2  A    between atoms: C_2  and  C_3
REMARK    3  A    between atoms: C_3  and  N_4
REMARK    4  A    between atoms: C_10  and  C_11
REMARK    5  A    between atoms: C_14  and  O_15
REMARK    6  A    between atoms: O_15  and  C_16
REMARK    7  A    between atoms: C_20  and  C_21
REMARK                            x       y       z     vdW  Elec       q    Type
REMARK                         _______ _______ _______ _____ _____    ______ ____
ROOT
ATOM      1  N   UNL     1      -1.637  12.807  21.353  0.00  0.00    +0.000 N 
ATOM      2  C   UNL     1      -1.832  12.238  22.615  0.00  0.00    +0.000 C 
ATOM      3  O   UNL     1      -2.411  12.703  23.579  0.00  0.00    +0.000 OA
ATOM      4  C   UNL     1      -1.152  11.002  22.528  0.00  0.00    +0.000 A 
ATOM      5  N   UNL     1      -0.865   9.957  23.317  0.00  0.00    +0.000 N 
ATOM      6  N   UNL     1      -0.067   9.065  22.682  0.00  0.00    +0.000 NA
ATOM      7  C   UNL     1       0.126   9.572  21.437  0.00  0.00    +0.000 A 
ATOM      8  C   UNL     1      -0.555  10.798  21.318  0.00  0.00    +0.000 A 
ATOM      9  C   UNL     1      -0.850  11.936  20.419  0.00  0.00    +0.000 C 
ATOM     10  H   UNL     1      -1.139   9.779  24.279  0.00  0.00    +0.000 HD
ENDROOT
BRANCH   7  11
ATOM     11  C   UNL     1       0.969   8.872  20.466  0.00  0.00    +0.000 A 
ATOM     12  C   UNL     1       1.574   7.647  20.766  0.00  0.00    +0.000 A 
ATOM     13  C   UNL     1       2.365   6.997  19.811  0.00  0.00    +0.000 A 
ATOM     14  C   UNL     1       2.546   7.546  18.540  0.00  0.00    +0.000 A 
ATOM     15  C   UNL     1       1.966   8.776  18.239  0.00  0.00    +0.000 A 
ATOM     16  C   UNL     1       1.186   9.432  19.197  0.00  0.00    +0.000 A 
BRANCH  14  17
ATOM     17  O   UNL     1       3.338   6.820  17.693  0.00  0.00    +0.000 OA
ATOM     18  C   UNL     1       3.289   5.409  17.874  0.00  0.00    +0.000 C 
ENDBRANCH  14  17
ENDBRANCH   7  11
BRANCH   9  19
ATOM     19  C   UNL     1       0.443  12.560  19.941  0.00  0.00    +0.000 A 
ATOM     20  C   UNL     1       1.516  12.803  20.805  0.00  0.00    +0.000 A 
ATOM     21  C   UNL     1       2.618  13.512  20.336  0.00  0.00    +0.000 A 
ATOM     22  C   UNL     1       2.633  13.956  19.021  0.00  0.00    +0.000 A 
ATOM     23  C   UNL     1       1.543  13.666  18.221  0.00  0.00    +0.000 A 
ATOM     24  N   UNL     1       0.455  12.989  18.650  0.00  0.00    +0.000 NA
ENDBRANCH   9  19
BRANCH   1  25
ATOM     25  C   UNL     1      -2.016  14.170  21.024  0.00  0.00    +0.000 C 
BRANCH  25  27
ATOM     26  C   UNL     1      -0.423  16.108  20.688  0.00  0.00    +0.000 C 
ATOM     27  C   UNL     1      -1.155  15.235  21.694  0.00  0.00    +0.000 C 
ENDBRANCH  25  27
ENDBRANCH   1  25
TORSDOF 5
ENDMDL
MODEL 9
REMARK VINA RESULT:      -6.4      7.811     10.992
REMARK  Name = 
REMARK  7 active torsions:
REMARK  status: ('A' for Active; 'I' for Inactive)
REMARK    1  A    between atoms: C_1  and  C_2
REMARK    2  A    between atoms: C_2  and  C_3
REMARK    3  A    between atoms: C_3  and  N_4
REMARK    4  A    between atoms: C_10  and  C_11
REMARK    5  A    between atoms: C_14  and  O_15
REMARK    6  A    between atoms: O_15  and  C_16
REMARK    7  A    between atoms: C_20  and  C_21
REMARK                            x       y       z     vdW  Elec       q    Type
REMARK                         _______ _______ _______ _____ _____    ______ ____
ROOT
ATOM      1  N   UNL     1      -3.626  14.403  22.169  0.00  0.00    +0.000 N 
ATOM      2  C   UNL     1      -4.832  13.843  22.598  0.00  0.00    +0.000 C 
ATOM      3  O   UNL     1      -5.420  14.013  23.650  0.00  0.00    +0.000 OA
ATOM      4  C   UNL     1      -5.194  12.984  21.534  0.00  0.00    +0.000 A 
ATOM      5  N   UNL     1      -6.164  12.109  21.238  0.00  0.00    +0.000 N 
ATOM      6  N   UNL     1      -5.925  11.491  20.056  0.00  0.00    +0.000 NA
ATOM      7  C   UNL     1      -4.767  12.029  19.593  0.00  0.00    +0.000 A 
ATOM      8  C   UNL     1      -4.289  12.980  20.514  0.00  0.00    +0.000 A 
ATOM      9  C   UNL     1      -3.200  13.937  20.809  0.00  0.00    +0.000 C 
ATOM     10  H   UNL     1      -6.991  11.855  21.770  0.00  0.00    +0.000 HD
ENDROOT
BRANCH   7  11
ATOM     11  C   UNL     1      -4.185  11.577  18.328  0.00  0.00    +0.000 A 
ATOM     12  C   UNL     1      -4.876  11.695  17.117  0.00  0.00    +0.000 A 
ATOM     13  C   UNL     1      -4.287  11.263  15.922  0.00  0.00    +0.000 A 
ATOM     14  C   UNL     1      -2.997  10.728  15.914  0.00  0.00    +0.000 A 
ATOM     15  C   UNL     1      -2.310  10.585  17.117  0.00  0.00    +0.000 A 
ATOM     16  C   UNL     1      -2.903  11.004  18.313  0.00  0.00    +0.000 A 
BRANCH  14  17
ATOM     17  O   UNL     1      -2.528  10.342  14.689  0.00  0.00    +0.000 OA
ATOM     18  C   UNL     1      -3.527   9.969  13.745  0.00  0.00    +0.000 C 
ENDBRANCH  14  17
ENDBRANCH   7  11
BRANCH   9  19
ATOM     19  C   UNL     1      -1.868  13.218  20.795  0.00  0.00    +0.000 A 
ATOM     20  C   UNL     1      -0.829  13.592  19.938  0.00  0.00    +0.000 A 
ATOM     21  C   UNL     1       0.314  12.799  19.870  0.00  0.00    +0.000 A 
ATOM     22  C   UNL     1       0.401  11.661  20.660  0.00  0.00    +0.000 A 
ATOM     23  C   UNL     1      -0.660  11.362  21.494  0.00  0.00    +0.000 A 
ATOM     24  N   UNL     1      -1.786  12.105  21.575  0.00  0.00    +0.000 NA
ENDBRANCH   9  19
BRANCH   1  25
ATOM     25  C   UNL     1      -2.783  15.229  23.016  0.00  0.00    +0.000 C 
BRANCH  25  27
ATOM     26  C   UNL     1      -2.367  15.223  25.513  0.00  0.00    +0.000 C 
ATOM     27  C   UNL     1      -2.170  14.486  24.198  0.00  0.00    +0.000 C 
ENDBRANCH  25  27
ENDBRANCH   1  25
TORSDOF 5
ENDMDL
