MODEL 1
REMARK VINA RESULT:      -7.9      0.000      0.000
REMARK  Name = 
REMARK  4 active torsions:
REMARK  status: ('A' for Active; 'I' for Inactive)
REMARK    1  A    between atoms: C_1  and  C_2
REMARK    2  A    between atoms: C_6  and  C_7
REMARK    3  A    between atoms: C_15  and  C_16
REMARK    4  A    between atoms: C_25  and  N_26
REMARK                            x       y       z     vdW  Elec       q    Type
REMARK                         _______ _______ _______ _____ _____    ______ ____
ROOT
ATOM      1  C   UNL     1      -1.638  11.729  20.166  0.00  0.00    +0.000 A 
ATOM      2  C   UNL     1      -2.059  11.279  18.896  0.00  0.00    +0.000 A 
ATOM      3  C   UNL     1      -3.313  11.569  18.381  0.00  0.00    +0.000 A 
ATOM      4  C   UNL     1      -3.674  11.167  17.079  0.00  0.00    +0.000 A 
ATOM      5  C   UNL     1      -4.932  11.472  16.584  0.00  0.00    +0.000 A 
ATOM      6  C   UNL     1      -5.827  12.167  17.385  0.00  0.00    +0.000 A 
ATOM      7  C   UNL     1      -5.446  12.560  18.681  0.00  0.00    +0.000 A 
ATOM      8  C   UNL     1      -4.188  12.275  19.198  0.00  0.00    +0.000 A 
ATOM      9  N   UNL     1      -3.832  12.669  20.440  0.00  0.00    +0.000 NA
ATOM     10  C   UNL     1      -2.583  12.436  20.937  0.00  0.00    +0.000 A 
ENDROOT
BRANCH   1  18
ATOM     11  C   UNL     1       2.147  13.215  18.151  0.00  0.00    +0.000 C 
ATOM     12  C   UNL     1       1.192  13.080  19.308  0.00  0.00    +0.000 C 
ATOM     13  O   UNL     1       0.708  14.069  19.858  0.00  0.00    +0.000 OA
ATOM     14  N   UNL     1       0.840  11.777  19.628  0.00  0.00    +0.000 N 
ATOM     15  N   UNL     1       1.532  10.703  19.140  0.00  0.00    +0.000 NA
ATOM     16  C   UNL     1       1.109   9.659  19.784  0.00  0.00    +0.000 C 
ATOM     17  C   UNL     1       0.056   9.928  20.825  0.00  0.00    +0.000 C 
ATOM     18  C   UNL     1      -0.206  11.417  20.602  0.00  0.00    +0.000 C 
BRANCH  16  19
ATOM     19  C   UNL     1       1.669   8.302  19.566  0.00  0.00    +0.000 A 
ATOM     20  C   UNL     1       1.559   7.354  20.594  0.00  0.00    +0.000 A 
ATOM     21  C   UNL     1       2.030   6.052  20.407  0.00  0.00    +0.000 A 
ATOM     22  C   UNL     1       2.617   5.698  19.195  0.00  0.00    +0.000 A 
ATOM     23 CL   UNL     1       3.183   4.091  18.956  0.00  0.00    +0.000 Cl
ATOM     24  C   UNL     1       2.743   6.636  18.171  0.00  0.00    +0.000 A 
ATOM     25  C   UNL     1       2.266   7.939  18.354  0.00  0.00    +0.000 A 
ENDBRANCH  16  19
ENDBRANCH   1  18
BRANCH  10  26
ATOM     26  N   UNL     1      -2.373  12.894  22.222  0.00  0.00    +0.000 N 
ATOM     27  C   UNL     1      -2.855  12.079  23.362  0.00  0.00    +0.000 C 
ATOM     28  C   UNL     1      -3.719  12.897  24.334  0.00  0.00    +0.000 C 
ATOM     29  O   UNL     1      -3.060  14.109  24.737  0.00  0.00    +0.000 OA
ATOM     30  C   UNL     1      -2.834  14.926  23.585  0.00  0.00    +0.000 C 
ATOM     31  C   UNL     1      -1.906  14.234  22.580  0.00  0.00    +0.000 C 
ENDBRANCH  10  26
TORSDOF 3
ENDMDL
MODEL 2
REMARK VINA RESULT:      -7.7      1.328      1.861
REMARK  Name = 
REMARK  4 active torsions:
REMARK  status: ('A' for Active; 'I' for Inactive)
REMARK    1  A    between atoms: C_1  and  C_2
REMARK    2  A    between atoms: C_6  and  C_7
REMARK    3  A    between atoms: C_15  and  C_16
REMARK    4  A    between atoms: C_25  and  N_26
REMARK                            x       y       z     vdW  Elec       q    Type
REMARK                         _______ _______ _______ _____ _____    ______ ____
ROOT
ATOM      1  C   UNL     1      -0.692  10.921  19.269  0.00  0.00    +0.000 A 
ATOM      2  C   UNL     1      -1.202  10.409  18.055  0.00  0.00    +0.000 A 
ATOM      3  C   UNL     1      -2.460  10.741  17.576  0.00  0.00    +0.000 A 
ATOM      4  C   UNL     1      -2.908  10.272  16.326  0.00  0.00    +0.000 A 
ATOM      5  C   UNL     1      -4.169  10.620  15.866  0.00  0.00    +0.000 A 
ATOM      6  C   UNL     1      -4.979  11.426  16.653  0.00  0.00    +0.000 A 
ATOM      7  C   UNL     1      -4.511  11.885  17.898  0.00  0.00    +0.000 A 
ATOM      8  C   UNL     1      -3.249  11.559  18.378  0.00  0.00    +0.000 A 
ATOM      9  N   UNL     1      -2.809  12.016  19.570  0.00  0.00    +0.000 NA
ATOM     10  C   UNL     1      -1.554  11.739  20.027  0.00  0.00    +0.000 A 
ENDROOT
BRANCH   1  18
ATOM     11  C   UNL     1       3.100  12.767  17.593  0.00  0.00    +0.000 C 
ATOM     12  C   UNL     1       2.132  12.425  18.696  0.00  0.00    +0.000 C 
ATOM     13  O   UNL     1       1.632  13.298  19.404  0.00  0.00    +0.000 OA
ATOM     14  N   UNL     1       1.791  11.083  18.780  0.00  0.00    +0.000 N 
ATOM     15  N   UNL     1       2.500  10.117  18.121  0.00  0.00    +0.000 NA
ATOM     16  C   UNL     1       2.081   8.972  18.568  0.00  0.00    +0.000 C 
ATOM     17  C   UNL     1       1.013   9.047  19.625  0.00  0.00    +0.000 C 
ATOM     18  C   UNL     1       0.738  10.549  19.662  0.00  0.00    +0.000 C 
BRANCH  16  19
ATOM     19  C   UNL     1       2.657   7.679  18.124  0.00  0.00    +0.000 A 
ATOM     20  C   UNL     1       3.858   7.689  17.398  0.00  0.00    +0.000 A 
ATOM     21  C   UNL     1       4.456   6.490  17.006  0.00  0.00    +0.000 A 
ATOM     22  C   UNL     1       3.852   5.278  17.332  0.00  0.00    +0.000 A 
ATOM     23 CL   UNL     1       4.596   3.799  16.864  0.00  0.00    +0.000 Cl
ATOM     24  C   UNL     1       2.652   5.256  18.042  0.00  0.00    +0.000 A 
ATOM     25  C   UNL     1       2.054   6.457  18.441  0.00  0.00    +0.000 A 
ENDBRANCH  16  19
ENDBRANCH   1  18
BRANCH  10  26
ATOM     26  N   UNL     1      -1.253  12.273  21.263  0.00  0.00    +0.000 N 
ATOM     27  C   UNL     1      -1.589  11.497  22.480  0.00  0.00    +0.000 C 
ATOM     28  C   UNL     1      -2.403  12.324  23.488  0.00  0.00    +0.000 C 
ATOM     29  O   UNL     1      -1.774  13.585  23.770  0.00  0.00    +0.000 OA
ATOM     30  C   UNL     1      -1.695  14.350  22.564  0.00  0.00    +0.000 C 
ATOM     31  C   UNL     1      -0.826  13.651  21.513  0.00  0.00    +0.000 C 
ENDBRANCH  10  26
TORSDOF 3
ENDMDL
MODEL 3
REMARK VINA RESULT:      -7.7      2.296      4.642
REMARK  Name = 
REMARK  4 active torsions:
REMARK  status: ('A' for Active; 'I' for Inactive)
REMARK    1  A    between atoms: C_1  and  C_2
REMARK    2  A    between atoms: C_6  and  C_7
REMARK    3  A    between atoms: C_15  and  C_16
REMARK    4  A    between atoms: C_25  and  N_26
REMARK                            x       y       z     vdW  Elec       q    Type
REMARK                         _______ _______ _______ _____ _____    ______ ____
ROOT
ATOM      1  C   UNL     1       0.363  11.365  19.027  0.00  0.00    +0.000 A 
ATOM      2  C   UNL     1       1.636  11.845  18.646  0.00  0.00    +0.000 A 
ATOM      3  C   UNL     1       1.917  13.197  18.524  0.00  0.00    +0.000 A 
ATOM      4  C   UNL     1       3.217  13.643  18.214  0.00  0.00    +0.000 A 
ATOM      5  C   UNL     1       3.476  15.001  18.101  0.00  0.00    +0.000 A 
ATOM      6  C   UNL     1       2.441  15.906  18.288  0.00  0.00    +0.000 A 
ATOM      7  C   UNL     1       1.151  15.439  18.598  0.00  0.00    +0.000 A 
ATOM      8  C   UNL     1       0.867  14.085  18.726  0.00  0.00    +0.000 A 
ATOM      9  N   UNL     1      -0.374  13.652  19.036  0.00  0.00    +0.000 NA
ATOM     10  C   UNL     1      -0.651  12.328  19.210  0.00  0.00    +0.000 A 
ENDROOT
BRANCH   1  18
ATOM     11  C   UNL     1       1.266   9.004  22.795  0.00  0.00    +0.000 C 
ATOM     12  C   UNL     1       0.365   9.526  21.706  0.00  0.00    +0.000 C 
ATOM     13  O   UNL     1      -0.643  10.180  21.968  0.00  0.00    +0.000 OA
ATOM     14  N   UNL     1       0.811   9.291  20.414  0.00  0.00    +0.000 N 
ATOM     15  N   UNL     1       1.817   8.402  20.150  0.00  0.00    +0.000 NA
ATOM     16  C   UNL     1       1.850   8.245  18.861  0.00  0.00    +0.000 C 
ATOM     17  C   UNL     1       0.822   9.029  18.091  0.00  0.00    +0.000 C 
ATOM     18  C   UNL     1       0.186   9.858  19.206  0.00  0.00    +0.000 C 
BRANCH  16  19
ATOM     19  C   UNL     1       2.785   7.306  18.193  0.00  0.00    +0.000 A 
ATOM     20  C   UNL     1       2.553   5.928  18.307  0.00  0.00    +0.000 A 
ATOM     21  C   UNL     1       3.383   5.015  17.651  0.00  0.00    +0.000 A 
ATOM     22  C   UNL     1       4.449   5.479  16.886  0.00  0.00    +0.000 A 
ATOM     23 CL   UNL     1       5.462   4.358  16.063  0.00  0.00    +0.000 Cl
ATOM     24  C   UNL     1       4.696   6.847  16.776  0.00  0.00    +0.000 A 
ATOM     25  C   UNL     1       3.863   7.763  17.427  0.00  0.00    +0.000 A 
ENDBRANCH  16  19
ENDBRANCH   1  18
BRANCH  10  26
ATOM     26  N   UNL     1      -1.966  12.043  19.518  0.00  0.00    +0.000 N 
ATOM     27  C   UNL     1      -2.788  11.302  18.532  0.00  0.00    +0.000 C 
ATOM     28  C   UNL     1      -4.112  12.021  18.228  0.00  0.00    +0.000 C 
ATOM     29  O   UNL     1      -4.824  12.353  19.431  0.00  0.00    +0.000 OA
ATOM     30  C   UNL     1      -4.030  13.248  20.215  0.00  0.00    +0.000 C 
ATOM     31  C   UNL     1      -2.713  12.595  20.649  0.00  0.00    +0.000 C 
ENDBRANCH  10  26
TORSDOF 3
ENDMDL
MODEL 4
REMARK VINA RESULT:      -7.5      2.930      5.108
REMARK  Name = 
REMARK  4 active torsions:
REMARK  status: ('A' for Active; 'I' for Inactive)
REMARK    1  A    between atoms: C_1  and  C_2
REMARK    2  A    between atoms: C_6  and  C_7
REMARK    3  A    between atoms: C_15  and  C_16
REMARK    4  A    between atoms: C_25  and  N_26
REMARK                            x       y       z     vdW  Elec       q    Type
REMARK                         _______ _______ _______ _____ _____    ______ ____
ROOT
ATOM      1  C   UNL     1       0.079  11.049  18.905  0.00  0.00    +0.000 A 
ATOM      2  C   UNL     1       1.242  11.778  19.239  0.00  0.00    +0.000 A 
ATOM      3  C   UNL     1       1.327  13.154  19.093  0.00  0.00    +0.000 A 
ATOM      4  C   UNL     1       2.476  13.858  19.506  0.00  0.00    +0.000 A 
ATOM      5  C   UNL     1       2.537  15.235  19.354  0.00  0.00    +0.000 A 
ATOM      6  C   UNL     1       1.461  15.903  18.785  0.00  0.00    +0.000 A 
ATOM      7  C   UNL     1       0.324  15.180  18.381  0.00  0.00    +0.000 A 
ATOM      8  C   UNL     1       0.233  13.802  18.531  0.00  0.00    +0.000 A 
ATOM      9  N   UNL     1      -0.870  13.123  18.150  0.00  0.00    +0.000 NA
ATOM     10  C   UNL     1      -0.987  11.777  18.337  0.00  0.00    +0.000 A 
ENDROOT
BRANCH   1  18
ATOM     11  C   UNL     1       1.431   9.029  22.737  0.00  0.00    +0.000 C 
ATOM     12  C   UNL     1       0.421   9.390  21.679  0.00  0.00    +0.000 C 
ATOM     13  O   UNL     1      -0.633   9.956  21.966  0.00  0.00    +0.000 OA
ATOM     14  N   UNL     1       0.815   9.120  20.377  0.00  0.00    +0.000 N 
ATOM     15  N   UNL     1       1.891   8.321  20.101  0.00  0.00    +0.000 NA
ATOM     16  C   UNL     1       1.866   8.087  18.824  0.00  0.00    +0.000 C 
ATOM     17  C   UNL     1       0.722   8.716  18.077  0.00  0.00    +0.000 C 
ATOM     18  C   UNL     1       0.068   9.545  19.180  0.00  0.00    +0.000 C 
BRANCH  16  19
ATOM     19  C   UNL     1       2.853   7.206  18.152  0.00  0.00    +0.000 A 
ATOM     20  C   UNL     1       2.703   5.816  18.265  0.00  0.00    +0.000 A 
ATOM     21  C   UNL     1       3.584   4.954  17.606  0.00  0.00    +0.000 A 
ATOM     22  C   UNL     1       4.620   5.481  16.840  0.00  0.00    +0.000 A 
ATOM     23 CL   UNL     1       5.695   4.422  16.014  0.00  0.00    +0.000 Cl
ATOM     24  C   UNL     1       4.786   6.861  16.731  0.00  0.00    +0.000 A 
ATOM     25  C   UNL     1       3.902   7.726  17.385  0.00  0.00    +0.000 A 
ENDBRANCH  16  19
ENDBRANCH   1  18
BRANCH  10  26
ATOM     26  N   UNL     1      -2.171  11.226  17.890  0.00  0.00    +0.000 N 
ATOM     27  C   UNL     1      -2.183  10.508  16.594  0.00  0.00    +0.000 C 
ATOM     28  C   UNL     1      -3.287  11.024  15.658  0.00  0.00    +0.000 C 
ATOM     29  O   UNL     1      -4.567  11.047  16.309  0.00  0.00    +0.000 OA
ATOM     30  C   UNL     1      -4.510  11.941  17.425  0.00  0.00    +0.000 C 
ATOM     31  C   UNL     1      -3.492  11.469  18.470  0.00  0.00    +0.000 C 
ENDBRANCH  10  26
TORSDOF 3
ENDMDL
MODEL 5
REMARK VINA RESULT:      -7.4      2.775      5.049
REMARK  Name = 
REMARK  4 active torsions:
REMARK  status: ('A' for Active; 'I' for Inactive)
REMARK    1  A    between atoms: C_1  and  C_2
REMARK    2  A    between atoms: C_6  and  C_7
REMARK    3  A    between atoms: C_15  and  C_16
REMARK    4  A    between atoms: C_25  and  N_26
REMARK                            x       y       z     vdW  Elec       q    Type
REMARK                         _______ _______ _______ _____ _____    ______ ____
ROOT
ATOM      1  C   UNL     1       0.276  11.552  19.013  0.00  0.00    +0.000 A 
ATOM      2  C   UNL     1       1.523  12.082  19.410  0.00  0.00    +0.000 A 
ATOM      3  C   UNL     1       1.816  13.435  19.336  0.00  0.00    +0.000 A 
ATOM      4  C   UNL     1       3.044  13.939  19.810  0.00  0.00    +0.000 A 
ATOM      5  C   UNL     1       3.313  15.297  19.730  0.00  0.00    +0.000 A 
ATOM      6  C   UNL     1       2.366  16.144  19.172  0.00  0.00    +0.000 A 
ATOM      7  C   UNL     1       1.146  15.620  18.707  0.00  0.00    +0.000 A 
ATOM      8  C   UNL     1       0.847  14.265  18.784  0.00  0.00    +0.000 A 
ATOM      9  N   UNL     1      -0.333  13.778  18.344  0.00  0.00    +0.000 NA
ATOM     10  C   UNL     1      -0.653  12.457  18.460  0.00  0.00    +0.000 A 
ENDROOT
BRANCH   1  18
ATOM     11  C   UNL     1       0.827   9.249  22.884  0.00  0.00    +0.000 C 
ATOM     12  C   UNL     1       0.024   9.775  21.724  0.00  0.00    +0.000 C 
ATOM     13  O   UNL     1      -0.977  10.469  21.899  0.00  0.00    +0.000 OA
ATOM     14  N   UNL     1       0.552   9.496  20.472  0.00  0.00    +0.000 N 
ATOM     15  N   UNL     1       1.542   8.569  20.298  0.00  0.00    +0.000 NA
ATOM     16  C   UNL     1       1.660   8.380  19.019  0.00  0.00    +0.000 C 
ATOM     17  C   UNL     1       0.718   9.180  18.161  0.00  0.00    +0.000 C 
ATOM     18  C   UNL     1       0.034  10.055  19.210  0.00  0.00    +0.000 C 
BRANCH  16  19
ATOM     19  C   UNL     1       2.607   7.396  18.439  0.00  0.00    +0.000 A 
ATOM     20  C   UNL     1       2.469   6.043  18.784  0.00  0.00    +0.000 A 
ATOM     21  C   UNL     1       3.310   5.081  18.220  0.00  0.00    +0.000 A 
ATOM     22  C   UNL     1       4.294   5.470  17.315  0.00  0.00    +0.000 A 
ATOM     23 CL   UNL     1       5.320   4.285  16.605  0.00  0.00    +0.000 Cl
ATOM     24  C   UNL     1       4.448   6.813  16.973  0.00  0.00    +0.000 A 
ATOM     25  C   UNL     1       3.603   7.778  17.533  0.00  0.00    +0.000 A 
ENDBRANCH  16  19
ENDBRANCH   1  18
BRANCH  10  26
ATOM     26  N   UNL     1      -1.892  12.111  17.959  0.00  0.00    +0.000 N 
ATOM     27  C   UNL     1      -3.087  12.290  18.818  0.00  0.00    +0.000 C 
ATOM     28  C   UNL     1      -3.930  11.009  18.909  0.00  0.00    +0.000 C 
ATOM     29  O   UNL     1      -4.236  10.481  17.608  0.00  0.00    +0.000 OA
ATOM     30  C   UNL     1      -3.017  10.137  16.944  0.00  0.00    +0.000 C 
ATOM     31  C   UNL     1      -2.131  11.367  16.722  0.00  0.00    +0.000 C 
ENDBRANCH  10  26
TORSDOF 3
ENDMDL
MODEL 6
REMARK VINA RESULT:      -7.4      1.339      1.762
REMARK  Name = 
REMARK  4 active torsions:
REMARK  status: ('A' for Active; 'I' for Inactive)
REMARK    1  A    between atoms: C_1  and  C_2
REMARK    2  A    between atoms: C_6  and  C_7
REMARK    3  A    between atoms: C_15  and  C_16
REMARK    4  A    between atoms: C_25  and  N_26
REMARK                            x       y       z     vdW  Elec       q    Type
REMARK                         _______ _______ _______ _____ _____    ______ ____
ROOT
ATOM      1  C   UNL     1      -1.215  11.036  19.235  0.00  0.00    +0.000 A 
ATOM      2  C   UNL     1      -1.439  10.390  18.000  0.00  0.00    +0.000 A 
ATOM      3  C   UNL     1      -2.560  10.635  17.222  0.00  0.00    +0.000 A 
ATOM      4  C   UNL     1      -2.714  10.028  15.960  0.00  0.00    +0.000 A 
ATOM      5  C   UNL     1      -3.842  10.292  15.198  0.00  0.00    +0.000 A 
ATOM      6  C   UNL     1      -4.813  11.149  15.696  0.00  0.00    +0.000 A 
ATOM      7  C   UNL     1      -4.637  11.745  16.959  0.00  0.00    +0.000 A 
ATOM      8  C   UNL     1      -3.513  11.506  17.738  0.00  0.00    +0.000 A 
ATOM      9  N   UNL     1      -3.352  12.094  18.943  0.00  0.00    +0.000 NA
ATOM     10  C   UNL     1      -2.229  11.902  19.693  0.00  0.00    +0.000 A 
ENDROOT
BRANCH   1  18
ATOM     11  C   UNL     1       2.930  12.332  17.917  0.00  0.00    +0.000 C 
ATOM     12  C   UNL     1       1.759  12.295  18.864  0.00  0.00    +0.000 C 
ATOM     13  O   UNL     1       1.198  13.327  19.230  0.00  0.00    +0.000 OA
ATOM     14  N   UNL     1       1.320  11.024  19.205  0.00  0.00    +0.000 N 
ATOM     15  N   UNL     1       2.072   9.910  18.947  0.00  0.00    +0.000 NA
ATOM     16  C   UNL     1       1.504   8.922  19.570  0.00  0.00    +0.000 C 
ATOM     17  C   UNL     1       0.271   9.279  20.354  0.00  0.00    +0.000 C 
ATOM     18  C   UNL     1       0.093  10.748  19.972  0.00  0.00    +0.000 C 
BRANCH  16  19
ATOM     19  C   UNL     1       2.065   7.548  19.571  0.00  0.00    +0.000 A 
ATOM     20  C   UNL     1       1.708   6.675  20.609  0.00  0.00    +0.000 A 
ATOM     21  C   UNL     1       2.177   5.359  20.618  0.00  0.00    +0.000 A 
ATOM     22  C   UNL     1       3.008   4.916  19.592  0.00  0.00    +0.000 A 
ATOM     23 CL   UNL     1       3.573   3.291  19.591  0.00  0.00    +0.000 Cl
ATOM     24  C   UNL     1       3.379   5.779  18.562  0.00  0.00    +0.000 A 
ATOM     25  C   UNL     1       2.906   7.096  18.548  0.00  0.00    +0.000 A 
ENDBRANCH  16  19
ENDBRANCH   1  18
BRANCH  10  26
ATOM     26  N   UNL     1      -2.215  12.567  20.902  0.00  0.00    +0.000 N 
ATOM     27  C   UNL     1      -1.684  13.950  20.954  0.00  0.00    +0.000 C 
ATOM     28  C   UNL     1      -0.611  14.117  22.042  0.00  0.00    +0.000 C 
ATOM     29  O   UNL     1      -1.068  13.633  23.315  0.00  0.00    +0.000 OA
ATOM     30  C   UNL     1      -1.349  12.234  23.212  0.00  0.00    +0.000 C 
ATOM     31  C   UNL     1      -2.474  11.960  22.209  0.00  0.00    +0.000 C 
ENDBRANCH  10  26
TORSDOF 3
ENDMDL
MODEL 7
REMARK VINA RESULT:      -7.2      1.336      1.729
REMARK  Name = 
REMARK  4 active torsions:
REMARK  status: ('A' for Active; 'I' for Inactive)
REMARK    1  A    between atoms: C_1  and  C_2
REMARK    2  A    between atoms: C_6  and  C_7
REMARK    3  A    between atoms: C_15  and  C_16
REMARK    4  A    between atoms: C_25  and  N_26
REMARK                            x       y       z     vdW  Elec       q    Type
REMARK                         _______ _______ _______ _____ _____    ______ ____
ROOT
ATOM      1  C   UNL     1      -1.114  10.892  18.998  0.00  0.00    +0.000 A 
ATOM      2  C   UNL     1      -1.324  10.301  17.733  0.00  0.00    +0.000 A 
ATOM      3  C   UNL     1      -2.458  10.547  16.974  0.00  0.00    +0.000 A 
ATOM      4  C   UNL     1      -2.601   9.999  15.684  0.00  0.00    +0.000 A 
ATOM      5  C   UNL     1      -3.742  10.262  14.942  0.00  0.00    +0.000 A 
ATOM      6  C   UNL     1      -4.737  11.061  15.487  0.00  0.00    +0.000 A 
ATOM      7  C   UNL     1      -4.573  11.599  16.777  0.00  0.00    +0.000 A 
ATOM      8  C   UNL     1      -3.436  11.359  17.538  0.00  0.00    +0.000 A 
ATOM      9  N   UNL     1      -3.287  11.892  18.770  0.00  0.00    +0.000 NA
ATOM     10  C   UNL     1      -2.154  11.700  19.504  0.00  0.00    +0.000 A 
ENDROOT
BRANCH   1  18
ATOM     11  C   UNL     1       2.920  12.684  17.946  0.00  0.00    +0.000 C 
ATOM     12  C   UNL     1       1.749  12.424  18.857  0.00  0.00    +0.000 C 
ATOM     13  O   UNL     1       1.103  13.348  19.350  0.00  0.00    +0.000 OA
ATOM     14  N   UNL     1       1.414  11.087  19.013  0.00  0.00    +0.000 N 
ATOM     15  N   UNL     1       2.256  10.083  18.621  0.00  0.00    +0.000 NA
ATOM     16  C   UNL     1       1.766   8.977  19.093  0.00  0.00    +0.000 C 
ATOM     17  C   UNL     1       0.502   9.124  19.896  0.00  0.00    +0.000 C 
ATOM     18  C   UNL     1       0.207  10.611  19.714  0.00  0.00    +0.000 C 
BRANCH  16  19
ATOM     19  C   UNL     1       2.438   7.665  18.918  0.00  0.00    +0.000 A 
ATOM     20  C   UNL     1       2.247   6.674  19.893  0.00  0.00    +0.000 A 
ATOM     21  C   UNL     1       2.823   5.411  19.738  0.00  0.00    +0.000 A 
ATOM     22  C   UNL     1       3.595   5.139  18.612  0.00  0.00    +0.000 A 
ATOM     23 CL   UNL     1       4.292   3.578  18.410  0.00  0.00    +0.000 Cl
ATOM     24  C   UNL     1       3.802   6.120  17.643  0.00  0.00    +0.000 A 
ATOM     25  C   UNL     1       3.221   7.384  17.793  0.00  0.00    +0.000 A 
ENDBRANCH  16  19
ENDBRANCH   1  18
BRANCH  10  26
ATOM     26  N   UNL     1      -2.153  12.304  20.745  0.00  0.00    +0.000 N 
ATOM     27  C   UNL     1      -1.124  11.908  21.735  0.00  0.00    +0.000 C 
ATOM     28  C   UNL     1      -1.742  11.518  23.087  0.00  0.00    +0.000 C 
ATOM     29  O   UNL     1      -2.640  12.530  23.571  0.00  0.00    +0.000 OA
ATOM     30  C   UNL     1      -3.719  12.682  22.643  0.00  0.00    +0.000 C 
ATOM     31  C   UNL     1      -3.218  13.156  21.275  0.00  0.00    +0.000 C 
ENDBRANCH  10  26
TORSDOF 3
ENDMDL
MODEL 8
REMARK VINA RESULT:      -7.1      2.493      5.056
REMARK  Name = 
REMARK  4 active torsions:
REMARK  status: ('A' for Active; 'I' for Inactive)
REMARK    1  A    between atoms: C_1  and  C_2
REMARK    2  A    between atoms: C_6  and  C_7
REMARK    3  A    between atoms: C_15  and  C_16
REMARK    4  A    between atoms: C_25  and  N_26
REMARK                            x       y       z     vdW  Elec       q    Type
REMARK                         _______ _______ _______ _____ _____    ______ ____
ROOT
ATOM      1  C   UNL     1       0.870  11.726  18.652  0.00  0.00    +0.000 A 
ATOM      2  C   UNL     1       2.251  12.017  18.584  0.00  0.00    +0.000 A 
ATOM      3  C   UNL     1       2.737  13.313  18.517  0.00  0.00    +0.000 A 
ATOM      4  C   UNL     1       4.122  13.570  18.526  0.00  0.00    +0.000 A 
ATOM      5  C   UNL     1       4.586  14.876  18.463  0.00  0.00    +0.000 A 
ATOM      6  C   UNL     1       3.671  15.917  18.383  0.00  0.00    +0.000 A 
ATOM      7  C   UNL     1       2.292  15.638  18.378  0.00  0.00    +0.000 A 
ATOM      8  C   UNL     1       1.802  14.340  18.450  0.00  0.00    +0.000 A 
ATOM      9  N   UNL     1       0.475  14.088  18.455  0.00  0.00    +0.000 NA
ATOM     10  C   UNL     1      -0.015  12.821  18.573  0.00  0.00    +0.000 A 
ENDROOT
BRANCH   1  18
ATOM     11  C   UNL     1       0.923   9.314  22.495  0.00  0.00    +0.000 C 
ATOM     12  C   UNL     1       0.256   9.947  21.302  0.00  0.00    +0.000 C 
ATOM     13  O   UNL     1      -0.668  10.748  21.435  0.00  0.00    +0.000 OA
ATOM     14  N   UNL     1       0.823   9.630  20.077  0.00  0.00    +0.000 N 
ATOM     15  N   UNL     1       1.711   8.598  19.940  0.00  0.00    +0.000 NA
ATOM     16  C   UNL     1       1.884   8.417  18.666  0.00  0.00    +0.000 C 
ATOM     17  C   UNL     1       1.091   9.333  17.774  0.00  0.00    +0.000 C 
ATOM     18  C   UNL     1       0.449  10.264  18.800  0.00  0.00    +0.000 C 
BRANCH  16  19
ATOM     19  C   UNL     1       2.746   7.340  18.119  0.00  0.00    +0.000 A 
ATOM     20  C   UNL     1       2.366   6.005  18.320  0.00  0.00    +0.000 A 
ATOM     21  C   UNL     1       3.126   4.966  17.779  0.00  0.00    +0.000 A 
ATOM     22  C   UNL     1       4.270   5.259  17.041  0.00  0.00    +0.000 A 
ATOM     23 CL   UNL     1       5.198   3.981  16.359  0.00  0.00    +0.000 Cl
ATOM     24  C   UNL     1       4.664   6.582  16.846  0.00  0.00    +0.000 A 
ATOM     25  C   UNL     1       3.901   7.625  17.382  0.00  0.00    +0.000 A 
ENDBRANCH  16  19
ENDBRANCH   1  18
BRANCH  10  26
ATOM     26  N   UNL     1      -1.392  12.725  18.557  0.00  0.00    +0.000 N 
ATOM     27  C   UNL     1      -2.167  13.362  19.648  0.00  0.00    +0.000 C 
ATOM     28  C   UNL     1      -3.154  12.384  20.304  0.00  0.00    +0.000 C 
ATOM     29  O   UNL     1      -3.977  11.726  19.328  0.00  0.00    +0.000 OA
ATOM     30  C   UNL     1      -3.145  10.960  18.452  0.00  0.00    +0.000 C 
ATOM     31  C   UNL     1      -2.173  11.856  17.676  0.00  0.00    +0.000 C 
ENDBRANCH  10  26
TORSDOF 3
ENDMDL
MODEL 9
REMARK VINA RESULT:      -7.1      3.144      6.036
REMARK  Name = 
REMARK  4 active torsions:
REMARK  status: ('A' for Active; 'I' for Inactive)
REMARK    1  A    between atoms: C_1  and  C_2
REMARK    2  A    between atoms: C_6  and  C_7
REMARK    3  A    between atoms: C_15  and  C_16
REMARK    4  A    between atoms: C_25  and  N_26
REMARK                            x       y       z     vdW  Elec       q    Type
REMARK                         _______ _______ _______ _____ _____    ______ ____
ROOT
ATOM      1  C   UNL     1      -0.280  13.294  21.675  0.00  0.00    +0.000 A 
ATOM      2  C   UNL     1       0.944  13.221  20.974  0.00  0.00    +0.000 A 
ATOM      3  C   UNL     1       1.962  14.145  21.154  0.00  0.00    +0.000 A 
ATOM      4  C   UNL     1       3.199  13.999  20.494  0.00  0.00    +0.000 A 
ATOM      5  C   UNL     1       4.204  14.934  20.693  0.00  0.00    +0.000 A 
ATOM      6  C   UNL     1       3.973  16.010  21.538  0.00  0.00    +0.000 A 
ATOM      7  C   UNL     1       2.731  16.134  22.188  0.00  0.00    +0.000 A 
ATOM      8  C   UNL     1       1.711  15.208  22.014  0.00  0.00    +0.000 A 
ATOM      9  N   UNL     1       0.529  15.334  22.654  0.00  0.00    +0.000 NA
ATOM     10  C   UNL     1      -0.461  14.404  22.526  0.00  0.00    +0.000 A 
ENDROOT
BRANCH   1  18
ATOM     11  C   UNL     1       0.592   8.841  21.682  0.00  0.00    +0.000 C 
ATOM     12  C   UNL     1      -0.078  10.091  22.190  0.00  0.00    +0.000 C 
ATOM     13  O   UNL     1       0.031  10.444  23.364  0.00  0.00    +0.000 OA
ATOM     14  N   UNL     1      -0.731  10.840  21.223  0.00  0.00    +0.000 N 
ATOM     15  N   UNL     1      -1.003  10.334  19.981  0.00  0.00    +0.000 NA
ATOM     16  C   UNL     1      -1.799  11.177  19.398  0.00  0.00    +0.000 C 
ATOM     17  C   UNL     1      -2.175  12.380  20.219  0.00  0.00    +0.000 C 
ATOM     18  C   UNL     1      -1.302  12.179  21.456  0.00  0.00    +0.000 C 
BRANCH  16  19
ATOM     19  C   UNL     1      -2.361  10.943  18.044  0.00  0.00    +0.000 A 
ATOM     20  C   UNL     1      -1.723  10.023  17.200  0.00  0.00    +0.000 A 
ATOM     21  C   UNL     1      -2.250   9.740  15.937  0.00  0.00    +0.000 A 
ATOM     22  C   UNL     1      -3.411  10.382  15.515  0.00  0.00    +0.000 A 
ATOM     23 CL   UNL     1      -4.072  10.023  13.967  0.00  0.00    +0.000 Cl
ATOM     24  C   UNL     1      -4.046  11.308  16.341  0.00  0.00    +0.000 A 
ATOM     25  C   UNL     1      -3.523  11.589  17.609  0.00  0.00    +0.000 A 
ENDBRANCH  16  19
ENDBRANCH   1  18
BRANCH  10  26
ATOM     26  N   UNL     1      -1.612  14.675  23.238  0.00  0.00    +0.000 N 
ATOM     27  C   UNL     1      -2.764  15.284  22.532  0.00  0.00    +0.000 C 
ATOM     28  C   UNL     1      -3.279  16.544  23.245  0.00  0.00    +0.000 C 
ATOM     29  O   UNL     1      -3.527  16.301  24.639  0.00  0.00    +0.000 OA
ATOM     30  C   UNL     1      -2.302  15.928  25.275  0.00  0.00    +0.000 C 
ATOM     31  C   UNL     1      -1.742  14.625  24.694  0.00  0.00    +0.000 C 
ENDBRANCH  10  26
TORSDOF 3
ENDMDL
