MODEL 1
REMARK VINA RESULT:      -7.2      0.000      0.000
REMARK  Name = 
REMARK  9 active torsions:
REMARK  status: ('A' for Active; 'I' for Inactive)
REMARK    1  A    between atoms: N_9  and  C_10
REMARK    2  A    between atoms: C_10  and  C_11
REMARK    3  A    between atoms: C_11  and  C_12
REMARK    4  A    between atoms: C_11  and  O_14
REMARK    5  A    between atoms: C_12  and  O_13
REMARK    6  A    between atoms: O_14  and  C_15
REMARK    7  A    between atoms: C_15  and  P_16
REMARK    8  A    between atoms: P_16  and  O_18
REMARK    9  A    between atoms: P_16  and  O_19
REMARK                            x       y       z     vdW  Elec       q    Type
REMARK                         _______ _______ _______ _____ _____    ______ ____
ROOT
ATOM      1  N   UNL     1       8.430   5.239  20.421  0.00  0.00    +0.000 N 
ATOM      2  C   UNL     1       7.793   5.692  19.284  0.00  0.00    +0.000 A 
ATOM      3  N   UNL     1       8.184   6.902  18.836  0.00  0.00    +0.000 NA
ATOM      4  C   UNL     1       7.584   7.435  17.743  0.00  0.00    +0.000 A 
ATOM      5  N   UNL     1       8.050   8.651  17.269  0.00  0.00    +0.000 N 
ATOM      6  C   UNL     1       6.536   6.723  17.158  0.00  0.00    +0.000 A 
ATOM      7  N   UNL     1       5.705   6.969  16.098  0.00  0.00    +0.000 NA
ATOM      8  N   UNL     1       4.908   5.918  15.948  0.00  0.00    +0.000 NA
ATOM      9  N   UNL     1       5.256   5.009  16.889  0.00  0.00    +0.000 N 
ATOM     10  C   UNL     1       6.239   5.491  17.707  0.00  0.00    +0.000 A 
ATOM     11  N   UNL     1       6.826   4.913  18.768  0.00  0.00    +0.000 NA
ATOM     12  H   UNL     1       8.842   6.024  20.911  0.00  0.00    +0.000 HD
ATOM     13  H   UNL     1       7.830   4.631  20.954  0.00  0.00    +0.000 HD
ATOM     14  H   UNL     1       8.596   9.172  17.942  0.00  0.00    +0.000 HD
ATOM     15  H   UNL     1       7.432   9.157  16.648  0.00  0.00    +0.000 HD
ENDROOT
BRANCH   9  16
ATOM     16  C   UNL     1       4.779   3.656  16.771  0.00  0.00    +0.000 C 
BRANCH  16  17
ATOM     17  C   UNL     1       3.429   3.344  17.428  0.00  0.00    +0.000 C 
BRANCH  17  18
ATOM     18  C   UNL     1       3.478   1.998  18.171  0.00  0.00    +0.000 C 
BRANCH  18  19
ATOM     19  O   UNL     1       2.174   1.419  18.223  0.00  0.00    +0.000 OA
ATOM     20  H   UNL     1       1.538   2.151  18.147  0.00  0.00    +0.000 HD
ENDBRANCH  18  19
ENDBRANCH  17  18
BRANCH  17  21
ATOM     21  O   UNL     1       3.082   4.364  18.413  0.00  0.00    +0.000 OA
BRANCH  21  22
ATOM     22  C   UNL     1       3.344   3.933  19.769  0.00  0.00    +0.000 C 
BRANCH  22  23
ATOM     23  P   UNL     1       1.883   4.211  20.781  0.00  0.00    +0.000 P 
ATOM     24  O   UNL     1       1.479   5.632  20.986  0.00  0.00    +0.000 OA
BRANCH  23  25
ATOM     25  O   UNL     1       0.746   3.277  20.141  0.00  0.00    +0.000 OA
ATOM     26  H   UNL     1       0.758   3.313  19.164  0.00  0.00    +0.000 HD
ENDBRANCH  23  25
BRANCH  23  27
ATOM     27  O   UNL     1       2.148   3.433  22.158  0.00  0.00    +0.000 OA
ATOM     28  H   UNL     1       2.893   2.807  22.062  0.00  0.00    +0.000 HD
ENDBRANCH  23  27
ENDBRANCH  22  23
ENDBRANCH  21  22
ENDBRANCH  17  21
ENDBRANCH  16  17
ENDBRANCH   9  16
TORSDOF 9
ENDMDL
MODEL 2
REMARK VINA RESULT:      -7.0      1.624      2.855
REMARK  Name = 
REMARK  9 active torsions:
REMARK  status: ('A' for Active; 'I' for Inactive)
REMARK    1  A    between atoms: N_9  and  C_10
REMARK    2  A    between atoms: C_10  and  C_11
REMARK    3  A    between atoms: C_11  and  C_12
REMARK    4  A    between atoms: C_11  and  O_14
REMARK    5  A    between atoms: C_12  and  O_13
REMARK    6  A    between atoms: O_14  and  C_15
REMARK    7  A    between atoms: C_15  and  P_16
REMARK    8  A    between atoms: P_16  and  O_18
REMARK    9  A    between atoms: P_16  and  O_19
REMARK                            x       y       z     vdW  Elec       q    Type
REMARK                         _______ _______ _______ _____ _____    ______ ____
ROOT
ATOM      1  N   UNL     1       6.692   4.908  14.109  0.00  0.00    +0.000 N 
ATOM      2  C   UNL     1       6.393   5.095  15.443  0.00  0.00    +0.000 A 
ATOM      3  N   UNL     1       7.271   5.843  16.141  0.00  0.00    +0.000 NA
ATOM      4  C   UNL     1       7.069   6.047  17.466  0.00  0.00    +0.000 A 
ATOM      5  N   UNL     1       7.953   6.871  18.143  0.00  0.00    +0.000 N 
ATOM      6  C   UNL     1       5.978   5.418  18.066  0.00  0.00    +0.000 A 
ATOM      7  N   UNL     1       5.505   5.373  19.351  0.00  0.00    +0.000 NA
ATOM      8  N   UNL     1       4.389   4.655  19.353  0.00  0.00    +0.000 NA
ATOM      9  N   UNL     1       4.149   4.275  18.076  0.00  0.00    +0.000 N 
ATOM     10  C   UNL     1       5.148   4.687  17.239  0.00  0.00    +0.000 A 
ATOM     11  N   UNL     1       5.294   4.483  15.920  0.00  0.00    +0.000 NA
ATOM     12  H   UNL     1       7.679   5.083  13.957  0.00  0.00    +0.000 HD
ATOM     13  H   UNL     1       6.327   4.030  13.775  0.00  0.00    +0.000 HD
ATOM     14  H   UNL     1       8.831   7.015  17.662  0.00  0.00    +0.000 HD
ATOM     15  H   UNL     1       7.958   6.792  19.151  0.00  0.00    +0.000 HD
ENDROOT
BRANCH   9  16
ATOM     16  C   UNL     1       2.853   3.754  17.727  0.00  0.00    +0.000 C 
BRANCH  16  17
ATOM     17  C   UNL     1       2.678   2.234  17.818  0.00  0.00    +0.000 C 
BRANCH  17  18
ATOM     18  C   UNL     1       4.043   1.523  17.822  0.00  0.00    +0.000 C 
BRANCH  18  19
ATOM     19  O   UNL     1       4.473   1.295  19.163  0.00  0.00    +0.000 OA
ATOM     20  H   UNL     1       5.401   1.006  19.116  0.00  0.00    +0.000 HD
ENDBRANCH  18  19
ENDBRANCH  17  18
BRANCH  17  21
ATOM     21  O   UNL     1       1.998   1.860  19.054  0.00  0.00    +0.000 OA
BRANCH  21  22
ATOM     22  C   UNL     1       1.365   2.989  19.698  0.00  0.00    +0.000 C 
BRANCH  22  23
ATOM     23  P   UNL     1       1.970   3.135  21.387  0.00  0.00    +0.000 P 
ATOM     24  O   UNL     1       1.080   2.605  22.458  0.00  0.00    +0.000 OA
BRANCH  23  25
ATOM     25  O   UNL     1       3.443   2.496  21.361  0.00  0.00    +0.000 OA
ATOM     26  H   UNL     1       3.923   2.732  20.542  0.00  0.00    +0.000 HD
ENDBRANCH  23  25
BRANCH  23  27
ATOM     27  O   UNL     1       2.336   4.684  21.590  0.00  0.00    +0.000 OA
ATOM     28  H   UNL     1       2.007   5.216  20.839  0.00  0.00    +0.000 HD
ENDBRANCH  23  27
ENDBRANCH  22  23
ENDBRANCH  21  22
ENDBRANCH  17  21
ENDBRANCH  16  17
ENDBRANCH   9  16
TORSDOF 9
ENDMDL
MODEL 3
REMARK VINA RESULT:      -7.0      0.561      1.164
REMARK  Name = 
REMARK  9 active torsions:
REMARK  status: ('A' for Active; 'I' for Inactive)
REMARK    1  A    between atoms: N_9  and  C_10
REMARK    2  A    between atoms: C_10  and  C_11
REMARK    3  A    between atoms: C_11  and  C_12
REMARK    4  A    between atoms: C_11  and  O_14
REMARK    5  A    between atoms: C_12  and  O_13
REMARK    6  A    between atoms: O_14  and  C_15
REMARK    7  A    between atoms: C_15  and  P_16
REMARK    8  A    between atoms: P_16  and  O_18
REMARK    9  A    between atoms: P_16  and  O_19
REMARK                            x       y       z     vdW  Elec       q    Type
REMARK                         _______ _______ _______ _____ _____    ______ ____
ROOT
ATOM      1  N   UNL     1       8.476   5.252  20.449  0.00  0.00    +0.000 N 
ATOM      2  C   UNL     1       7.784   5.640  19.319  0.00  0.00    +0.000 A 
ATOM      3  N   UNL     1       8.185   6.796  18.755  0.00  0.00    +0.000 NA
ATOM      4  C   UNL     1       7.535   7.266  17.661  0.00  0.00    +0.000 A 
ATOM      5  N   UNL     1       8.009   8.423  17.065  0.00  0.00    +0.000 N 
ATOM      6  C   UNL     1       6.431   6.550  17.198  0.00  0.00    +0.000 A 
ATOM      7  N   UNL     1       5.543   6.744  16.173  0.00  0.00    +0.000 NA
ATOM      8  N   UNL     1       4.705   5.715  16.155  0.00  0.00    +0.000 NA
ATOM      9  N   UNL     1       5.081   4.869  17.142  0.00  0.00    +0.000 N 
ATOM     10  C   UNL     1       6.129   5.375  17.859  0.00  0.00    +0.000 A 
ATOM     11  N   UNL     1       6.762   4.859  18.925  0.00  0.00    +0.000 NA
ATOM     12  H   UNL     1       8.943   6.056  20.850  0.00  0.00    +0.000 HD
ATOM     13  H   UNL     1       7.891   4.709  21.063  0.00  0.00    +0.000 HD
ATOM     14  H   UNL     1       8.613   8.974  17.661  0.00  0.00    +0.000 HD
ATOM     15  H   UNL     1       7.370   8.902  16.445  0.00  0.00    +0.000 HD
ENDROOT
BRANCH   9  16
ATOM     16  C   UNL     1       4.554   3.529  17.160  0.00  0.00    +0.000 C 
BRANCH  16  17
ATOM     17  C   UNL     1       3.036   3.391  17.325  0.00  0.00    +0.000 C 
BRANCH  17  18
ATOM     18  C   UNL     1       2.650   1.941  17.662  0.00  0.00    +0.000 C 
BRANCH  18  19
ATOM     19  O   UNL     1       3.824   1.152  17.852  0.00  0.00    +0.000 OA
ATOM     20  H   UNL     1       3.577   0.417  18.440  0.00  0.00    +0.000 HD
ENDBRANCH  18  19
ENDBRANCH  17  18
BRANCH  17  21
ATOM     21  O   UNL     1       2.553   4.228  18.418  0.00  0.00    +0.000 OA
BRANCH  21  22
ATOM     22  C   UNL     1       3.212   3.934  19.672  0.00  0.00    +0.000 C 
BRANCH  22  23
ATOM     23  P   UNL     1       2.048   4.143  21.027  0.00  0.00    +0.000 P 
ATOM     24  O   UNL     1       2.208   3.220  22.187  0.00  0.00    +0.000 OA
BRANCH  23  25
ATOM     25  O   UNL     1       2.112   5.703  21.398  0.00  0.00    +0.000 OA
ATOM     26  H   UNL     1       2.401   6.243  20.635  0.00  0.00    +0.000 HD
ENDBRANCH  23  25
BRANCH  23  27
ATOM     27  O   UNL     1       0.588   4.068  20.367  0.00  0.00    +0.000 OA
ATOM     28  H   UNL     1       0.224   4.965  20.233  0.00  0.00    +0.000 HD
ENDBRANCH  23  27
ENDBRANCH  22  23
ENDBRANCH  21  22
ENDBRANCH  17  21
ENDBRANCH  16  17
ENDBRANCH   9  16
TORSDOF 9
ENDMDL
MODEL 4
REMARK VINA RESULT:      -6.9      1.537      1.881
REMARK  Name = 
REMARK  9 active torsions:
REMARK  status: ('A' for Active; 'I' for Inactive)
REMARK    1  A    between atoms: N_9  and  C_10
REMARK    2  A    between atoms: C_10  and  C_11
REMARK    3  A    between atoms: C_11  and  C_12
REMARK    4  A    between atoms: C_11  and  O_14
REMARK    5  A    between atoms: C_12  and  O_13
REMARK    6  A    between atoms: O_14  and  C_15
REMARK    7  A    between atoms: C_15  and  P_16
REMARK    8  A    between atoms: P_16  and  O_18
REMARK    9  A    between atoms: P_16  and  O_19
REMARK                            x       y       z     vdW  Elec       q    Type
REMARK                         _______ _______ _______ _____ _____    ______ ____
ROOT
ATOM      1  N   UNL     1       8.390   5.259  20.515  0.00  0.00    +0.000 N 
ATOM      2  C   UNL     1       7.763   5.681  19.359  0.00  0.00    +0.000 A 
ATOM      3  N   UNL     1       8.124   6.898  18.908  0.00  0.00    +0.000 NA
ATOM      4  C   UNL     1       7.532   7.402  17.797  0.00  0.00    +0.000 A 
ATOM      5  N   UNL     1       7.968   8.628  17.322  0.00  0.00    +0.000 N 
ATOM      6  C   UNL     1       6.521   6.650  17.197  0.00  0.00    +0.000 A 
ATOM      7  N   UNL     1       5.706   6.859  16.116  0.00  0.00    +0.000 NA
ATOM      8  N   UNL     1       4.948   5.781  15.959  0.00  0.00    +0.000 NA
ATOM      9  N   UNL     1       5.304   4.893  16.916  0.00  0.00    +0.000 N 
ATOM     10  C   UNL     1       6.252   5.414  17.750  0.00  0.00    +0.000 A 
ATOM     11  N   UNL     1       6.834   4.865  18.830  0.00  0.00    +0.000 NA
ATOM     12  H   UNL     1       8.765   6.062  21.006  0.00  0.00    +0.000 HD
ATOM     13  H   UNL     1       7.798   4.636  21.040  0.00  0.00    +0.000 HD
ATOM     14  H   UNL     1       8.482   9.173  18.001  0.00  0.00    +0.000 HD
ATOM     15  H   UNL     1       7.348   9.107  16.683  0.00  0.00    +0.000 HD
ENDROOT
BRANCH   9  16
ATOM     16  C   UNL     1       4.874   3.523  16.801  0.00  0.00    +0.000 C 
BRANCH  16  17
ATOM     17  C   UNL     1       3.553   3.159  17.487  0.00  0.00    +0.000 C 
BRANCH  17  18
ATOM     18  C   UNL     1       3.784   2.785  18.962  0.00  0.00    +0.000 C 
BRANCH  18  19
ATOM     19  O   UNL     1       5.122   2.322  19.146  0.00  0.00    +0.000 OA
ATOM     20  H   UNL     1       5.702   3.099  19.072  0.00  0.00    +0.000 HD
ENDBRANCH  18  19
ENDBRANCH  17  18
BRANCH  17  21
ATOM     21  O   UNL     1       2.630   4.289  17.473  0.00  0.00    +0.000 OA
BRANCH  21  22
ATOM     22  C   UNL     1       2.082   4.572  18.782  0.00  0.00    +0.000 C 
BRANCH  22  23
ATOM     23  P   UNL     1       2.631   6.197  19.326  0.00  0.00    +0.000 P 
ATOM     24  O   UNL     1       1.700   6.947  20.215  0.00  0.00    +0.000 OA
BRANCH  23  25
ATOM     25  O   UNL     1       4.097   5.962  19.934  0.00  0.00    +0.000 OA
ATOM     26  H   UNL     1       4.147   6.239  20.871  0.00  0.00    +0.000 HD
ENDBRANCH  23  25
BRANCH  23  27
ATOM     27  O   UNL     1       3.004   7.004  17.990  0.00  0.00    +0.000 OA
ATOM     28  H   UNL     1       2.380   6.785  17.270  0.00  0.00    +0.000 HD
ENDBRANCH  23  27
ENDBRANCH  22  23
ENDBRANCH  21  22
ENDBRANCH  17  21
ENDBRANCH  16  17
ENDBRANCH   9  16
TORSDOF 9
ENDMDL
MODEL 5
REMARK VINA RESULT:      -6.8      3.981      5.748
REMARK  Name = 
REMARK  9 active torsions:
REMARK  status: ('A' for Active; 'I' for Inactive)
REMARK    1  A    between atoms: N_9  and  C_10
REMARK    2  A    between atoms: C_10  and  C_11
REMARK    3  A    between atoms: C_11  and  C_12
REMARK    4  A    between atoms: C_11  and  O_14
REMARK    5  A    between atoms: C_12  and  O_13
REMARK    6  A    between atoms: O_14  and  C_15
REMARK    7  A    between atoms: C_15  and  P_16
REMARK    8  A    between atoms: P_16  and  O_18
REMARK    9  A    between atoms: P_16  and  O_19
REMARK                            x       y       z     vdW  Elec       q    Type
REMARK                         _______ _______ _______ _____ _____    ______ ____
ROOT
ATOM      1  N   UNL     1       2.057   6.509  20.938  0.00  0.00    +0.000 N 
ATOM      2  C   UNL     1       2.156   5.471  20.035  0.00  0.00    +0.000 A 
ATOM      3  N   UNL     1       1.253   4.481  20.180  0.00  0.00    +0.000 NA
ATOM      4  C   UNL     1       1.302   3.406  19.354  0.00  0.00    +0.000 A 
ATOM      5  N   UNL     1       0.323   2.434  19.486  0.00  0.00    +0.000 N 
ATOM      6  C   UNL     1       2.333   3.348  18.416  0.00  0.00    +0.000 A 
ATOM      7  N   UNL     1       2.700   2.423  17.474  0.00  0.00    +0.000 NA
ATOM      8  N   UNL     1       3.746   2.903  16.813  0.00  0.00    +0.000 NA
ATOM      9  N   UNL     1       4.016   4.130  17.318  0.00  0.00    +0.000 N 
ATOM     10  C   UNL     1       3.188   4.431  18.362  0.00  0.00    +0.000 A 
ATOM     11  N   UNL     1       3.158   5.526  19.139  0.00  0.00    +0.000 NA
ATOM     12  H   UNL     1       1.542   6.199  21.754  0.00  0.00    +0.000 HD
ATOM     13  H   UNL     1       2.956   6.935  21.100  0.00  0.00    +0.000 HD
ATOM     14  H   UNL     1      -0.168   2.464  20.370  0.00  0.00    +0.000 HD
ATOM     15  H   UNL     1       0.526   1.534  19.072  0.00  0.00    +0.000 HD
ENDROOT
BRANCH   9  16
ATOM     16  C   UNL     1       4.893   5.012  16.593  0.00  0.00    +0.000 C 
BRANCH  16  17
ATOM     17  C   UNL     1       6.158   4.384  15.997  0.00  0.00    +0.000 C 
BRANCH  17  18
ATOM     18  C   UNL     1       6.174   4.529  14.465  0.00  0.00    +0.000 C 
BRANCH  18  19
ATOM     19  O   UNL     1       6.238   3.242  13.851  0.00  0.00    +0.000 OA
ATOM     20  H   UNL     1       5.387   3.102  13.402  0.00  0.00    +0.000 HD
ENDBRANCH  18  19
ENDBRANCH  17  18
BRANCH  17  21
ATOM     21  O   UNL     1       7.356   5.047  16.502  0.00  0.00    +0.000 OA
BRANCH  21  22
ATOM     22  C   UNL     1       7.801   4.496  17.763  0.00  0.00    +0.000 C 
BRANCH  22  23
ATOM     23  P   UNL     1       7.706   5.763  19.039  0.00  0.00    +0.000 P 
ATOM     24  O   UNL     1       7.965   7.164  18.601  0.00  0.00    +0.000 OA
BRANCH  23  25
ATOM     25  O   UNL     1       6.288   5.533  19.753  0.00  0.00    +0.000 OA
ATOM     26  H   UNL     1       5.629   5.159  19.134  0.00  0.00    +0.000 HD
ENDBRANCH  23  25
BRANCH  23  27
ATOM     27  O   UNL     1       8.694   5.282  20.208  0.00  0.00    +0.000 OA
ATOM     28  H   UNL     1       8.551   5.811  21.018  0.00  0.00    +0.000 HD
ENDBRANCH  23  27
ENDBRANCH  22  23
ENDBRANCH  21  22
ENDBRANCH  17  21
ENDBRANCH  16  17
ENDBRANCH   9  16
TORSDOF 9
ENDMDL
MODEL 6
REMARK VINA RESULT:      -6.8      3.967      5.759
REMARK  Name = 
REMARK  9 active torsions:
REMARK  status: ('A' for Active; 'I' for Inactive)
REMARK    1  A    between atoms: N_9  and  C_10
REMARK    2  A    between atoms: C_10  and  C_11
REMARK    3  A    between atoms: C_11  and  C_12
REMARK    4  A    between atoms: C_11  and  O_14
REMARK    5  A    between atoms: C_12  and  O_13
REMARK    6  A    between atoms: O_14  and  C_15
REMARK    7  A    between atoms: C_15  and  P_16
REMARK    8  A    between atoms: P_16  and  O_18
REMARK    9  A    between atoms: P_16  and  O_19
REMARK                            x       y       z     vdW  Elec       q    Type
REMARK                         _______ _______ _______ _____ _____    ______ ____
ROOT
ATOM      1  N   UNL     1       2.332   7.207  20.138  0.00  0.00    +0.000 N 
ATOM      2  C   UNL     1       2.370   5.867  19.808  0.00  0.00    +0.000 A 
ATOM      3  N   UNL     1       1.685   5.043  20.625  0.00  0.00    +0.000 NA
ATOM      4  C   UNL     1       1.698   3.707  20.391  0.00  0.00    +0.000 A 
ATOM      5  N   UNL     1       0.934   2.892  21.210  0.00  0.00    +0.000 N 
ATOM      6  C   UNL     1       2.478   3.236  19.335  0.00  0.00    +0.000 A 
ATOM      7  N   UNL     1       2.748   1.985  18.846  0.00  0.00    +0.000 NA
ATOM      8  N   UNL     1       3.526   2.119  17.779  0.00  0.00    +0.000 NA
ATOM      9  N   UNL     1       3.721   3.445  17.584  0.00  0.00    +0.000 N 
ATOM     10  C   UNL     1       3.124   4.184  18.566  0.00  0.00    +0.000 A 
ATOM     11  N   UNL     1       3.115   5.516  18.745  0.00  0.00    +0.000 NA
ATOM     12  H   UNL     1       2.075   7.306  21.113  0.00  0.00    +0.000 HD
ATOM     13  H   UNL     1       3.169   7.678  19.836  0.00  0.00    +0.000 HD
ATOM     14  H   UNL     1       0.665   3.324  22.084  0.00  0.00    +0.000 HD
ATOM     15  H   UNL     1       1.167   1.907  21.205  0.00  0.00    +0.000 HD
ENDROOT
BRANCH   9  16
ATOM     16  C   UNL     1       4.261   3.899  16.330  0.00  0.00    +0.000 C 
BRANCH  16  17
ATOM     17  C   UNL     1       5.779   4.105  16.272  0.00  0.00    +0.000 C 
BRANCH  17  18
ATOM     18  C   UNL     1       6.124   5.512  15.754  0.00  0.00    +0.000 C 
BRANCH  18  19
ATOM     19  O   UNL     1       6.818   5.421  14.511  0.00  0.00    +0.000 OA
ATOM     20  H   UNL     1       6.159   5.178  13.837  0.00  0.00    +0.000 HD
ENDBRANCH  18  19
ENDBRANCH  17  18
BRANCH  17  21
ATOM     21  O   UNL     1       6.373   3.981  17.599  0.00  0.00    +0.000 OA
BRANCH  21  22
ATOM     22  C   UNL     1       7.680   4.594  17.679  0.00  0.00    +0.000 C 
BRANCH  22  23
ATOM     23  P   UNL     1       7.695   5.808  19.007  0.00  0.00    +0.000 P 
ATOM     24  O   UNL     1       8.113   7.190  18.637  0.00  0.00    +0.000 OA
BRANCH  23  25
ATOM     25  O   UNL     1       6.244   5.705  19.685  0.00  0.00    +0.000 OA
ATOM     26  H   UNL     1       6.218   6.160  20.550  0.00  0.00    +0.000 HD
ENDBRANCH  23  25
BRANCH  23  27
ATOM     27  O   UNL     1       8.599   5.174  20.171  0.00  0.00    +0.000 OA
ATOM     28  H   UNL     1       9.472   4.907  19.822  0.00  0.00    +0.000 HD
ENDBRANCH  23  27
ENDBRANCH  22  23
ENDBRANCH  21  22
ENDBRANCH  17  21
ENDBRANCH  16  17
ENDBRANCH   9  16
TORSDOF 9
ENDMDL
MODEL 7
REMARK VINA RESULT:      -6.8      1.594      2.873
REMARK  Name = 
REMARK  9 active torsions:
REMARK  status: ('A' for Active; 'I' for Inactive)
REMARK    1  A    between atoms: N_9  and  C_10
REMARK    2  A    between atoms: C_10  and  C_11
REMARK    3  A    between atoms: C_11  and  C_12
REMARK    4  A    between atoms: C_11  and  O_14
REMARK    5  A    between atoms: C_12  and  O_13
REMARK    6  A    between atoms: O_14  and  C_15
REMARK    7  A    between atoms: C_15  and  P_16
REMARK    8  A    between atoms: P_16  and  O_18
REMARK    9  A    between atoms: P_16  and  O_19
REMARK                            x       y       z     vdW  Elec       q    Type
REMARK                         _______ _______ _______ _____ _____    ______ ____
ROOT
ATOM      1  N   UNL     1       6.812   5.115  13.999  0.00  0.00    +0.000 N 
ATOM      2  C   UNL     1       6.640   5.112  15.368  0.00  0.00    +0.000 A 
ATOM      3  N   UNL     1       7.330   6.050  16.046  0.00  0.00    +0.000 NA
ATOM      4  C   UNL     1       7.243   6.096  17.399  0.00  0.00    +0.000 A 
ATOM      5  N   UNL     1       7.914   7.109  18.064  0.00  0.00    +0.000 N 
ATOM      6  C   UNL     1       6.477   5.121  18.039  0.00  0.00    +0.000 A 
ATOM      7  N   UNL     1       6.203   4.848  19.353  0.00  0.00    +0.000 NA
ATOM      8  N   UNL     1       5.366   3.819  19.394  0.00  0.00    +0.000 NA
ATOM      9  N   UNL     1       5.095   3.467  18.115  0.00  0.00    +0.000 N 
ATOM     10  C   UNL     1       5.811   4.222  17.229  0.00  0.00    +0.000 A 
ATOM     11  N   UNL     1       5.846   4.160  15.887  0.00  0.00    +0.000 NA
ATOM     12  H   UNL     1       7.673   5.598  13.768  0.00  0.00    +0.000 HD
ATOM     13  H   UNL     1       6.691   4.190  13.617  0.00  0.00    +0.000 HD
ATOM     14  H   UNL     1       8.641   7.550  17.516  0.00  0.00    +0.000 HD
ATOM     15  H   UNL     1       8.068   6.970  19.054  0.00  0.00    +0.000 HD
ENDROOT
BRANCH   9  16
ATOM     16  C   UNL     1       3.984   2.592  17.846  0.00  0.00    +0.000 C 
BRANCH  16  17
ATOM     17  C   UNL     1       2.654   3.263  17.486  0.00  0.00    +0.000 C 
BRANCH  17  18
ATOM     18  C   UNL     1       1.482   2.591  18.223  0.00  0.00    +0.000 C 
BRANCH  18  19
ATOM     19  O   UNL     1       1.948   1.457  18.954  0.00  0.00    +0.000 OA
ATOM     20  H   UNL     1       1.600   1.542  19.858  0.00  0.00    +0.000 HD
ENDBRANCH  18  19
ENDBRANCH  17  18
BRANCH  17  21
ATOM     21  O   UNL     1       2.657   4.668  17.880  0.00  0.00    +0.000 OA
BRANCH  21  22
ATOM     22  C   UNL     1       1.570   4.992  18.777  0.00  0.00    +0.000 C 
BRANCH  22  23
ATOM     23  P   UNL     1       2.230   5.387  20.404  0.00  0.00    +0.000 P 
ATOM     24  O   UNL     1       2.153   4.308  21.430  0.00  0.00    +0.000 OA
BRANCH  23  25
ATOM     25  O   UNL     1       3.709   5.948  20.131  0.00  0.00    +0.000 OA
ATOM     26  H   UNL     1       4.392   5.286  20.355  0.00  0.00    +0.000 HD
ENDBRANCH  23  25
BRANCH  23  27
ATOM     27  O   UNL     1       1.494   6.736  20.861  0.00  0.00    +0.000 OA
ATOM     28  H   UNL     1       0.657   6.532  21.324  0.00  0.00    +0.000 HD
ENDBRANCH  23  27
ENDBRANCH  22  23
ENDBRANCH  21  22
ENDBRANCH  17  21
ENDBRANCH  16  17
ENDBRANCH   9  16
TORSDOF 9
ENDMDL
MODEL 8
REMARK VINA RESULT:      -6.7      2.259      3.306
REMARK  Name = 
REMARK  9 active torsions:
REMARK  status: ('A' for Active; 'I' for Inactive)
REMARK    1  A    between atoms: N_9  and  C_10
REMARK    2  A    between atoms: C_10  and  C_11
REMARK    3  A    between atoms: C_11  and  C_12
REMARK    4  A    between atoms: C_11  and  O_14
REMARK    5  A    between atoms: C_12  and  O_13
REMARK    6  A    between atoms: O_14  and  C_15
REMARK    7  A    between atoms: C_15  and  P_16
REMARK    8  A    between atoms: P_16  and  O_18
REMARK    9  A    between atoms: P_16  and  O_19
REMARK                            x       y       z     vdW  Elec       q    Type
REMARK                         _______ _______ _______ _____ _____    ______ ____
ROOT
ATOM      1  N   UNL     1       6.133   3.109  15.565  0.00  0.00    +0.000 N 
ATOM      2  C   UNL     1       5.560   4.210  16.168  0.00  0.00    +0.000 A 
ATOM      3  N   UNL     1       6.310   5.330  16.174  0.00  0.00    +0.000 NA
ATOM      4  C   UNL     1       5.835   6.449  16.777  0.00  0.00    +0.000 A 
ATOM      5  N   UNL     1       6.600   7.602  16.712  0.00  0.00    +0.000 N 
ATOM      6  C   UNL     1       4.599   6.371  17.420  0.00  0.00    +0.000 A 
ATOM      7  N   UNL     1       3.853   7.266  18.139  0.00  0.00    +0.000 NA
ATOM      8  N   UNL     1       2.719   6.670  18.487  0.00  0.00    +0.000 NA
ATOM      9  N   UNL     1       2.742   5.420  17.967  0.00  0.00    +0.000 N 
ATOM     10  C   UNL     1       3.926   5.168  17.332  0.00  0.00    +0.000 A 
ATOM     11  N   UNL     1       4.345   4.047  16.722  0.00  0.00    +0.000 NA
ATOM     12  H   UNL     1       7.138   3.232  15.524  0.00  0.00    +0.000 HD
ATOM     13  H   UNL     1       5.793   2.254  15.976  0.00  0.00    +0.000 HD
ATOM     14  H   UNL     1       7.570   7.438  16.477  0.00  0.00    +0.000 HD
ATOM     15  H   UNL     1       6.377   8.326  17.383  0.00  0.00    +0.000 HD
ENDROOT
BRANCH   9  16
ATOM     16  C   UNL     1       1.523   4.656  17.916  0.00  0.00    +0.000 C 
BRANCH  16  17
ATOM     17  C   UNL     1       1.261   3.705  19.089  0.00  0.00    +0.000 C 
BRANCH  17  18
ATOM     18  C   UNL     1       1.181   2.246  18.606  0.00  0.00    +0.000 C 
BRANCH  18  19
ATOM     19  O   UNL     1       1.997   2.067  17.449  0.00  0.00    +0.000 OA
ATOM     20  H   UNL     1       1.602   2.601  16.739  0.00  0.00    +0.000 HD
ENDBRANCH  18  19
ENDBRANCH  17  18
BRANCH  17  21
ATOM     21  O   UNL     1       2.343   3.772  20.066  0.00  0.00    +0.000 OA
BRANCH  21  22
ATOM     22  C   UNL     1       2.718   2.468  20.566  0.00  0.00    +0.000 C 
BRANCH  22  23
ATOM     23  P   UNL     1       4.451   2.157  20.197  0.00  0.00    +0.000 P 
ATOM     24  O   UNL     1       5.254   1.516  21.277  0.00  0.00    +0.000 OA
BRANCH  23  25
ATOM     25  O   UNL     1       4.446   1.362  18.803  0.00  0.00    +0.000 OA
ATOM     26  H   UNL     1       3.909   0.546  18.855  0.00  0.00    +0.000 HD
ENDBRANCH  23  25
BRANCH  23  27
ATOM     27  O   UNL     1       5.057   3.563  19.720  0.00  0.00    +0.000 OA
ATOM     28  H   UNL     1       6.019   3.488  19.562  0.00  0.00    +0.000 HD
ENDBRANCH  23  27
ENDBRANCH  22  23
ENDBRANCH  21  22
ENDBRANCH  17  21
ENDBRANCH  16  17
ENDBRANCH   9  16
TORSDOF 9
ENDMDL
MODEL 9
REMARK VINA RESULT:      -6.7      2.776      3.855
REMARK  Name = 
REMARK  9 active torsions:
REMARK  status: ('A' for Active; 'I' for Inactive)
REMARK    1  A    between atoms: N_9  and  C_10
REMARK    2  A    between atoms: C_10  and  C_11
REMARK    3  A    between atoms: C_11  and  C_12
REMARK    4  A    between atoms: C_11  and  O_14
REMARK    5  A    between atoms: C_12  and  O_13
REMARK    6  A    between atoms: O_14  and  C_15
REMARK    7  A    between atoms: C_15  and  P_16
REMARK    8  A    between atoms: P_16  and  O_18
REMARK    9  A    between atoms: P_16  and  O_19
REMARK                            x       y       z     vdW  Elec       q    Type
REMARK                         _______ _______ _______ _____ _____    ______ ____
ROOT
ATOM      1  N   UNL     1       8.592   5.190  20.465  0.00  0.00    +0.000 N 
ATOM      2  C   UNL     1       7.704   5.713  19.548  0.00  0.00    +0.000 A 
ATOM      3  N   UNL     1       8.173   6.721  18.787  0.00  0.00    +0.000 NA
ATOM      4  C   UNL     1       7.353   7.314  17.883  0.00  0.00    +0.000 A 
ATOM      5  N   UNL     1       7.881   8.305  17.073  0.00  0.00    +0.000 N 
ATOM      6  C   UNL     1       6.028   6.883  17.822  0.00  0.00    +0.000 A 
ATOM      7  N   UNL     1       4.944   7.268  17.077  0.00  0.00    +0.000 NA
ATOM      8  N   UNL     1       3.926   6.478  17.392  0.00  0.00    +0.000 NA
ATOM      9  N   UNL     1       4.374   5.586  18.308  0.00  0.00    +0.000 N 
ATOM     10  C   UNL     1       5.675   5.834  18.647  0.00  0.00    +0.000 A 
ATOM     11  N   UNL     1       6.460   5.200  19.534  0.00  0.00    +0.000 NA
ATOM     12  H   UNL     1       9.329   5.863  20.641  0.00  0.00    +0.000 HD
ATOM     13  H   UNL     1       8.109   4.822  21.268  0.00  0.00    +0.000 HD
ATOM     14  H   UNL     1       8.744   8.702  17.419  0.00  0.00    +0.000 HD
ATOM     15  H   UNL     1       7.214   8.913  16.616  0.00  0.00    +0.000 HD
ENDROOT
BRANCH   9  16
ATOM     16  C   UNL     1       3.584   4.419  18.599  0.00  0.00    +0.000 C 
BRANCH  16  17
ATOM     17  C   UNL     1       3.874   3.168  17.762  0.00  0.00    +0.000 C 
BRANCH  17  18
ATOM     18  C   UNL     1       2.606   2.312  17.595  0.00  0.00    +0.000 C 
BRANCH  18  19
ATOM     19  O   UNL     1       2.609   1.242  18.539  0.00  0.00    +0.000 OA
ATOM     20  H   UNL     1       3.507   0.867  18.538  0.00  0.00    +0.000 HD
ENDBRANCH  18  19
ENDBRANCH  17  18
BRANCH  17  21
ATOM     21  O   UNL     1       4.325   3.530  16.422  0.00  0.00    +0.000 OA
BRANCH  21  22
ATOM     22  C   UNL     1       5.746   3.332  16.245  0.00  0.00    +0.000 C 
BRANCH  22  23
ATOM     23  P   UNL     1       6.350   4.427  14.950  0.00  0.00    +0.000 P 
ATOM     24  O   UNL     1       7.669   5.076  15.193  0.00  0.00    +0.000 OA
BRANCH  23  25
ATOM     25  O   UNL     1       6.263   3.565  13.599  0.00  0.00    +0.000 OA
ATOM     26  H   UNL     1       5.366   3.593  13.211  0.00  0.00    +0.000 HD
ENDBRANCH  23  25
BRANCH  23  27
ATOM     27  O   UNL     1       5.173   5.485  14.687  0.00  0.00    +0.000 OA
ATOM     28  H   UNL     1       4.481   5.096  14.118  0.00  0.00    +0.000 HD
ENDBRANCH  23  27
ENDBRANCH  22  23
ENDBRANCH  21  22
ENDBRANCH  17  21
ENDBRANCH  16  17
ENDBRANCH   9  16
TORSDOF 9
ENDMDL
