MODEL 1
REMARK VINA RESULT:      -9.5      0.000      0.000
REMARK  Name = 
REMARK  4 active torsions:
REMARK  status: ('A' for Active; 'I' for Inactive)
REMARK    1  A    between atoms: S_2  and  N_4
REMARK    2  A    between atoms: S_2  and  C_11
REMARK    3  A    between atoms: C_14  and  N_15
REMARK    4  A    between atoms: N_15  and  C_16
REMARK                            x       y       z     vdW  Elec       q    Type
REMARK                         _______ _______ _______ _____ _____    ______ ____
ROOT
ATOM      1  C   UNL     1       0.871   9.871  19.856  0.00  0.00    +0.000 A 
ATOM      2  C   UNL     1       0.747   9.119  21.027  0.00  0.00    +0.000 A 
ATOM      3  C   UNL     1       1.360   7.867  21.105  0.00  0.00    +0.000 A 
ATOM      4  C   UNL     1       2.047   7.337  20.004  0.00  0.00    +0.000 A 
ATOM      5  C   UNL     1       2.111   8.088  18.823  0.00  0.00    +0.000 A 
ATOM      6  C   UNL     1       1.527   9.352  18.742  0.00  0.00    +0.000 A 
ENDROOT
BRANCH   1   8
ATOM      7  O   UNL     1       1.211  12.456  20.009  0.00  0.00    +0.000 OA
ATOM      8  S   UNL     1       0.161  11.488  19.759  0.00  0.00    +0.000 S 
ATOM      9  O   UNL     1      -1.026  11.498  20.587  0.00  0.00    +0.000 OA
BRANCH   8  10
ATOM     10  N   UNL     1      -0.357  11.670  18.164  0.00  0.00    +0.000 N 
ATOM     11  C   UNL     1      -1.677  11.253  17.966  0.00  0.00    +0.000 A 
ATOM     12  N   UNL     1      -2.647  12.145  18.169  0.00  0.00    +0.000 NA
ATOM     13  C   UNL     1      -3.902  11.677  18.045  0.00  0.00    +0.000 A 
ATOM     14  C   UNL     1      -4.193  10.364  17.746  0.00  0.00    +0.000 A 
ATOM     15  C   UNL     1      -3.104   9.543  17.558  0.00  0.00    +0.000 A 
ATOM     16  N   UNL     1      -1.830   9.964  17.652  0.00  0.00    +0.000 NA
ATOM     17  H   UNL     1       0.206  11.031  17.608  0.00  0.00    +0.000 HD
ENDBRANCH   8  10
ENDBRANCH   1   8
BRANCH   4  18
ATOM     18  N   UNL     1       2.733   6.121  20.126  0.00  0.00    +0.000 N 
ATOM     19  H   UNL     1       2.773   5.746  21.069  0.00  0.00    +0.000 HD
BRANCH  18  20
ATOM     20  C   UNL     1       2.823   5.044  19.235  0.00  0.00    +0.000 A 
ATOM     21  N   UNL     1       1.702   4.303  19.038  0.00  0.00    +0.000 NA
ATOM     22  C   UNL     1       1.676   3.412  18.028  0.00  0.00    +0.000 A 
ATOM     23  N   UNL     1       2.577   3.258  17.052  0.00  0.00    +0.000 NA
ATOM     24  C   UNL     1       3.692   3.998  17.252  0.00  0.00    +0.000 A 
ATOM     25  C   UNL     1       3.884   4.796  18.370  0.00  0.00    +0.000 A 
ATOM     26  O   UNL     1       5.144   5.321  18.363  0.00  0.00    +0.000 OA
ATOM     27  C   UNL     1       5.716   4.947  17.183  0.00  0.00    +0.000 A 
ATOM     28  C   UNL     1       7.008   5.252  16.772  0.00  0.00    +0.000 A 
ATOM     29  C   UNL     1       7.327   4.938  15.445  0.00  0.00    +0.000 A 
ATOM     30  C   UNL     1       6.389   4.347  14.595  0.00  0.00    +0.000 A 
ATOM     31  C   UNL     1       5.128   3.965  15.067  0.00  0.00    +0.000 A 
ATOM     32  C   UNL     1       4.802   4.240  16.406  0.00  0.00    +0.000 A 
ENDBRANCH  18  20
ENDBRANCH   4  18
TORSDOF 4
ENDMDL
MODEL 2
REMARK VINA RESULT:      -9.3      0.460      1.004
REMARK  Name = 
REMARK  4 active torsions:
REMARK  status: ('A' for Active; 'I' for Inactive)
REMARK    1  A    between atoms: S_2  and  N_4
REMARK    2  A    between atoms: S_2  and  C_11
REMARK    3  A    between atoms: C_14  and  N_15
REMARK    4  A    between atoms: N_15  and  C_16
REMARK                            x       y       z     vdW  Elec       q    Type
REMARK                         _______ _______ _______ _____ _____    ______ ____
ROOT
ATOM      1  C   UNL     1       0.792   9.854  20.055  0.00  0.00    +0.000 A 
ATOM      2  C   UNL     1       1.481   9.251  19.000  0.00  0.00    +0.000 A 
ATOM      3  C   UNL     1       1.995   7.963  19.165  0.00  0.00    +0.000 A 
ATOM      4  C   UNL     1       1.874   7.297  20.392  0.00  0.00    +0.000 A 
ATOM      5  C   UNL     1       1.225   7.944  21.451  0.00  0.00    +0.000 A 
ATOM      6  C   UNL     1       0.683   9.219  21.291  0.00  0.00    +0.000 A 
ENDROOT
BRANCH   1   8
ATOM      7  O   UNL     1       1.103  12.448  20.093  0.00  0.00    +0.000 OA
ATOM      8  S   UNL     1       0.073  11.457  19.847  0.00  0.00    +0.000 S 
ATOM      9  O   UNL     1      -1.148  11.495  20.623  0.00  0.00    +0.000 OA
BRANCH   8  10
ATOM     10  N   UNL     1      -0.378  11.554  18.226  0.00  0.00    +0.000 N 
ATOM     11  C   UNL     1      -1.705  11.173  18.002  0.00  0.00    +0.000 A 
ATOM     12  N   UNL     1      -2.646  12.112  18.110  0.00  0.00    +0.000 NA
ATOM     13  C   UNL     1      -3.913  11.682  17.967  0.00  0.00    +0.000 A 
ATOM     14  C   UNL     1      -4.244  10.364  17.740  0.00  0.00    +0.000 A 
ATOM     15  C   UNL     1      -3.182   9.493  17.647  0.00  0.00    +0.000 A 
ATOM     16  N   UNL     1      -1.897   9.873  17.764  0.00  0.00    +0.000 NA
ATOM     17  H   UNL     1       0.180  10.860  17.733  0.00  0.00    +0.000 HD
ENDBRANCH   8  10
ENDBRANCH   1   8
BRANCH   4  18
ATOM     18  N   UNL     1       2.314   5.972  20.514  0.00  0.00    +0.000 N 
ATOM     19  H   UNL     1       2.065   5.517  21.387  0.00  0.00    +0.000 HD
BRANCH  18  20
ATOM     20  C   UNL     1       2.453   4.975  19.538  0.00  0.00    +0.000 A 
ATOM     21  N   UNL     1       1.318   4.368  19.105  0.00  0.00    +0.000 NA
ATOM     22  C   UNL     1       1.375   3.578  18.015  0.00  0.00    +0.000 A 
ATOM     23  N   UNL     1       2.401   3.424  17.171  0.00  0.00    +0.000 NA
ATOM     24  C   UNL     1       3.529   4.032  17.606  0.00  0.00    +0.000 A 
ATOM     25  C   UNL     1       3.610   4.704  18.817  0.00  0.00    +0.000 A 
ATOM     26  O   UNL     1       4.896   5.103  19.049  0.00  0.00    +0.000 OA
ATOM     27  C   UNL     1       5.610   4.782  17.933  0.00  0.00    +0.000 A 
ATOM     28  C   UNL     1       6.972   4.996  17.749  0.00  0.00    +0.000 A 
ATOM     29  C   UNL     1       7.465   4.772  16.458  0.00  0.00    +0.000 A 
ATOM     30  C   UNL     1       6.624   4.355  15.423  0.00  0.00    +0.000 A 
ATOM     31  C   UNL     1       5.278   4.055  15.664  0.00  0.00    +0.000 A 
ATOM     32  C   UNL     1       4.773   4.240  16.961  0.00  0.00    +0.000 A 
ENDBRANCH  18  20
ENDBRANCH   4  18
TORSDOF 4
ENDMDL
MODEL 3
REMARK VINA RESULT:      -9.2      1.980      3.042
REMARK  Name = 
REMARK  4 active torsions:
REMARK  status: ('A' for Active; 'I' for Inactive)
REMARK    1  A    between atoms: S_2  and  N_4
REMARK    2  A    between atoms: S_2  and  C_11
REMARK    3  A    between atoms: C_14  and  N_15
REMARK    4  A    between atoms: N_15  and  C_16
REMARK                            x       y       z     vdW  Elec       q    Type
REMARK                         _______ _______ _______ _____ _____    ______ ____
ROOT
ATOM      1  C   UNL     1       0.555   9.860  19.669  0.00  0.00    +0.000 A 
ATOM      2  C   UNL     1       1.351   9.375  18.628  0.00  0.00    +0.000 A 
ATOM      3  C   UNL     1       2.063   8.188  18.806  0.00  0.00    +0.000 A 
ATOM      4  C   UNL     1       2.031   7.512  20.033  0.00  0.00    +0.000 A 
ATOM      5  C   UNL     1       1.267   8.047  21.079  0.00  0.00    +0.000 A 
ATOM      6  C   UNL     1       0.529   9.217  20.905  0.00  0.00    +0.000 A 
ENDROOT
BRANCH   1   8
ATOM      7  O   UNL     1      -0.268  12.145  20.631  0.00  0.00    +0.000 OA
ATOM      8  S   UNL     1      -0.410  11.325  19.443  0.00  0.00    +0.000 S 
ATOM      9  O   UNL     1      -1.731  10.919  19.014  0.00  0.00    +0.000 OA
BRANCH   8  10
ATOM     10  N   UNL     1       0.291  12.145  18.147  0.00  0.00    +0.000 N 
ATOM     11  C   UNL     1       1.072  13.235  18.546  0.00  0.00    +0.000 A 
ATOM     12  N   UNL     1       2.354  13.006  18.833  0.00  0.00    +0.000 NA
ATOM     13  C   UNL     1       3.044  14.067  19.289  0.00  0.00    +0.000 A 
ATOM     14  C   UNL     1       2.483  15.312  19.473  0.00  0.00    +0.000 A 
ATOM     15  C   UNL     1       1.152  15.418  19.139  0.00  0.00    +0.000 A 
ATOM     16  N   UNL     1       0.421  14.395  18.662  0.00  0.00    +0.000 NA
ATOM     17  H   UNL     1      -0.478  12.553  17.620  0.00  0.00    +0.000 HD
ENDBRANCH   8  10
ENDBRANCH   1   8
BRANCH   4  18
ATOM     18  N   UNL     1       2.677   6.275  20.168  0.00  0.00    +0.000 N 
ATOM     19  H   UNL     1       2.692   5.900  21.111  0.00  0.00    +0.000 HD
BRANCH  18  20
ATOM     20  C   UNL     1       2.748   5.195  19.278  0.00  0.00    +0.000 A 
ATOM     21  N   UNL     1       1.600   4.510  19.039  0.00  0.00    +0.000 NA
ATOM     22  C   UNL     1       1.568   3.621  18.027  0.00  0.00    +0.000 A 
ATOM     23  N   UNL     1       2.496   3.422  17.086  0.00  0.00    +0.000 NA
ATOM     24  C   UNL     1       3.638   4.107  17.328  0.00  0.00    +0.000 A 
ATOM     25  C   UNL     1       3.827   4.894  18.454  0.00  0.00    +0.000 A 
ATOM     26  O   UNL     1       5.111   5.357  18.494  0.00  0.00    +0.000 OA
ATOM     27  C   UNL     1       5.707   4.954  17.336  0.00  0.00    +0.000 A 
ATOM     28  C   UNL     1       7.028   5.195  16.974  0.00  0.00    +0.000 A 
ATOM     29  C   UNL     1       7.380   4.865  15.660  0.00  0.00    +0.000 A 
ATOM     30  C   UNL     1       6.446   4.322  14.774  0.00  0.00    +0.000 A 
ATOM     31  C   UNL     1       5.152   4.002  15.199  0.00  0.00    +0.000 A 
ATOM     32  C   UNL     1       4.790   4.293  16.524  0.00  0.00    +0.000 A 
ENDBRANCH  18  20
ENDBRANCH   4  18
TORSDOF 4
ENDMDL
MODEL 4
REMARK VINA RESULT:      -9.0      2.216      2.648
REMARK  Name = 
REMARK  4 active torsions:
REMARK  status: ('A' for Active; 'I' for Inactive)
REMARK    1  A    between atoms: S_2  and  N_4
REMARK    2  A    between atoms: S_2  and  C_11
REMARK    3  A    between atoms: C_14  and  N_15
REMARK    4  A    between atoms: N_15  and  C_16
REMARK                            x       y       z     vdW  Elec       q    Type
REMARK                         _______ _______ _______ _____ _____    ______ ____
ROOT
ATOM      1  C   UNL     1       0.722   9.998  19.854  0.00  0.00    +0.000 A 
ATOM      2  C   UNL     1       0.645   9.227  21.017  0.00  0.00    +0.000 A 
ATOM      3  C   UNL     1       1.320   8.006  21.074  0.00  0.00    +0.000 A 
ATOM      4  C   UNL     1       2.024   7.524  19.962  0.00  0.00    +0.000 A 
ATOM      5  C   UNL     1       2.041   8.292  18.789  0.00  0.00    +0.000 A 
ATOM      6  C   UNL     1       1.394   9.526  18.729  0.00  0.00    +0.000 A 
ENDROOT
BRANCH   1   8
ATOM      7  O   UNL     1      -1.497  11.363  19.654  0.00  0.00    +0.000 OA
ATOM      8  S   UNL     1      -0.068  11.579  19.782  0.00  0.00    +0.000 S 
ATOM      9  O   UNL     1       0.623  12.370  18.787  0.00  0.00    +0.000 OA
BRANCH   8  10
ATOM     10  N   UNL     1       0.224  12.310  21.273  0.00  0.00    +0.000 N 
ATOM     11  C   UNL     1      -0.948  12.597  21.981  0.00  0.00    +0.000 A 
ATOM     12  N   UNL     1      -1.441  11.644  22.773  0.00  0.00    +0.000 NA
ATOM     13  C   UNL     1      -2.611  11.936  23.371  0.00  0.00    +0.000 A 
ATOM     14  C   UNL     1      -3.283  13.124  23.181  0.00  0.00    +0.000 A 
ATOM     15  C   UNL     1      -2.667  14.025  22.341  0.00  0.00    +0.000 A 
ATOM     16  N   UNL     1      -1.490  13.791  21.733  0.00  0.00    +0.000 NA
ATOM     17  H   UNL     1       0.635  13.218  21.068  0.00  0.00    +0.000 HD
ENDBRANCH   8  10
ENDBRANCH   1   8
BRANCH   4  18
ATOM     18  N   UNL     1       2.770   6.343  20.064  0.00  0.00    +0.000 N 
ATOM     19  H   UNL     1       2.913   6.007  21.012  0.00  0.00    +0.000 HD
BRANCH  18  20
ATOM     20  C   UNL     1       2.827   5.235  19.208  0.00  0.00    +0.000 A 
ATOM     21  N   UNL     1       1.681   4.529  19.028  0.00  0.00    +0.000 NA
ATOM     22  C   UNL     1       1.627   3.608  18.046  0.00  0.00    +0.000 A 
ATOM     23  N   UNL     1       2.526   3.391  17.081  0.00  0.00    +0.000 NA
ATOM     24  C   UNL     1       3.667   4.097  17.264  0.00  0.00    +0.000 A 
ATOM     25  C   UNL     1       3.882   4.922  18.358  0.00  0.00    +0.000 A 
ATOM     26  O   UNL     1       5.160   5.402  18.341  0.00  0.00    +0.000 OA
ATOM     27  C   UNL     1       5.724   4.970  17.177  0.00  0.00    +0.000 A 
ATOM     28  C   UNL     1       7.028   5.215  16.764  0.00  0.00    +0.000 A 
ATOM     29  C   UNL     1       7.342   4.848  15.450  0.00  0.00    +0.000 A 
ATOM     30  C   UNL     1       6.387   4.265  14.613  0.00  0.00    +0.000 A 
ATOM     31  C   UNL     1       5.111   3.943  15.090  0.00  0.00    +0.000 A 
ATOM     32  C   UNL     1       4.789   4.272  16.417  0.00  0.00    +0.000 A 
ENDBRANCH  18  20
ENDBRANCH   4  18
TORSDOF 4
ENDMDL
MODEL 5
REMARK VINA RESULT:      -9.0      2.049      2.977
REMARK  Name = 
REMARK  4 active torsions:
REMARK  status: ('A' for Active; 'I' for Inactive)
REMARK    1  A    between atoms: S_2  and  N_4
REMARK    2  A    between atoms: S_2  and  C_11
REMARK    3  A    between atoms: C_14  and  N_15
REMARK    4  A    between atoms: N_15  and  C_16
REMARK                            x       y       z     vdW  Elec       q    Type
REMARK                         _______ _______ _______ _____ _____    ______ ____
ROOT
ATOM      1  C   UNL     1       0.870   9.890  20.119  0.00  0.00    +0.000 A 
ATOM      2  C   UNL     1       0.712   9.077  21.245  0.00  0.00    +0.000 A 
ATOM      3  C   UNL     1       1.302   7.811  21.263  0.00  0.00    +0.000 A 
ATOM      4  C   UNL     1       1.999   7.330  20.147  0.00  0.00    +0.000 A 
ATOM      5  C   UNL     1       2.097   8.144  19.010  0.00  0.00    +0.000 A 
ATOM      6  C   UNL     1       1.538   9.421  18.990  0.00  0.00    +0.000 A 
ENDROOT
BRANCH   1   8
ATOM      7  O   UNL     1       0.949  12.337  21.030  0.00  0.00    +0.000 OA
ATOM      8  S   UNL     1       0.191  11.523  20.100  0.00  0.00    +0.000 S 
ATOM      9  O   UNL     1      -1.242  11.404  20.263  0.00  0.00    +0.000 OA
BRANCH   8  10
ATOM     10  N   UNL     1       0.455  12.114  18.543  0.00  0.00    +0.000 N 
ATOM     11  C   UNL     1       1.315  13.216  18.514  0.00  0.00    +0.000 A 
ATOM     12  N   UNL     1       2.624  12.978  18.427  0.00  0.00    +0.000 NA
ATOM     13  C   UNL     1       3.416  14.064  18.484  0.00  0.00    +0.000 A 
ATOM     14  C   UNL     1       2.934  15.345  18.639  0.00  0.00    +0.000 A 
ATOM     15  C   UNL     1       1.564  15.458  18.716  0.00  0.00    +0.000 A 
ATOM     16  N   UNL     1       0.726  14.408  18.645  0.00  0.00    +0.000 NA
ATOM     17  H   UNL     1      -0.441  12.473  18.220  0.00  0.00    +0.000 HD
ENDBRANCH   8  10
ENDBRANCH   1   8
BRANCH   4  18
ATOM     18  N   UNL     1       2.662   6.097  20.214  0.00  0.00    +0.000 N 
ATOM     19  H   UNL     1       2.701   5.682  21.139  0.00  0.00    +0.000 HD
BRANCH  18  20
ATOM     20  C   UNL     1       2.725   5.057  19.277  0.00  0.00    +0.000 A 
ATOM     21  N   UNL     1       1.573   4.391  19.009  0.00  0.00    +0.000 NA
ATOM     22  C   UNL     1       1.533   3.548  17.959  0.00  0.00    +0.000 A 
ATOM     23  N   UNL     1       2.460   3.385  17.008  0.00  0.00    +0.000 NA
ATOM     24  C   UNL     1       3.606   4.051  17.279  0.00  0.00    +0.000 A 
ATOM     25  C   UNL     1       3.801   4.787  18.439  0.00  0.00    +0.000 A 
ATOM     26  O   UNL     1       5.088   5.239  18.498  0.00  0.00    +0.000 OA
ATOM     27  C   UNL     1       5.681   4.885  17.323  0.00  0.00    +0.000 A 
ATOM     28  C   UNL     1       7.002   5.133  16.970  0.00  0.00    +0.000 A 
ATOM     29  C   UNL     1       7.352   4.860  15.642  0.00  0.00    +0.000 A 
ATOM     30  C   UNL     1       6.413   4.362  14.734  0.00  0.00    +0.000 A 
ATOM     31  C   UNL     1       5.117   4.031  15.146  0.00  0.00    +0.000 A 
ATOM     32  C   UNL     1       4.758   4.266  16.483  0.00  0.00    +0.000 A 
ENDBRANCH  18  20
ENDBRANCH   4  18
TORSDOF 4
ENDMDL
MODEL 6
REMARK VINA RESULT:      -8.9      1.074      1.692
REMARK  Name = 
REMARK  4 active torsions:
REMARK  status: ('A' for Active; 'I' for Inactive)
REMARK    1  A    between atoms: S_2  and  N_4
REMARK    2  A    between atoms: S_2  and  C_11
REMARK    3  A    between atoms: C_14  and  N_15
REMARK    4  A    between atoms: N_15  and  C_16
REMARK                            x       y       z     vdW  Elec       q    Type
REMARK                         _______ _______ _______ _____ _____    ______ ____
ROOT
ATOM      1  C   UNL     1       0.173   9.970  19.518  0.00  0.00    +0.000 A 
ATOM      2  C   UNL     1       1.006   9.591  18.462  0.00  0.00    +0.000 A 
ATOM      3  C   UNL     1       1.888   8.523  18.636  0.00  0.00    +0.000 A 
ATOM      4  C   UNL     1       1.986   7.869  19.872  0.00  0.00    +0.000 A 
ATOM      5  C   UNL     1       1.178   8.304  20.931  0.00  0.00    +0.000 A 
ATOM      6  C   UNL     1       0.272   9.350  20.762  0.00  0.00    +0.000 A 
ENDROOT
BRANCH   1   8
ATOM      7  O   UNL     1      -0.652  11.998  18.092  0.00  0.00    +0.000 OA
ATOM      8  S   UNL     1      -1.001  11.275  19.300  0.00  0.00    +0.000 S 
ATOM      9  O   UNL     1      -1.100  11.992  20.553  0.00  0.00    +0.000 OA
BRANCH   8  10
ATOM     10  N   UNL     1      -2.489  10.521  19.053  0.00  0.00    +0.000 N 
ATOM     11  C   UNL     1      -2.884  10.514  17.711  0.00  0.00    +0.000 A 
ATOM     12  N   UNL     1      -2.472   9.500  16.949  0.00  0.00    +0.000 NA
ATOM     13  C   UNL     1      -2.808   9.578  15.649  0.00  0.00    +0.000 A 
ATOM     14  C   UNL     1      -3.514  10.632  15.111  0.00  0.00    +0.000 A 
ATOM     15  C   UNL     1      -3.882  11.615  16.002  0.00  0.00    +0.000 A 
ATOM     16  N   UNL     1      -3.588  11.577  17.315  0.00  0.00    +0.000 NA
ATOM     17  H   UNL     1      -3.181  11.097  19.526  0.00  0.00    +0.000 HD
ENDBRANCH   8  10
ENDBRANCH   1   8
BRANCH   4  18
ATOM     18  N   UNL     1       2.809   6.743  20.005  0.00  0.00    +0.000 N 
ATOM     19  H   UNL     1       3.044   6.495  20.961  0.00  0.00    +0.000 HD
BRANCH  18  20
ATOM     20  C   UNL     1       2.866   5.574  19.235  0.00  0.00    +0.000 A 
ATOM     21  N   UNL     1       1.724   4.849  19.118  0.00  0.00    +0.000 NA
ATOM     22  C   UNL     1       1.669   3.855  18.209  0.00  0.00    +0.000 A 
ATOM     23  N   UNL     1       2.563   3.570  17.257  0.00  0.00    +0.000 NA
ATOM     24  C   UNL     1       3.700   4.295  17.377  0.00  0.00    +0.000 A 
ATOM     25  C   UNL     1       3.918   5.202  18.403  0.00  0.00    +0.000 A 
ATOM     26  O   UNL     1       5.193   5.687  18.341  0.00  0.00    +0.000 OA
ATOM     27  C   UNL     1       5.751   5.171  17.209  0.00  0.00    +0.000 A 
ATOM     28  C   UNL     1       7.051   5.392  16.769  0.00  0.00    +0.000 A 
ATOM     29  C   UNL     1       7.358   4.927  15.484  0.00  0.00    +0.000 A 
ATOM     30  C   UNL     1       6.401   4.276  14.701  0.00  0.00    +0.000 A 
ATOM     31  C   UNL     1       5.131   3.984  15.211  0.00  0.00    +0.000 A 
ATOM     32  C   UNL     1       4.816   4.411  16.511  0.00  0.00    +0.000 A 
ENDBRANCH  18  20
ENDBRANCH   4  18
TORSDOF 4
ENDMDL
MODEL 7
REMARK VINA RESULT:      -8.9      2.216      3.288
REMARK  Name = 
REMARK  4 active torsions:
REMARK  status: ('A' for Active; 'I' for Inactive)
REMARK    1  A    between atoms: S_2  and  N_4
REMARK    2  A    between atoms: S_2  and  C_11
REMARK    3  A    between atoms: C_14  and  N_15
REMARK    4  A    between atoms: N_15  and  C_16
REMARK                            x       y       z     vdW  Elec       q    Type
REMARK                         _______ _______ _______ _____ _____    ______ ____
ROOT
ATOM      1  C   UNL     1       0.670   9.927  19.734  0.00  0.00    +0.000 A 
ATOM      2  C   UNL     1       1.404   9.367  18.686  0.00  0.00    +0.000 A 
ATOM      3  C   UNL     1       2.042   8.139  18.876  0.00  0.00    +0.000 A 
ATOM      4  C   UNL     1       1.999   7.496  20.121  0.00  0.00    +0.000 A 
ATOM      5  C   UNL     1       1.300   8.106  21.172  0.00  0.00    +0.000 A 
ATOM      6  C   UNL     1       0.635   9.317  20.986  0.00  0.00    +0.000 A 
ENDROOT
BRANCH   1   8
ATOM      7  O   UNL     1      -1.604  11.134  19.292  0.00  0.00    +0.000 OA
ATOM      8  S   UNL     1      -0.203  11.447  19.495  0.00  0.00    +0.000 S 
ATOM      9  O   UNL     1       0.508  12.209  18.490  0.00  0.00    +0.000 OA
BRANCH   8  10
ATOM     10  N   UNL     1      -0.055  12.298  20.944  0.00  0.00    +0.000 N 
ATOM     11  C   UNL     1       0.868  13.346  20.872  0.00  0.00    +0.000 A 
ATOM     12  N   UNL     1       0.425  14.533  20.456  0.00  0.00    +0.000 NA
ATOM     13  C   UNL     1       1.364  15.489  20.326  0.00  0.00    +0.000 A 
ATOM     14  C   UNL     1       2.700  15.276  20.583  0.00  0.00    +0.000 A 
ATOM     15  C   UNL     1       3.028  14.009  21.008  0.00  0.00    +0.000 A 
ATOM     16  N   UNL     1       2.128  13.023  21.172  0.00  0.00    +0.000 NA
ATOM     17  H   UNL     1       0.341  11.645  21.617  0.00  0.00    +0.000 HD
ENDBRANCH   8  10
ENDBRANCH   1   8
BRANCH   4  18
ATOM     18  N   UNL     1       2.566   6.224  20.270  0.00  0.00    +0.000 N 
ATOM     19  H   UNL     1       2.489   5.827  21.202  0.00  0.00    +0.000 HD
BRANCH  18  20
ATOM     20  C   UNL     1       2.646   5.161  19.361  0.00  0.00    +0.000 A 
ATOM     21  N   UNL     1       1.497   4.495  19.079  0.00  0.00    +0.000 NA
ATOM     22  C   UNL     1       1.479   3.627  18.049  0.00  0.00    +0.000 A 
ATOM     23  N   UNL     1       2.427   3.436  17.126  0.00  0.00    +0.000 NA
ATOM     24  C   UNL     1       3.571   4.102  17.410  0.00  0.00    +0.000 A 
ATOM     25  C   UNL     1       3.742   4.864  18.557  0.00  0.00    +0.000 A 
ATOM     26  O   UNL     1       5.030   5.310  18.638  0.00  0.00    +0.000 OA
ATOM     27  C   UNL     1       5.649   4.924  17.487  0.00  0.00    +0.000 A 
ATOM     28  C   UNL     1       6.981   5.157  17.162  0.00  0.00    +0.000 A 
ATOM     29  C   UNL     1       7.362   4.850  15.850  0.00  0.00    +0.000 A 
ATOM     30  C   UNL     1       6.444   4.335  14.931  0.00  0.00    +0.000 A 
ATOM     31  C   UNL     1       5.135   4.022  15.317  0.00  0.00    +0.000 A 
ATOM     32  C   UNL     1       4.744   4.291  16.639  0.00  0.00    +0.000 A 
ENDBRANCH  18  20
ENDBRANCH   4  18
TORSDOF 4
ENDMDL
MODEL 8
REMARK VINA RESULT:      -8.9      2.209      3.041
REMARK  Name = 
REMARK  4 active torsions:
REMARK  status: ('A' for Active; 'I' for Inactive)
REMARK    1  A    between atoms: S_2  and  N_4
REMARK    2  A    between atoms: S_2  and  C_11
REMARK    3  A    between atoms: C_14  and  N_15
REMARK    4  A    between atoms: N_15  and  C_16
REMARK                            x       y       z     vdW  Elec       q    Type
REMARK                         _______ _______ _______ _____ _____    ______ ____
ROOT
ATOM      1  C   UNL     1       0.676  10.030  19.883  0.00  0.00    +0.000 A 
ATOM      2  C   UNL     1       0.615   9.270  21.053  0.00  0.00    +0.000 A 
ATOM      3  C   UNL     1       1.288   8.048  21.111  0.00  0.00    +0.000 A 
ATOM      4  C   UNL     1       1.974   7.555  19.993  0.00  0.00    +0.000 A 
ATOM      5  C   UNL     1       1.975   8.312  18.814  0.00  0.00    +0.000 A 
ATOM      6  C   UNL     1       1.330   9.547  18.752  0.00  0.00    +0.000 A 
ENDROOT
BRANCH   1   8
ATOM      7  O   UNL     1      -1.391  11.511  20.485  0.00  0.00    +0.000 OA
ATOM      8  S   UNL     1      -0.112  11.612  19.808  0.00  0.00    +0.000 S 
ATOM      9  O   UNL     1      -0.069  12.060  18.433  0.00  0.00    +0.000 OA
BRANCH   8  10
ATOM     10  N   UNL     1       0.871  12.660  20.691  0.00  0.00    +0.000 N 
ATOM     11  C   UNL     1       1.488  13.632  19.897  0.00  0.00    +0.000 A 
ATOM     12  N   UNL     1       0.822  14.767  19.678  0.00  0.00    +0.000 NA
ATOM     13  C   UNL     1       1.419  15.638  18.844  0.00  0.00    +0.000 A 
ATOM     14  C   UNL     1       2.628  15.391  18.231  0.00  0.00    +0.000 A 
ATOM     15  C   UNL     1       3.215  14.185  18.541  0.00  0.00    +0.000 A 
ATOM     16  N   UNL     1       2.670  13.287  19.382  0.00  0.00    +0.000 NA
ATOM     17  H   UNL     1       1.635  12.095  21.054  0.00  0.00    +0.000 HD
ENDBRANCH   8  10
ENDBRANCH   1   8
BRANCH   4  18
ATOM     18  N   UNL     1       2.719   6.373  20.095  0.00  0.00    +0.000 N 
ATOM     19  H   UNL     1       2.852   6.031  21.042  0.00  0.00    +0.000 HD
BRANCH  18  20
ATOM     20  C   UNL     1       2.785   5.272  19.231  0.00  0.00    +0.000 A 
ATOM     21  N   UNL     1       1.640   4.569  19.032  0.00  0.00    +0.000 NA
ATOM     22  C   UNL     1       1.597   3.655  18.043  0.00  0.00    +0.000 A 
ATOM     23  N   UNL     1       2.508   3.443  17.088  0.00  0.00    +0.000 NA
ATOM     24  C   UNL     1       3.647   4.146  17.289  0.00  0.00    +0.000 A 
ATOM     25  C   UNL     1       3.850   4.963  18.392  0.00  0.00    +0.000 A 
ATOM     26  O   UNL     1       5.129   5.440  18.395  0.00  0.00    +0.000 OA
ATOM     27  C   UNL     1       5.706   5.016  17.234  0.00  0.00    +0.000 A 
ATOM     28  C   UNL     1       7.016   5.263  16.839  0.00  0.00    +0.000 A 
ATOM     29  C   UNL     1       7.346   4.904  15.527  0.00  0.00    +0.000 A 
ATOM     30  C   UNL     1       6.400   4.329  14.674  0.00  0.00    +0.000 A 
ATOM     31  C   UNL     1       5.118   4.005  15.133  0.00  0.00    +0.000 A 
ATOM     32  C   UNL     1       4.780   4.325  16.458  0.00  0.00    +0.000 A 
ENDBRANCH  18  20
ENDBRANCH   4  18
TORSDOF 4
ENDMDL
MODEL 9
REMARK VINA RESULT:      -8.8      2.378      3.317
REMARK  Name = 
REMARK  4 active torsions:
REMARK  status: ('A' for Active; 'I' for Inactive)
REMARK    1  A    between atoms: S_2  and  N_4
REMARK    2  A    between atoms: S_2  and  C_11
REMARK    3  A    between atoms: C_14  and  N_15
REMARK    4  A    between atoms: N_15  and  C_16
REMARK                            x       y       z     vdW  Elec       q    Type
REMARK                         _______ _______ _______ _____ _____    ______ ____
ROOT
ATOM      1  C   UNL     1       1.086  10.118  19.289  0.00  0.00    +0.000 A 
ATOM      2  C   UNL     1       0.839   9.502  20.519  0.00  0.00    +0.000 A 
ATOM      3  C   UNL     1       1.340   8.221  20.756  0.00  0.00    +0.000 A 
ATOM      4  C   UNL     1       2.037   7.529  19.755  0.00  0.00    +0.000 A 
ATOM      5  C   UNL     1       2.225   8.148  18.512  0.00  0.00    +0.000 A 
ATOM      6  C   UNL     1       1.754   9.439  18.273  0.00  0.00    +0.000 A 
ENDROOT
BRANCH   1   8
ATOM      7  O   UNL     1      -0.782  11.689  18.358  0.00  0.00    +0.000 OA
ATOM      8  S   UNL     1       0.520  11.767  18.992  0.00  0.00    +0.000 S 
ATOM      9  O   UNL     1       1.589  12.486  18.331  0.00  0.00    +0.000 OA
BRANCH   8  10
ATOM     10  N   UNL     1       0.327  12.472  20.512  0.00  0.00    +0.000 N 
ATOM     11  C   UNL     1       1.130  13.601  20.698  0.00  0.00    +0.000 A 
ATOM     12  N   UNL     1       0.640  14.780  20.314  0.00  0.00    +0.000 NA
ATOM     13  C   UNL     1       1.478  15.825  20.438  0.00  0.00    +0.000 A 
ATOM     14  C   UNL     1       2.767  15.710  20.910  0.00  0.00    +0.000 A 
ATOM     15  C   UNL     1       3.153  14.440  21.275  0.00  0.00    +0.000 A 
ATOM     16  N   UNL     1       2.349  13.364  21.189  0.00  0.00    +0.000 NA
ATOM     17  H   UNL     1       0.672  11.792  21.185  0.00  0.00    +0.000 HD
ENDBRANCH   8  10
ENDBRANCH   1   8
BRANCH   4  18
ATOM     18  N   UNL     1       2.612   6.283  20.038  0.00  0.00    +0.000 N 
ATOM     19  H   UNL     1       2.479   5.956  20.990  0.00  0.00    +0.000 HD
BRANCH  18  20
ATOM     20  C   UNL     1       2.768   5.156  19.219  0.00  0.00    +0.000 A 
ATOM     21  N   UNL     1       1.691   4.343  19.068  0.00  0.00    +0.000 NA
ATOM     22  C   UNL     1       1.720   3.388  18.118  0.00  0.00    +0.000 A 
ATOM     23  N   UNL     1       2.634   3.220  17.157  0.00  0.00    +0.000 NA
ATOM     24  C   UNL     1       3.706   4.034  17.311  0.00  0.00    +0.000 A 
ATOM     25  C   UNL     1       3.846   4.912  18.375  0.00  0.00    +0.000 A 
ATOM     26  O   UNL     1       5.075   5.505  18.337  0.00  0.00    +0.000 OA
ATOM     27  C   UNL     1       5.674   5.087  17.185  0.00  0.00    +0.000 A 
ATOM     28  C   UNL     1       6.950   5.436  16.759  0.00  0.00    +0.000 A 
ATOM     29  C   UNL     1       7.295   5.054  15.456  0.00  0.00    +0.000 A 
ATOM     30  C   UNL     1       6.395   4.358  14.644  0.00  0.00    +0.000 A 
ATOM     31  C   UNL     1       5.155   3.938  15.137  0.00  0.00    +0.000 A 
ATOM     32  C   UNL     1       4.806   4.281  16.454  0.00  0.00    +0.000 A 
ENDBRANCH  18  20
ENDBRANCH   4  18
TORSDOF 4
ENDMDL
