MODEL 1
REMARK VINA RESULT:      -8.9      0.000      0.000
REMARK  Name = 
REMARK  6 active torsions:
REMARK  status: ('A' for Active; 'I' for Inactive)
REMARK    1  A    between atoms: C_1  and  C_2
REMARK    2  A    between atoms: N_4  and  C_5
REMARK    3  A    between atoms: C_5  and  C_6
REMARK    4  A    between atoms: N_8  and  C_9
REMARK    5  A    between atoms: C_12  and  C_13
REMARK    6  A    between atoms: C_17  and  C_19
REMARK                            x       y       z     vdW  Elec       q    Type
REMARK                         _______ _______ _______ _____ _____    ______ ____
ROOT
ATOM      1  C   UNL     1       2.739   6.861  18.684  0.00  0.00    +0.000 A 
ATOM      2  C   UNL     1       2.531   7.880  17.755  0.00  0.00    +0.000 A 
ATOM      3  C   UNL     1       1.813   9.033  18.114  0.00  0.00    +0.000 A 
ATOM      4  C   UNL     1       1.326   9.208  19.418  0.00  0.00    +0.000 A 
ATOM      5  C   UNL     1       1.500   8.151  20.312  0.00  0.00    +0.000 A 
ATOM      6  F   UNL     1       1.081   8.271  21.582  0.00  0.00    +0.000 F 
ATOM      7  C   UNL     1       2.174   6.993  19.958  0.00  0.00    +0.000 A 
ENDROOT
BRANCH   4   8
ATOM      8  C   UNL     1       0.840  10.531  19.917  0.00  0.00    +0.000 C 
ATOM      9  C   UNL     1       0.713  11.777  19.081  0.00  0.00    +0.000 C 
ATOM     10  C   UNL     1       0.734  13.104  19.780  0.00  0.00    +0.000 C 
ATOM     11  N   UNL     1      -0.317  12.974  20.791  0.00  0.00    +0.000 N 
ATOM     12  C   UNL     1      -0.192  13.564  22.038  0.00  0.00    +0.000 C 
ATOM     13  O   UNL     1       0.792  14.253  22.330  0.00  0.00    +0.000 OA
ATOM     14  C   UNL     1      -1.273  11.913  20.471  0.00  0.00    +0.000 C 
ATOM     15  C   UNL     1      -0.518  11.060  19.505  0.00  0.00    +0.000 C 
BRANCH  12  16
ATOM     16  C   UNL     1      -1.294  13.293  23.067  0.00  0.00    +0.000 C 
ATOM     17  F   UNL     1      -1.260  12.018  23.557  0.00  0.00    +0.000 F 
ATOM     18  F   UNL     1      -1.196  14.113  24.152  0.00  0.00    +0.000 F 
ENDBRANCH  12  16
ENDBRANCH   4   8
BRANCH   1  21
ATOM     19  C   UNL     1       5.332   4.366  18.072  0.00  0.00    +0.000 C 
ATOM     20  C   UNL     1       4.908   5.809  18.125  0.00  0.00    +0.000 C 
ATOM     21  N   UNL     1       3.513   5.715  18.395  0.00  0.00    +0.000 N 
ATOM     22  C   UNL     1       3.067   4.464  18.006  0.00  0.00    +0.000 C 
ATOM     23  O   UNL     1       1.922   4.055  17.939  0.00  0.00    +0.000 OA
ATOM     24  O   UNL     1       4.150   3.705  17.594  0.00  0.00    +0.000 OA
BRANCH  19  25
ATOM     25  C   UNL     1       6.544   4.274  17.141  0.00  0.00    +0.000 C 
BRANCH  25  29
ATOM     26  C   UNL     1       6.204   3.862  13.415  0.00  0.00    +0.000 C 
ATOM     27  C   UNL     1       6.755   4.437  14.690  0.00  0.00    +0.000 C 
ATOM     28  O   UNL     1       7.502   5.407  14.725  0.00  0.00    +0.000 OA
ATOM     29  N   UNL     1       6.292   3.783  15.808  0.00  0.00    +0.000 N 
ATOM     30  H   UNL     1       5.484   3.185  15.686  0.00  0.00    +0.000 HD
ENDBRANCH  25  29
ENDBRANCH  19  25
ENDBRANCH   1  21
TORSDOF 5
ENDMDL
MODEL 2
REMARK VINA RESULT:      -8.5      3.494      9.599
REMARK  Name = 
REMARK  6 active torsions:
REMARK  status: ('A' for Active; 'I' for Inactive)
REMARK    1  A    between atoms: C_1  and  C_2
REMARK    2  A    between atoms: N_4  and  C_5
REMARK    3  A    between atoms: C_5  and  C_6
REMARK    4  A    between atoms: N_8  and  C_9
REMARK    5  A    between atoms: C_12  and  C_13
REMARK    6  A    between atoms: C_17  and  C_19
REMARK                            x       y       z     vdW  Elec       q    Type
REMARK                         _______ _______ _______ _____ _____    ______ ____
ROOT
ATOM      1  C   UNL     1       0.984   9.647  19.178  0.00  0.00    +0.000 A 
ATOM      2  C   UNL     1       1.689   9.369  18.008  0.00  0.00    +0.000 A 
ATOM      3  C   UNL     1       2.473   8.207  17.908  0.00  0.00    +0.000 A 
ATOM      4  C   UNL     1       2.532   7.280  18.960  0.00  0.00    +0.000 A 
ATOM      5  C   UNL     1       1.862   7.608  20.139  0.00  0.00    +0.000 A 
ATOM      6  F   UNL     1       1.859   6.748  21.170  0.00  0.00    +0.000 F 
ATOM      7  C   UNL     1       1.116   8.770  20.261  0.00  0.00    +0.000 A 
ENDROOT
BRANCH   4   8
ATOM      8  C   UNL     1       3.090   5.905  18.781  0.00  0.00    +0.000 C 
ATOM      9  C   UNL     1       3.614   5.347  17.484  0.00  0.00    +0.000 C 
ATOM     10  C   UNL     1       3.640   3.857  17.313  0.00  0.00    +0.000 C 
ATOM     11  N   UNL     1       4.382   3.392  18.487  0.00  0.00    +0.000 N 
ATOM     12  C   UNL     1       4.058   2.203  19.117  0.00  0.00    +0.000 C 
ATOM     13  O   UNL     1       3.157   1.471  18.691  0.00  0.00    +0.000 OA
ATOM     14  C   UNL     1       5.203   4.446  19.083  0.00  0.00    +0.000 C 
ATOM     15  C   UNL     1       4.575   5.697  18.562  0.00  0.00    +0.000 C 
BRANCH  12  16
ATOM     16  C   UNL     1       4.822   1.844  20.396  0.00  0.00    +0.000 C 
ATOM     17  F   UNL     1       4.018   1.796  21.499  0.00  0.00    +0.000 F 
ATOM     18  F   UNL     1       5.415   0.619  20.312  0.00  0.00    +0.000 F 
ENDBRANCH  12  16
ENDBRANCH   4   8
BRANCH   1  21
ATOM     19  C   UNL     1      -1.780  12.002  19.551  0.00  0.00    +0.000 C 
ATOM     20  C   UNL     1      -1.283  10.640  19.147  0.00  0.00    +0.000 C 
ATOM     21  N   UNL     1       0.128  10.763  19.303  0.00  0.00    +0.000 N 
ATOM     22  C   UNL     1       0.467  12.104  19.252  0.00  0.00    +0.000 C 
ATOM     23  O   UNL     1       1.575  12.604  19.200  0.00  0.00    +0.000 OA
ATOM     24  O   UNL     1      -0.692  12.861  19.177  0.00  0.00    +0.000 OA
BRANCH  19  25
ATOM     25  C   UNL     1      -3.090  12.256  18.801  0.00  0.00    +0.000 C 
BRANCH  25  29
ATOM     26  C   UNL     1      -3.881  10.683  15.475  0.00  0.00    +0.000 C 
ATOM     27  C   UNL     1      -4.160  11.145  16.877  0.00  0.00    +0.000 C 
ATOM     28  O   UNL     1      -5.186  10.871  17.487  0.00  0.00    +0.000 OA
ATOM     29  N   UNL     1      -3.118  11.868  17.411  0.00  0.00    +0.000 N 
ATOM     30  H   UNL     1      -2.227  11.805  16.935  0.00  0.00    +0.000 HD
ENDBRANCH  25  29
ENDBRANCH  19  25
ENDBRANCH   1  21
TORSDOF 5
ENDMDL
MODEL 3
REMARK VINA RESULT:      -8.5      3.413      9.950
REMARK  Name = 
REMARK  6 active torsions:
REMARK  status: ('A' for Active; 'I' for Inactive)
REMARK    1  A    between atoms: C_1  and  C_2
REMARK    2  A    between atoms: N_4  and  C_5
REMARK    3  A    between atoms: C_5  and  C_6
REMARK    4  A    between atoms: N_8  and  C_9
REMARK    5  A    between atoms: C_12  and  C_13
REMARK    6  A    between atoms: C_17  and  C_19
REMARK                            x       y       z     vdW  Elec       q    Type
REMARK                         _______ _______ _______ _____ _____    ______ ____
ROOT
ATOM      1  C   UNL     1       0.831   9.611  20.008  0.00  0.00    +0.000 A 
ATOM      2  C   UNL     1       1.113   8.540  20.856  0.00  0.00    +0.000 A 
ATOM      3  C   UNL     1       1.861   7.444  20.392  0.00  0.00    +0.000 A 
ATOM      4  C   UNL     1       2.375   7.417  19.087  0.00  0.00    +0.000 A 
ATOM      5  C   UNL     1       2.033   8.475  18.244  0.00  0.00    +0.000 A 
ATOM      6  F   UNL     1       2.519   8.520  16.993  0.00  0.00    +0.000 F 
ATOM      7  C   UNL     1       1.265   9.543  18.680  0.00  0.00    +0.000 A 
ENDROOT
BRANCH   4   8
ATOM      8  C   UNL     1       3.419   6.436  18.662  0.00  0.00    +0.000 C 
ATOM      9  C   UNL     1       3.857   5.238  19.462  0.00  0.00    +0.000 C 
ATOM     10  C   UNL     1       5.220   4.669  19.197  0.00  0.00    +0.000 C 
ATOM     11  N   UNL     1       5.215   4.431  17.753  0.00  0.00    +0.000 N 
ATOM     12  C   UNL     1       6.358   4.610  16.991  0.00  0.00    +0.000 C 
ATOM     13  O   UNL     1       7.432   4.938  17.507  0.00  0.00    +0.000 OA
ATOM     14  C   UNL     1       3.861   4.348  17.203  0.00  0.00    +0.000 C 
ATOM     15  C   UNL     1       3.034   5.032  18.242  0.00  0.00    +0.000 C 
BRANCH  12  16
ATOM     16  C   UNL     1       6.236   4.435  15.474  0.00  0.00    +0.000 C 
ATOM     17  F   UNL     1       5.433   5.375  14.894  0.00  0.00    +0.000 F 
ATOM     18  F   UNL     1       7.443   4.537  14.847  0.00  0.00    +0.000 F 
ENDBRANCH  12  16
ENDBRANCH   4   8
BRANCH   1  21
ATOM     19  C   UNL     1      -1.567  12.204  20.931  0.00  0.00    +0.000 C 
ATOM     20  C   UNL     1      -1.220  10.993  20.108  0.00  0.00    +0.000 C 
ATOM     21  N   UNL     1       0.145  10.766  20.446  0.00  0.00    +0.000 N 
ATOM     22  C   UNL     1       0.686  11.944  20.928  0.00  0.00    +0.000 C 
ATOM     23  O   UNL     1       1.850  12.196  21.181  0.00  0.00    +0.000 OA
ATOM     24  O   UNL     1      -0.314  12.899  21.017  0.00  0.00    +0.000 OA
BRANCH  19  25
ATOM     25  C   UNL     1      -2.676  12.959  20.195  0.00  0.00    +0.000 C 
BRANCH  25  29
ATOM     26  C   UNL     1      -4.695  11.196  17.553  0.00  0.00    +0.000 C 
ATOM     27  C   UNL     1      -4.470  11.976  18.817  0.00  0.00    +0.000 C 
ATOM     28  O   UNL     1      -5.352  12.206  19.635  0.00  0.00    +0.000 OA
ATOM     29  N   UNL     1      -3.158  12.360  18.973  0.00  0.00    +0.000 N 
ATOM     30  H   UNL     1      -2.473  11.895  18.391  0.00  0.00    +0.000 HD
ENDBRANCH  25  29
ENDBRANCH  19  25
ENDBRANCH   1  21
TORSDOF 5
ENDMDL
MODEL 4
REMARK VINA RESULT:      -8.3      3.360      9.797
REMARK  Name = 
REMARK  6 active torsions:
REMARK  status: ('A' for Active; 'I' for Inactive)
REMARK    1  A    between atoms: C_1  and  C_2
REMARK    2  A    between atoms: N_4  and  C_5
REMARK    3  A    between atoms: C_5  and  C_6
REMARK    4  A    between atoms: N_8  and  C_9
REMARK    5  A    between atoms: C_12  and  C_13
REMARK    6  A    between atoms: C_17  and  C_19
REMARK                            x       y       z     vdW  Elec       q    Type
REMARK                         _______ _______ _______ _____ _____    ______ ____
ROOT
ATOM      1  C   UNL     1       1.081   8.789  20.201  0.00  0.00    +0.000 A 
ATOM      2  C   UNL     1       1.371   7.575  20.824  0.00  0.00    +0.000 A 
ATOM      3  C   UNL     1       2.146   6.606  20.166  0.00  0.00    +0.000 A 
ATOM      4  C   UNL     1       2.682   6.848  18.893  0.00  0.00    +0.000 A 
ATOM      5  C   UNL     1       2.333   8.047  18.270  0.00  0.00    +0.000 A 
ATOM      6  F   UNL     1       2.838   8.347  17.063  0.00  0.00    +0.000 F 
ATOM      7  C   UNL     1       1.537   8.994  18.894  0.00  0.00    +0.000 A 
ENDROOT
BRANCH   4   8
ATOM      8  C   UNL     1       3.752   5.988  18.301  0.00  0.00    +0.000 C 
ATOM      9  C   UNL     1       4.247   4.693  18.892  0.00  0.00    +0.000 C 
ATOM     10  C   UNL     1       5.623   4.226  18.521  0.00  0.00    +0.000 C 
ATOM     11  N   UNL     1       5.599   4.224  17.057  0.00  0.00    +0.000 N 
ATOM     12  C   UNL     1       6.721   4.566  16.320  0.00  0.00    +0.000 C 
ATOM     13  O   UNL     1       7.792   4.847  16.867  0.00  0.00    +0.000 OA
ATOM     14  C   UNL     1       4.239   4.179  16.519  0.00  0.00    +0.000 C 
ATOM     15  C   UNL     1       3.408   4.656  17.665  0.00  0.00    +0.000 C 
BRANCH  12  16
ATOM     16  C   UNL     1       6.577   4.632  14.796  0.00  0.00    +0.000 C 
ATOM     17  F   UNL     1       7.663   5.191  14.184  0.00  0.00    +0.000 F 
ATOM     18  F   UNL     1       6.429   3.396  14.240  0.00  0.00    +0.000 F 
ENDBRANCH  12  16
ENDBRANCH   4   8
BRANCH   1  21
ATOM     19  C   UNL     1      -1.101  11.545  21.183  0.00  0.00    +0.000 C 
ATOM     20  C   UNL     1      -0.368  10.794  20.106  0.00  0.00    +0.000 C 
ATOM     21  N   UNL     1       0.365   9.822  20.846  0.00  0.00    +0.000 N 
ATOM     22  C   UNL     1       0.504  10.267  22.149  0.00  0.00    +0.000 C 
ATOM     23  O   UNL     1       1.184   9.796  23.042  0.00  0.00    +0.000 OA
ATOM     24  O   UNL     1      -0.211  11.444  22.305  0.00  0.00    +0.000 OA
BRANCH  19  25
ATOM     25  C   UNL     1      -1.338  12.969  20.673  0.00  0.00    +0.000 C 
BRANCH  25  29
ATOM     26  C   UNL     1       1.604  14.817  19.226  0.00  0.00    +0.000 C 
ATOM     27  C   UNL     1       0.256  14.154  19.211  0.00  0.00    +0.000 C 
ATOM     28  O   UNL     1      -0.379  13.936  18.186  0.00  0.00    +0.000 OA
ATOM     29  N   UNL     1      -0.162  13.779  20.468  0.00  0.00    +0.000 N 
ATOM     30  H   UNL     1       0.541  13.759  21.196  0.00  0.00    +0.000 HD
ENDBRANCH  25  29
ENDBRANCH  19  25
ENDBRANCH   1  21
TORSDOF 5
ENDMDL
MODEL 5
REMARK VINA RESULT:      -8.3      3.076      9.727
REMARK  Name = 
REMARK  6 active torsions:
REMARK  status: ('A' for Active; 'I' for Inactive)
REMARK    1  A    between atoms: C_1  and  C_2
REMARK    2  A    between atoms: N_4  and  C_5
REMARK    3  A    between atoms: C_5  and  C_6
REMARK    4  A    between atoms: N_8  and  C_9
REMARK    5  A    between atoms: C_12  and  C_13
REMARK    6  A    between atoms: C_17  and  C_19
REMARK                            x       y       z     vdW  Elec       q    Type
REMARK                         _______ _______ _______ _____ _____    ______ ____
ROOT
ATOM      1  C   UNL     1       0.956   8.872  20.523  0.00  0.00    +0.000 A 
ATOM      2  C   UNL     1       1.239   7.655  21.143  0.00  0.00    +0.000 A 
ATOM      3  C   UNL     1       2.004   6.680  20.480  0.00  0.00    +0.000 A 
ATOM      4  C   UNL     1       2.537   6.920  19.204  0.00  0.00    +0.000 A 
ATOM      5  C   UNL     1       2.194   8.122  18.585  0.00  0.00    +0.000 A 
ATOM      6  F   UNL     1       2.697   8.421  17.376  0.00  0.00    +0.000 F 
ATOM      7  C   UNL     1       1.409   9.075  19.214  0.00  0.00    +0.000 A 
ENDROOT
BRANCH   4   8
ATOM      8  C   UNL     1       3.597   6.052  18.607  0.00  0.00    +0.000 C 
ATOM      9  C   UNL     1       4.073   4.745  19.185  0.00  0.00    +0.000 C 
ATOM     10  C   UNL     1       5.444   4.264  18.814  0.00  0.00    +0.000 C 
ATOM     11  N   UNL     1       5.425   4.278  17.350  0.00  0.00    +0.000 N 
ATOM     12  C   UNL     1       6.553   4.613  16.620  0.00  0.00    +0.000 C 
ATOM     13  O   UNL     1       7.627   4.874  17.174  0.00  0.00    +0.000 OA
ATOM     14  C   UNL     1       4.066   4.256  16.807  0.00  0.00    +0.000 C 
ATOM     15  C   UNL     1       3.238   4.732  17.956  0.00  0.00    +0.000 C 
BRANCH  12  16
ATOM     16  C   UNL     1       6.415   4.697  15.096  0.00  0.00    +0.000 C 
ATOM     17  F   UNL     1       6.043   3.511  14.530  0.00  0.00    +0.000 F 
ATOM     18  F   UNL     1       5.471   5.605  14.716  0.00  0.00    +0.000 F 
ENDBRANCH  12  16
ENDBRANCH   4   8
BRANCH   1  21
ATOM     19  C   UNL     1      -1.090  11.735  21.491  0.00  0.00    +0.000 C 
ATOM     20  C   UNL     1      -0.282  11.013  20.446  0.00  0.00    +0.000 C 
ATOM     21  N   UNL     1       0.252   9.910  21.172  0.00  0.00    +0.000 N 
ATOM     22  C   UNL     1       0.246  10.219  22.521  0.00  0.00    +0.000 C 
ATOM     23  O   UNL     1       0.751   9.603  23.442  0.00  0.00    +0.000 OA
ATOM     24  O   UNL     1      -0.377  11.443  22.702  0.00  0.00    +0.000 OA
BRANCH  19  25
ATOM     25  C   UNL     1      -1.127  13.215  21.104  0.00  0.00    +0.000 C 
BRANCH  25  29
ATOM     26  C   UNL     1       2.053  14.942  20.068  0.00  0.00    +0.000 C 
ATOM     27  C   UNL     1       1.076  14.320  21.026  0.00  0.00    +0.000 C 
ATOM     28  O   UNL     1       1.194  14.379  22.244  0.00  0.00    +0.000 OA
ATOM     29  N   UNL     1       0.019  13.718  20.384  0.00  0.00    +0.000 N 
ATOM     30  H   UNL     1      -0.122  13.957  19.410  0.00  0.00    +0.000 HD
ENDBRANCH  25  29
ENDBRANCH  19  25
ENDBRANCH   1  21
TORSDOF 5
ENDMDL
MODEL 6
REMARK VINA RESULT:      -8.3      3.614     10.186
REMARK  Name = 
REMARK  6 active torsions:
REMARK  status: ('A' for Active; 'I' for Inactive)
REMARK    1  A    between atoms: C_1  and  C_2
REMARK    2  A    between atoms: N_4  and  C_5
REMARK    3  A    between atoms: C_5  and  C_6
REMARK    4  A    between atoms: N_8  and  C_9
REMARK    5  A    between atoms: C_12  and  C_13
REMARK    6  A    between atoms: C_17  and  C_19
REMARK                            x       y       z     vdW  Elec       q    Type
REMARK                         _______ _______ _______ _____ _____    ______ ____
ROOT
ATOM      1  C   UNL     1       1.171   8.536  20.269  0.00  0.00    +0.000 A 
ATOM      2  C   UNL     1       1.457   7.286  20.818  0.00  0.00    +0.000 A 
ATOM      3  C   UNL     1       2.219   6.351  20.098  0.00  0.00    +0.000 A 
ATOM      4  C   UNL     1       2.745   6.662  18.835  0.00  0.00    +0.000 A 
ATOM      5  C   UNL     1       2.399   7.897  18.285  0.00  0.00    +0.000 A 
ATOM      6  F   UNL     1       2.894   8.263  17.092  0.00  0.00    +0.000 F 
ATOM      7  C   UNL     1       1.616   8.812  18.971  0.00  0.00    +0.000 A 
ENDROOT
BRANCH   4   8
ATOM      8  C   UNL     1       3.802   5.830  18.184  0.00  0.00    +0.000 C 
ATOM      9  C   UNL     1       4.377   4.560  18.756  0.00  0.00    +0.000 C 
ATOM     10  C   UNL     1       5.741   4.134  18.301  0.00  0.00    +0.000 C 
ATOM     11  N   UNL     1       5.623   4.111  16.842  0.00  0.00    +0.000 N 
ATOM     12  C   UNL     1       6.682   4.480  16.030  0.00  0.00    +0.000 C 
ATOM     13  O   UNL     1       7.777   4.804  16.503  0.00  0.00    +0.000 OA
ATOM     14  C   UNL     1       4.233   4.014  16.395  0.00  0.00    +0.000 C 
ATOM     15  C   UNL     1       3.463   4.479  17.587  0.00  0.00    +0.000 C 
BRANCH  12  16
ATOM     16  C   UNL     1       6.438   4.521  14.518  0.00  0.00    +0.000 C 
ATOM     17  F   UNL     1       7.450   5.131  13.833  0.00  0.00    +0.000 F 
ATOM     18  F   UNL     1       6.324   3.273  13.982  0.00  0.00    +0.000 F 
ENDBRANCH  12  16
ENDBRANCH   4   8
BRANCH   1  21
ATOM     19  C   UNL     1      -1.055  11.172  21.461  0.00  0.00    +0.000 C 
ATOM     20  C   UNL     1      -0.402  10.447  20.315  0.00  0.00    +0.000 C 
ATOM     21  N   UNL     1       0.469   9.536  20.979  0.00  0.00    +0.000 N 
ATOM     22  C   UNL     1       0.726  10.011  22.253  0.00  0.00    +0.000 C 
ATOM     23  O   UNL     1       1.530   9.600  23.068  0.00  0.00    +0.000 OA
ATOM     24  O   UNL     1      -0.039  11.146  22.475  0.00  0.00    +0.000 OA
BRANCH  19  25
ATOM     25  C   UNL     1      -1.436  12.569  20.964  0.00  0.00    +0.000 C 
BRANCH  25  29
ATOM     26  C   UNL     1      -5.075  13.274  20.309  0.00  0.00    +0.000 C 
ATOM     27  C   UNL     1      -3.736  12.630  20.078  0.00  0.00    +0.000 C 
ATOM     28  O   UNL     1      -3.475  11.950  19.094  0.00  0.00    +0.000 OA
ATOM     29  N   UNL     1      -2.830  12.928  21.069  0.00  0.00    +0.000 N 
ATOM     30  H   UNL     1      -3.058  13.703  21.680  0.00  0.00    +0.000 HD
ENDBRANCH  25  29
ENDBRANCH  19  25
ENDBRANCH   1  21
TORSDOF 5
ENDMDL
MODEL 7
REMARK VINA RESULT:      -8.3      3.515     10.450
REMARK  Name = 
REMARK  6 active torsions:
REMARK  status: ('A' for Active; 'I' for Inactive)
REMARK    1  A    between atoms: C_1  and  C_2
REMARK    2  A    between atoms: N_4  and  C_5
REMARK    3  A    between atoms: C_5  and  C_6
REMARK    4  A    between atoms: N_8  and  C_9
REMARK    5  A    between atoms: C_12  and  C_13
REMARK    6  A    between atoms: C_17  and  C_19
REMARK                            x       y       z     vdW  Elec       q    Type
REMARK                         _______ _______ _______ _____ _____    ______ ____
ROOT
ATOM      1  C   UNL     1       0.885   9.285  20.093  0.00  0.00    +0.000 A 
ATOM      2  C   UNL     1       1.213   8.170  20.864  0.00  0.00    +0.000 A 
ATOM      3  C   UNL     1       2.008   7.143  20.326  0.00  0.00    +0.000 A 
ATOM      4  C   UNL     1       2.524   7.231  19.024  0.00  0.00    +0.000 A 
ATOM      5  C   UNL     1       2.136   8.330  18.257  0.00  0.00    +0.000 A 
ATOM      6  F   UNL     1       2.620   8.484  17.014  0.00  0.00    +0.000 F 
ATOM      7  C   UNL     1       1.322   9.330  18.764  0.00  0.00    +0.000 A 
ENDROOT
BRANCH   4   8
ATOM      8  C   UNL     1       3.609   6.329  18.534  0.00  0.00    +0.000 C 
ATOM      9  C   UNL     1       4.148   5.138  19.283  0.00  0.00    +0.000 C 
ATOM     10  C   UNL     1       5.532   4.662  18.955  0.00  0.00    +0.000 C 
ATOM     11  N   UNL     1       5.490   4.465  17.505  0.00  0.00    +0.000 N 
ATOM     12  C   UNL     1       6.592   4.735  16.711  0.00  0.00    +0.000 C 
ATOM     13  O   UNL     1       7.662   5.115  17.199  0.00  0.00    +0.000 OA
ATOM     14  C   UNL     1       4.125   4.313  17.000  0.00  0.00    +0.000 C 
ATOM     15  C   UNL     1       3.296   4.916  18.086  0.00  0.00    +0.000 C 
BRANCH  12  16
ATOM     16  C   UNL     1       6.427   4.596  15.194  0.00  0.00    +0.000 C 
ATOM     17  F   UNL     1       7.498   5.080  14.497  0.00  0.00    +0.000 F 
ATOM     18  F   UNL     1       6.289   3.294  14.811  0.00  0.00    +0.000 F 
ENDBRANCH  12  16
ENDBRANCH   4   8
BRANCH   1  21
ATOM     19  C   UNL     1      -0.807  11.818  22.104  0.00  0.00    +0.000 C 
ATOM     20  C   UNL     1      -0.236  10.432  21.979  0.00  0.00    +0.000 C 
ATOM     21  N   UNL     1       0.149  10.375  20.608  0.00  0.00    +0.000 N 
ATOM     22  C   UNL     1      -0.573  11.322  19.903  0.00  0.00    +0.000 C 
ATOM     23  O   UNL     1      -0.638  11.484  18.699  0.00  0.00    +0.000 OA
ATOM     24  O   UNL     1      -1.334  12.066  20.792  0.00  0.00    +0.000 OA
BRANCH  19  25
ATOM     25  C   UNL     1      -1.850  11.788  23.224  0.00  0.00    +0.000 C 
BRANCH  25  29
ATOM     26  C   UNL     1      -4.345  14.605  23.258  0.00  0.00    +0.000 C 
ATOM     27  C   UNL     1      -3.875  13.188  23.089  0.00  0.00    +0.000 C 
ATOM     28  O   UNL     1      -4.575  12.296  22.625  0.00  0.00    +0.000 OA
ATOM     29  N   UNL     1      -2.564  13.018  23.468  0.00  0.00    +0.000 N 
ATOM     30  H   UNL     1      -2.007  13.857  23.576  0.00  0.00    +0.000 HD
ENDBRANCH  25  29
ENDBRANCH  19  25
ENDBRANCH   1  21
TORSDOF 5
ENDMDL
MODEL 8
REMARK VINA RESULT:      -8.2      3.340     10.351
REMARK  Name = 
REMARK  6 active torsions:
REMARK  status: ('A' for Active; 'I' for Inactive)
REMARK    1  A    between atoms: C_1  and  C_2
REMARK    2  A    between atoms: N_4  and  C_5
REMARK    3  A    between atoms: C_5  and  C_6
REMARK    4  A    between atoms: N_8  and  C_9
REMARK    5  A    between atoms: C_12  and  C_13
REMARK    6  A    between atoms: C_17  and  C_19
REMARK                            x       y       z     vdW  Elec       q    Type
REMARK                         _______ _______ _______ _____ _____    ______ ____
ROOT
ATOM      1  C   UNL     1       0.669   9.615  19.985  0.00  0.00    +0.000 A 
ATOM      2  C   UNL     1       0.960   8.555  20.843  0.00  0.00    +0.000 A 
ATOM      3  C   UNL     1       1.746   7.478  20.400  0.00  0.00    +0.000 A 
ATOM      4  C   UNL     1       2.290   7.460  19.106  0.00  0.00    +0.000 A 
ATOM      5  C   UNL     1       1.938   8.505  18.251  0.00  0.00    +0.000 A 
ATOM      6  F   UNL     1       2.450   8.558  17.011  0.00  0.00    +0.000 F 
ATOM      7  C   UNL     1       1.133   9.554  18.666  0.00  0.00    +0.000 A 
ENDROOT
BRANCH   4   8
ATOM      8  C   UNL     1       3.368   6.505  18.708  0.00  0.00    +0.000 C 
ATOM      9  C   UNL     1       3.860   5.356  19.548  0.00  0.00    +0.000 C 
ATOM     10  C   UNL     1       5.242   4.832  19.291  0.00  0.00    +0.000 C 
ATOM     11  N   UNL     1       5.234   4.539  17.857  0.00  0.00    +0.000 N 
ATOM     12  C   UNL     1       6.362   4.733  17.078  0.00  0.00    +0.000 C 
ATOM     13  O   UNL     1       7.427   5.123  17.570  0.00  0.00    +0.000 OA
ATOM     14  C   UNL     1       3.880   4.381  17.325  0.00  0.00    +0.000 C 
ATOM     15  C   UNL     1       3.036   5.072  18.345  0.00  0.00    +0.000 C 
BRANCH  12  16
ATOM     16  C   UNL     1       6.235   4.496  15.570  0.00  0.00    +0.000 C 
ATOM     17  F   UNL     1       5.528   5.478  14.936  0.00  0.00    +0.000 F 
ATOM     18  F   UNL     1       7.450   4.453  14.952  0.00  0.00    +0.000 F 
ENDBRANCH  12  16
ENDBRANCH   4   8
BRANCH   1  21
ATOM     19  C   UNL     1      -0.675  12.593  21.614  0.00  0.00    +0.000 C 
ATOM     20  C   UNL     1       0.140  11.330  21.690  0.00  0.00    +0.000 C 
ATOM     21  N   UNL     1      -0.057  10.753  20.402  0.00  0.00    +0.000 N 
ATOM     22  C   UNL     1      -1.222  11.265  19.858  0.00  0.00    +0.000 C 
ATOM     23  O   UNL     1      -1.804  10.916  18.848  0.00  0.00    +0.000 OA
ATOM     24  O   UNL     1      -1.728  12.238  20.706  0.00  0.00    +0.000 OA
BRANCH  19  25
ATOM     25  C   UNL     1      -1.134  12.932  23.034  0.00  0.00    +0.000 C 
BRANCH  25  29
ATOM     26  C   UNL     1      -4.542  12.395  24.539  0.00  0.00    +0.000 C 
ATOM     27  C   UNL     1      -3.378  13.193  24.023  0.00  0.00    +0.000 C 
ATOM     28  O   UNL     1      -3.282  14.407  24.151  0.00  0.00    +0.000 OA
ATOM     29  N   UNL     1      -2.416  12.404  23.436  0.00  0.00    +0.000 N 
ATOM     30  H   UNL     1      -2.463  11.410  23.622  0.00  0.00    +0.000 HD
ENDBRANCH  25  29
ENDBRANCH  19  25
ENDBRANCH   1  21
TORSDOF 5
ENDMDL
MODEL 9
REMARK VINA RESULT:      -8.2      3.359     10.244
REMARK  Name = 
REMARK  6 active torsions:
REMARK  status: ('A' for Active; 'I' for Inactive)
REMARK    1  A    between atoms: C_1  and  C_2
REMARK    2  A    between atoms: N_4  and  C_5
REMARK    3  A    between atoms: C_5  and  C_6
REMARK    4  A    between atoms: N_8  and  C_9
REMARK    5  A    between atoms: C_12  and  C_13
REMARK    6  A    between atoms: C_17  and  C_19
REMARK                            x       y       z     vdW  Elec       q    Type
REMARK                         _______ _______ _______ _____ _____    ______ ____
ROOT
ATOM      1  C   UNL     1       1.432   8.278  20.239  0.00  0.00    +0.000 A 
ATOM      2  C   UNL     1       1.809   7.016  20.699  0.00  0.00    +0.000 A 
ATOM      3  C   UNL     1       2.599   6.174  19.898  0.00  0.00    +0.000 A 
ATOM      4  C   UNL     1       3.063   6.594  18.642  0.00  0.00    +0.000 A 
ATOM      5  C   UNL     1       2.629   7.838  18.183  0.00  0.00    +0.000 A 
ATOM      6  F   UNL     1       3.062   8.306  17.002  0.00  0.00    +0.000 F 
ATOM      7  C   UNL     1       1.818   8.661  18.949  0.00  0.00    +0.000 A 
ENDROOT
BRANCH   4   8
ATOM      8  C   UNL     1       4.145   5.869  17.909  0.00  0.00    +0.000 C 
ATOM      9  C   UNL     1       5.302   5.155  18.558  0.00  0.00    +0.000 C 
ATOM     10  C   UNL     1       6.547   4.944  17.749  0.00  0.00    +0.000 C 
ATOM     11  N   UNL     1       6.059   4.278  16.540  0.00  0.00    +0.000 N 
ATOM     12  C   UNL     1       6.628   4.527  15.302  0.00  0.00    +0.000 C 
ATOM     13  O   UNL     1       7.592   5.291  15.177  0.00  0.00    +0.000 OA
ATOM     14  C   UNL     1       4.754   3.646  16.737  0.00  0.00    +0.000 C 
ATOM     15  C   UNL     1       4.215   4.355  17.936  0.00  0.00    +0.000 C 
BRANCH  12  16
ATOM     16  C   UNL     1       5.990   3.862  14.079  0.00  0.00    +0.000 C 
ATOM     17  F   UNL     1       4.824   4.462  13.696  0.00  0.00    +0.000 F 
ATOM     18  F   UNL     1       6.807   3.903  12.988  0.00  0.00    +0.000 F 
ENDBRANCH  12  16
ENDBRANCH   4   8
BRANCH   1  21
ATOM     19  C   UNL     1      -0.927  10.662  21.679  0.00  0.00    +0.000 C 
ATOM     20  C   UNL     1      -0.299  10.033  20.465  0.00  0.00    +0.000 C 
ATOM     21  N   UNL     1       0.699   9.188  21.032  0.00  0.00    +0.000 N 
ATOM     22  C   UNL     1       1.006   9.650  22.300  0.00  0.00    +0.000 C 
ATOM     23  O   UNL     1       1.903   9.292  23.040  0.00  0.00    +0.000 OA
ATOM     24  O   UNL     1       0.160  10.702  22.616  0.00  0.00    +0.000 OA
BRANCH  19  25
ATOM     25  C   UNL     1      -1.469  12.031  21.260  0.00  0.00    +0.000 C 
BRANCH  25  29
ATOM     26  C   UNL     1      -1.431  14.569  24.039  0.00  0.00    +0.000 C 
ATOM     27  C   UNL     1      -0.933  13.881  22.800  0.00  0.00    +0.000 C 
ATOM     28  O   UNL     1       0.158  14.111  22.292  0.00  0.00    +0.000 OA
ATOM     29  N   UNL     1      -1.816  12.937  22.329  0.00  0.00    +0.000 N 
ATOM     30  H   UNL     1      -2.547  12.639  22.962  0.00  0.00    +0.000 HD
ENDBRANCH  25  29
ENDBRANCH  19  25
ENDBRANCH   1  21
TORSDOF 5
ENDMDL
