MODEL 1
REMARK VINA RESULT:      -8.3      0.000      0.000
REMARK  Name = 
REMARK  9 active torsions:
REMARK  status: ('A' for Active; 'I' for Inactive)
REMARK    1  A    between atoms: O5*_1  and  C5*_2
REMARK    2  A    between atoms: C5*_2  and  C4*_3
REMARK    3  A    between atoms: C1*_5  and  N_6
REMARK    4  A    between atoms: N_11  and  C_12
REMARK    5  A    between atoms: N_20  and  C_21
REMARK    6  A    between atoms: C_21  and  C_22
REMARK    7  A    between atoms: C_22  and  C_23
REMARK    8  A    between atoms: C2*_30  and  O2*_31
REMARK    9  A    between atoms: C3*_32  and  O3*_33
REMARK                            x       y       z     vdW  Elec       q    Type
REMARK                         _______ _______ _______ _____ _____    ______ ____
ROOT
ATOM      1  N   UNL     1       4.561   4.243  18.300  0.00  0.00    +0.000 N 
ATOM      2  C   UNL     1       4.293   3.315  17.331  0.00  0.00    +0.000 A 
ATOM      3  N   UNL     1       5.114   3.420  16.313  0.00  0.00    +0.000 NA
ATOM      4  C   UNL     1       5.940   4.481  16.627  0.00  0.00    +0.000 A 
ATOM      5  C   UNL     1       7.005   5.097  15.946  0.00  0.00    +0.000 A 
ATOM      6  N   UNL     1       7.489   4.666  14.706  0.00  0.00    +0.000 N 
ATOM      7  N   UNL     1       7.605   6.163  16.544  0.00  0.00    +0.000 NA
ATOM      8  C   UNL     1       7.185   6.581  17.754  0.00  0.00    +0.000 A 
ATOM      9  N   UNL     1       7.725   7.724  18.304  0.00  0.00    +0.000 N 
ATOM     10  N   UNL     1       6.233   5.999  18.501  0.00  0.00    +0.000 NA
ATOM     11  C   UNL     1       5.622   4.987  17.872  0.00  0.00    +0.000 A 
ATOM     12  H   UNL     1       8.388   5.066  14.480  0.00  0.00    +0.000 HD
ATOM     13  H   UNL     1       8.239   7.513  19.148  0.00  0.00    +0.000 HD
ENDROOT
BRANCH   6  14
ATOM     14  C   UNL     1       6.743   4.206  13.607  0.00  0.00    +0.000 A 
ATOM     15  C   UNL     1       5.340   4.185  13.616  0.00  0.00    +0.000 A 
ATOM     16  C   UNL     1       4.618   3.653  12.547  0.00  0.00    +0.000 A 
ATOM     17  C   UNL     1       5.291   3.136  11.451  0.00  0.00    +0.000 A 
ATOM     18  C   UNL     1       6.685   3.153  11.421  0.00  0.00    +0.000 A 
ATOM     19  C   UNL     1       7.405   3.692  12.490  0.00  0.00    +0.000 A 
ENDBRANCH   6  14
BRANCH   1  22
ATOM     20  C4* UNL     1       2.009   3.194  20.427  0.00  0.00    +0.000 C 
ATOM     21  O4* UNL     1       3.370   3.048  19.959  0.00  0.00    +0.000 OA
ATOM     22  C1* UNL     1       3.843   4.351  19.548  0.00  0.00    +0.000 C 
ATOM     23  C2* UNL     1       2.654   5.303  19.509  0.00  0.00    +0.000 C 
ATOM     24  C3* UNL     1       1.763   4.697  20.583  0.00  0.00    +0.000 C 
BRANCH  23  25
ATOM     25  O2* UNL     1       3.030   6.644  19.836  0.00  0.00    +0.000 OA
ATOM     26  H2* UNL     1       2.195   7.103  20.071  0.00  0.00    +0.000 HD
ENDBRANCH  23  25
BRANCH  24  27
ATOM     27  O3* UNL     1       2.248   5.198  21.850  0.00  0.00    +0.000 OA
ATOM     28  H3* UNL     1       1.485   5.417  22.415  0.00  0.00    +0.000 HD
ENDBRANCH  24  27
BRANCH  20  29
ATOM     29  C5* UNL     1       1.051   2.503  19.453  0.00  0.00    +0.000 C 
BRANCH  29  30
ATOM     30  O5* UNL     1       1.726   1.471  18.744  0.00  0.00    +0.000 OA
ATOM     31  H5* UNL     1       1.124   1.190  18.027  0.00  0.00    +0.000 HD
ENDBRANCH  29  30
ENDBRANCH  20  29
ENDBRANCH   1  22
BRANCH   9  32
ATOM     32  C   UNL     1       8.256   8.755  17.432  0.00  0.00    +0.000 C 
BRANCH  32  33
ATOM     33  C   UNL     1       8.051  10.141  18.077  0.00  0.00    +0.000 C 
BRANCH  33  34
ATOM     34  C   UNL     1       9.331  10.794  18.503  0.00  0.00    +0.000 A 
ATOM     35  C   UNL     1      10.355  11.395  17.802  0.00  0.00    +0.000 A 
ATOM     36  N   UNL     1      11.352  11.810  18.645  0.00  0.00    +0.000 NA
ATOM     37  C   UNL     1      10.940  11.499  19.848  0.00  0.00    +0.000 A 
ATOM     38  N   UNL     1       9.722  10.880  19.817  0.00  0.00    +0.000 N 
ATOM     39  H   UNL     1       9.212  10.539  20.621  0.00  0.00    +0.000 HD
ENDBRANCH  33  34
ENDBRANCH  32  33
ENDBRANCH   9  32
TORSDOF 9
ENDMDL
MODEL 2
REMARK VINA RESULT:      -7.9      0.447      1.051
REMARK  Name = 
REMARK  9 active torsions:
REMARK  status: ('A' for Active; 'I' for Inactive)
REMARK    1  A    between atoms: O5*_1  and  C5*_2
REMARK    2  A    between atoms: C5*_2  and  C4*_3
REMARK    3  A    between atoms: C1*_5  and  N_6
REMARK    4  A    between atoms: N_11  and  C_12
REMARK    5  A    between atoms: N_20  and  C_21
REMARK    6  A    between atoms: C_21  and  C_22
REMARK    7  A    between atoms: C_22  and  C_23
REMARK    8  A    between atoms: C2*_30  and  O2*_31
REMARK    9  A    between atoms: C3*_32  and  O3*_33
REMARK                            x       y       z     vdW  Elec       q    Type
REMARK                         _______ _______ _______ _____ _____    ______ ____
ROOT
ATOM      1  N   UNL     1       4.505   4.246  18.336  0.00  0.00    +0.000 N 
ATOM      2  C   UNL     1       4.234   3.304  17.381  0.00  0.00    +0.000 A 
ATOM      3  N   UNL     1       5.060   3.386  16.365  0.00  0.00    +0.000 NA
ATOM      4  C   UNL     1       5.894   4.445  16.665  0.00  0.00    +0.000 A 
ATOM      5  C   UNL     1       6.967   5.041  15.979  0.00  0.00    +0.000 A 
ATOM      6  N   UNL     1       7.453   4.586  14.749  0.00  0.00    +0.000 N 
ATOM      7  N   UNL     1       7.572   6.112  16.563  0.00  0.00    +0.000 NA
ATOM      8  C   UNL     1       7.150   6.555  17.763  0.00  0.00    +0.000 A 
ATOM      9  N   UNL     1       7.697   7.702  18.296  0.00  0.00    +0.000 N 
ATOM     10  N   UNL     1       6.190   5.993  18.515  0.00  0.00    +0.000 NA
ATOM     11  C   UNL     1       5.573   4.975  17.900  0.00  0.00    +0.000 A 
ATOM     12  H   UNL     1       8.356   4.975  14.521  0.00  0.00    +0.000 HD
ATOM     13  H   UNL     1       8.204   7.501  19.146  0.00  0.00    +0.000 HD
ENDROOT
BRANCH   6  14
ATOM     14  C   UNL     1       6.709   4.114  13.655  0.00  0.00    +0.000 A 
ATOM     15  C   UNL     1       7.321   3.680  12.469  0.00  0.00    +0.000 A 
ATOM     16  C   UNL     1       6.563   3.288  11.365  0.00  0.00    +0.000 A 
ATOM     17  C   UNL     1       5.179   3.323  11.433  0.00  0.00    +0.000 A 
ATOM     18  C   UNL     1       4.552   3.747  12.604  0.00  0.00    +0.000 A 
ATOM     19  C   UNL     1       5.313   4.132  13.709  0.00  0.00    +0.000 A 
ENDBRANCH   6  14
BRANCH   1  22
ATOM     20  C4* UNL     1       1.944   3.242  20.474  0.00  0.00    +0.000 C 
ATOM     21  O4* UNL     1       3.308   3.088  20.015  0.00  0.00    +0.000 OA
ATOM     22  C1* UNL     1       3.782   4.381  19.578  0.00  0.00    +0.000 C 
ATOM     23  C2* UNL     1       2.592   5.332  19.513  0.00  0.00    +0.000 C 
ATOM     24  C3* UNL     1       1.697   4.748  20.597  0.00  0.00    +0.000 C 
BRANCH  23  25
ATOM     25  O2* UNL     1       2.966   6.679  19.812  0.00  0.00    +0.000 OA
ATOM     26  H2* UNL     1       2.147   7.211  19.706  0.00  0.00    +0.000 HD
ENDBRANCH  23  25
BRANCH  24  27
ATOM     27  O3* UNL     1       2.177   5.276  21.854  0.00  0.00    +0.000 OA
ATOM     28  H3* UNL     1       1.569   5.976  22.155  0.00  0.00    +0.000 HD
ENDBRANCH  24  27
BRANCH  20  29
ATOM     29  C5* UNL     1       0.991   2.529  19.512  0.00  0.00    +0.000 C 
BRANCH  29  30
ATOM     30  O5* UNL     1       1.649   1.437  18.883  0.00  0.00    +0.000 OA
ATOM     31  H5* UNL     1       2.490   1.307  19.363  0.00  0.00    +0.000 HD
ENDBRANCH  29  30
ENDBRANCH  20  29
ENDBRANCH   1  22
BRANCH   9  32
ATOM     32  C   UNL     1       8.240   8.714  17.410  0.00  0.00    +0.000 C 
BRANCH  32  33
ATOM     33  C   UNL     1       8.106  10.105  18.061  0.00  0.00    +0.000 C 
BRANCH  33  34
ATOM     34  C   UNL     1       9.420  10.697  18.474  0.00  0.00    +0.000 A 
ATOM     35  C   UNL     1       9.972  10.988  19.704  0.00  0.00    +0.000 A 
ATOM     36  N   UNL     1      11.203  11.574  19.566  0.00  0.00    +0.000 NA
ATOM     37  C   UNL     1      11.422  11.617  18.276  0.00  0.00    +0.000 A 
ATOM     38  N   UNL     1      10.373  11.100  17.570  0.00  0.00    +0.000 N 
ATOM     39  H   UNL     1      10.312  11.038  16.562  0.00  0.00    +0.000 HD
ENDBRANCH  33  34
ENDBRANCH  32  33
ENDBRANCH   9  32
TORSDOF 9
ENDMDL
MODEL 3
REMARK VINA RESULT:      -7.7      5.790     12.066
REMARK  Name = 
REMARK  9 active torsions:
REMARK  status: ('A' for Active; 'I' for Inactive)
REMARK    1  A    between atoms: O5*_1  and  C5*_2
REMARK    2  A    between atoms: C5*_2  and  C4*_3
REMARK    3  A    between atoms: C1*_5  and  N_6
REMARK    4  A    between atoms: N_11  and  C_12
REMARK    5  A    between atoms: N_20  and  C_21
REMARK    6  A    between atoms: C_21  and  C_22
REMARK    7  A    between atoms: C_22  and  C_23
REMARK    8  A    between atoms: C2*_30  and  O2*_31
REMARK    9  A    between atoms: C3*_32  and  O3*_33
REMARK                            x       y       z     vdW  Elec       q    Type
REMARK                         _______ _______ _______ _____ _____    ______ ____
ROOT
ATOM      1  N   UNL     1      10.122  14.601  20.164  0.00  0.00    +0.000 N 
ATOM      2  C   UNL     1       9.910  15.205  21.373  0.00  0.00    +0.000 A 
ATOM      3  N   UNL     1       9.532  14.347  22.289  0.00  0.00    +0.000 NA
ATOM      4  C   UNL     1       9.474  13.130  21.638  0.00  0.00    +0.000 A 
ATOM      5  C   UNL     1       9.123  11.835  22.060  0.00  0.00    +0.000 A 
ATOM      6  N   UNL     1       8.767  11.516  23.375  0.00  0.00    +0.000 N 
ATOM      7  N   UNL     1       9.152  10.839  21.133  0.00  0.00    +0.000 NA
ATOM      8  C   UNL     1       9.524  11.108  19.866  0.00  0.00    +0.000 A 
ATOM      9  N   UNL     1       9.448  10.117  18.911  0.00  0.00    +0.000 N 
ATOM     10  N   UNL     1       9.948  12.295  19.406  0.00  0.00    +0.000 NA
ATOM     11  C   UNL     1       9.861  13.271  20.320  0.00  0.00    +0.000 A 
ATOM     12  H   UNL     1       8.776  10.521  23.548  0.00  0.00    +0.000 HD
ATOM     13  H   UNL     1      10.365   9.877  18.563  0.00  0.00    +0.000 HD
ENDROOT
BRANCH   6  14
ATOM     14  C   UNL     1       7.977  12.272  24.257  0.00  0.00    +0.000 A 
ATOM     15  C   UNL     1       8.445  12.675  25.517  0.00  0.00    +0.000 A 
ATOM     16  C   UNL     1       7.619  13.358  26.411  0.00  0.00    +0.000 A 
ATOM     17  C   UNL     1       6.312  13.650  26.055  0.00  0.00    +0.000 A 
ATOM     18  C   UNL     1       5.830  13.263  24.805  0.00  0.00    +0.000 A 
ATOM     19  C   UNL     1       6.661  12.585  23.910  0.00  0.00    +0.000 A 
ENDBRANCH   6  14
BRANCH   1  22
ATOM     20  C4* UNL     1      10.273  17.474  18.199  0.00  0.00    +0.000 C 
ATOM     21  O4* UNL     1      10.822  16.679  19.275  0.00  0.00    +0.000 OA
ATOM     22  C1* UNL     1      10.572  15.287  18.976  0.00  0.00    +0.000 C 
ATOM     23  C2* UNL     1       9.602  15.215  17.802  0.00  0.00    +0.000 C 
ATOM     24  C3* UNL     1       9.948  16.500  17.063  0.00  0.00    +0.000 C 
BRANCH  23  25
ATOM     25  O2* UNL     1       9.832  14.064  16.986  0.00  0.00    +0.000 OA
ATOM     26  H2* UNL     1       9.631  13.291  17.557  0.00  0.00    +0.000 HD
ENDBRANCH  23  25
BRANCH  24  27
ATOM     27  O3* UNL     1      11.107  16.207  16.250  0.00  0.00    +0.000 OA
ATOM     28  H3* UNL     1      11.621  15.499  16.678  0.00  0.00    +0.000 HD
ENDBRANCH  24  27
BRANCH  20  29
ATOM     29  C5* UNL     1       9.066  18.267  18.706  0.00  0.00    +0.000 C 
BRANCH  29  30
ATOM     30  O5* UNL     1       8.203  17.426  19.461  0.00  0.00    +0.000 OA
ATOM     31  H5* UNL     1       8.524  16.512  19.328  0.00  0.00    +0.000 HD
ENDBRANCH  29  30
ENDBRANCH  20  29
ENDBRANCH   1  22
BRANCH   9  32
ATOM     32  C   UNL     1       8.485   9.044  19.069  0.00  0.00    +0.000 C 
BRANCH  32  33
ATOM     33  C   UNL     1       8.110   8.470  17.687  0.00  0.00    +0.000 C 
BRANCH  33  34
ATOM     34  C   UNL     1       7.748   7.016  17.725  0.00  0.00    +0.000 A 
ATOM     35  C   UNL     1       7.705   6.087  18.743  0.00  0.00    +0.000 A 
ATOM     36  N   UNL     1       7.351   4.852  18.268  0.00  0.00    +0.000 NA
ATOM     37  C   UNL     1       7.149   5.019  16.985  0.00  0.00    +0.000 A 
ATOM     38  N   UNL     1       7.377   6.311  16.605  0.00  0.00    +0.000 N 
ATOM     39  H   UNL     1       7.297   6.674  15.664  0.00  0.00    +0.000 HD
ENDBRANCH  33  34
ENDBRANCH  32  33
ENDBRANCH   9  32
TORSDOF 9
ENDMDL
MODEL 4
REMARK VINA RESULT:      -7.6      5.932     12.128
REMARK  Name = 
REMARK  9 active torsions:
REMARK  status: ('A' for Active; 'I' for Inactive)
REMARK    1  A    between atoms: O5*_1  and  C5*_2
REMARK    2  A    between atoms: C5*_2  and  C4*_3
REMARK    3  A    between atoms: C1*_5  and  N_6
REMARK    4  A    between atoms: N_11  and  C_12
REMARK    5  A    between atoms: N_20  and  C_21
REMARK    6  A    between atoms: C_21  and  C_22
REMARK    7  A    between atoms: C_22  and  C_23
REMARK    8  A    between atoms: C2*_30  and  O2*_31
REMARK    9  A    between atoms: C3*_32  and  O3*_33
REMARK                            x       y       z     vdW  Elec       q    Type
REMARK                         _______ _______ _______ _____ _____    ______ ____
ROOT
ATOM      1  N   UNL     1       9.562  15.095  20.040  0.00  0.00    +0.000 N 
ATOM      2  C   UNL     1       9.288  15.694  21.240  0.00  0.00    +0.000 A 
ATOM      3  N   UNL     1       9.092  14.813  22.192  0.00  0.00    +0.000 NA
ATOM      4  C   UNL     1       9.223  13.584  21.576  0.00  0.00    +0.000 A 
ATOM      5  C   UNL     1       9.114  12.263  22.046  0.00  0.00    +0.000 A 
ATOM      6  N   UNL     1       8.860  11.931  23.381  0.00  0.00    +0.000 N 
ATOM      7  N   UNL     1       9.283  11.257  21.145  0.00  0.00    +0.000 NA
ATOM      8  C   UNL     1       9.563  11.543  19.858  0.00  0.00    +0.000 A 
ATOM      9  N   UNL     1       9.628  10.524  18.933  0.00  0.00    +0.000 N 
ATOM     10  N   UNL     1       9.763  12.770  19.351  0.00  0.00    +0.000 NA
ATOM     11  C   UNL     1       9.539  13.746  20.241  0.00  0.00    +0.000 A 
ATOM     12  H   UNL     1       9.045  10.959  23.580  0.00  0.00    +0.000 HD
ATOM     13  H   UNL     1      10.561  10.433  18.558  0.00  0.00    +0.000 HD
ENDROOT
BRANCH   6  14
ATOM     14  C   UNL     1       7.980  12.570  24.271  0.00  0.00    +0.000 A 
ATOM     15  C   UNL     1       6.607  12.680  24.010  0.00  0.00    +0.000 A 
ATOM     16  C   UNL     1       5.761  13.385  24.868  0.00  0.00    +0.000 A 
ATOM     17  C   UNL     1       6.280  13.990  26.002  0.00  0.00    +0.000 A 
ATOM     18  C   UNL     1       7.642  13.887  26.282  0.00  0.00    +0.000 A 
ATOM     19  C   UNL     1       8.484  13.175  25.425  0.00  0.00    +0.000 A 
ENDBRANCH   6  14
BRANCH   1  22
ATOM     20  C4* UNL     1      11.085  15.250  16.910  0.00  0.00    +0.000 C 
ATOM     21  O4* UNL     1       9.941  14.879  17.715  0.00  0.00    +0.000 OA
ATOM     22  C1* UNL     1       9.850  15.808  18.818  0.00  0.00    +0.000 C 
ATOM     23  C2* UNL     1      11.131  16.633  18.858  0.00  0.00    +0.000 C 
ATOM     24  C3* UNL     1      11.516  16.640  17.386  0.00  0.00    +0.000 C 
BRANCH  23  25
ATOM     25  O2* UNL     1      10.901  17.958  19.345  0.00  0.00    +0.000 OA
ATOM     26  H2* UNL     1       9.941  18.005  19.543  0.00  0.00    +0.000 HD
ENDBRANCH  23  25
BRANCH  24  27
ATOM     27  O3* UNL     1      10.742  17.691  16.763  0.00  0.00    +0.000 OA
ATOM     28  H3* UNL     1      11.352  18.355  16.395  0.00  0.00    +0.000 HD
ENDBRANCH  24  27
BRANCH  20  29
ATOM     29  C5* UNL     1      12.173  14.181  17.036  0.00  0.00    +0.000 C 
BRANCH  29  30
ATOM     30  O5* UNL     1      12.099  13.269  15.948  0.00  0.00    +0.000 OA
ATOM     31  H5* UNL     1      11.861  13.796  15.161  0.00  0.00    +0.000 HD
ENDBRANCH  29  30
ENDBRANCH  20  29
ENDBRANCH   1  22
BRANCH   9  32
ATOM     32  C   UNL     1       8.869   9.307  19.156  0.00  0.00    +0.000 C 
BRANCH  32  33
ATOM     33  C   UNL     1       8.166   8.884  17.850  0.00  0.00    +0.000 C 
BRANCH  33  34
ATOM     34  C   UNL     1       7.756   7.442  17.835  0.00  0.00    +0.000 A 
ATOM     35  C   UNL     1       7.007   6.690  16.955  0.00  0.00    +0.000 A 
ATOM     36  N   UNL     1       6.865   5.403  17.404  0.00  0.00    +0.000 NA
ATOM     37  C   UNL     1       7.538   5.352  18.526  0.00  0.00    +0.000 A 
ATOM     38  N   UNL     1       8.096   6.561  18.833  0.00  0.00    +0.000 N 
ATOM     39  H   UNL     1       8.649   6.765  19.655  0.00  0.00    +0.000 HD
ENDBRANCH  33  34
ENDBRANCH  32  33
ENDBRANCH   9  32
TORSDOF 9
ENDMDL
MODEL 5
REMARK VINA RESULT:      -7.5      9.281     13.314
REMARK  Name = 
REMARK  9 active torsions:
REMARK  status: ('A' for Active; 'I' for Inactive)
REMARK    1  A    between atoms: O5*_1  and  C5*_2
REMARK    2  A    between atoms: C5*_2  and  C4*_3
REMARK    3  A    between atoms: C1*_5  and  N_6
REMARK    4  A    between atoms: N_11  and  C_12
REMARK    5  A    between atoms: N_20  and  C_21
REMARK    6  A    between atoms: C_21  and  C_22
REMARK    7  A    between atoms: C_22  and  C_23
REMARK    8  A    between atoms: C2*_30  and  O2*_31
REMARK    9  A    between atoms: C3*_32  and  O3*_33
REMARK                            x       y       z     vdW  Elec       q    Type
REMARK                         _______ _______ _______ _____ _____    ______ ____
ROOT
ATOM      1  N   UNL     1       1.749  13.604  20.400  0.00  0.00    +0.000 N 
ATOM      2  C   UNL     1       1.372  14.276  21.531  0.00  0.00    +0.000 A 
ATOM      3  N   UNL     1       0.240  13.823  22.014  0.00  0.00    +0.000 NA
ATOM      4  C   UNL     1      -0.148  12.824  21.144  0.00  0.00    +0.000 A 
ATOM      5  C   UNL     1      -1.267  11.974  21.101  0.00  0.00    +0.000 A 
ATOM      6  N   UNL     1      -2.278  11.971  22.068  0.00  0.00    +0.000 N 
ATOM      7  N   UNL     1      -1.353  11.095  20.065  0.00  0.00    +0.000 NA
ATOM      8  C   UNL     1      -0.379  11.049  19.136  0.00  0.00    +0.000 A 
ATOM      9  N   UNL     1      -0.526  10.232  18.036  0.00  0.00    +0.000 N 
ATOM     10  N   UNL     1       0.755  11.767  19.150  0.00  0.00    +0.000 NA
ATOM     11  C   UNL     1       0.795  12.662  20.147  0.00  0.00    +0.000 A 
ATOM     12  H   UNL     1      -2.869  11.154  22.009  0.00  0.00    +0.000 HD
ATOM     13  H   UNL     1       0.171   9.501  18.031  0.00  0.00    +0.000 HD
ENDROOT
BRANCH   6  14
ATOM     14  C   UNL     1      -2.851  13.080  22.714  0.00  0.00    +0.000 A 
ATOM     15  C   UNL     1      -2.691  13.305  24.089  0.00  0.00    +0.000 A 
ATOM     16  C   UNL     1      -3.330  14.369  24.727  0.00  0.00    +0.000 A 
ATOM     17  C   UNL     1      -4.140  15.224  23.995  0.00  0.00    +0.000 A 
ATOM     18  C   UNL     1      -4.307  15.020  22.626  0.00  0.00    +0.000 A 
ATOM     19  C   UNL     1      -3.659  13.959  21.990  0.00  0.00    +0.000 A 
ENDBRANCH   6  14
BRANCH   1  22
ATOM     20  C4* UNL     1       4.145  15.826  19.192  0.00  0.00    +0.000 C 
ATOM     21  O4* UNL     1       3.676  14.969  20.259  0.00  0.00    +0.000 OA
ATOM     22  C1* UNL     1       2.964  13.861  19.663  0.00  0.00    +0.000 C 
ATOM     23  C2* UNL     1       2.750  14.167  18.185  0.00  0.00    +0.000 C 
ATOM     24  C3* UNL     1       3.964  15.036  17.892  0.00  0.00    +0.000 C 
BRANCH  23  25
ATOM     25  O2* UNL     1       2.751  12.981  17.387  0.00  0.00    +0.000 OA
ATOM     26  H2* UNL     1       3.123  13.246  16.518  0.00  0.00    +0.000 HD
ENDBRANCH  23  25
BRANCH  24  27
ATOM     27  O3* UNL     1       5.067  14.133  17.647  0.00  0.00    +0.000 OA
ATOM     28  H3* UNL     1       5.151  13.525  18.404  0.00  0.00    +0.000 HD
ENDBRANCH  24  27
BRANCH  20  29
ATOM     29  C5* UNL     1       3.388  17.155  19.225  0.00  0.00    +0.000 C 
BRANCH  29  30
ATOM     30  O5* UNL     1       3.009  17.542  17.910  0.00  0.00    +0.000 OA
ATOM     31  H5* UNL     1       2.683  18.461  17.976  0.00  0.00    +0.000 HD
ENDBRANCH  29  30
ENDBRANCH  20  29
ENDBRANCH   1  22
BRANCH   9  32
ATOM     32  C   UNL     1      -1.857   9.898  17.567  0.00  0.00    +0.000 C 
BRANCH  32  33
ATOM     33  C   UNL     1      -2.465  11.102  16.818  0.00  0.00    +0.000 C 
BRANCH  33  34
ATOM     34  C   UNL     1      -3.774  11.557  17.388  0.00  0.00    +0.000 A 
ATOM     35  C   UNL     1      -5.043  11.657  16.857  0.00  0.00    +0.000 A 
ATOM     36  N   UNL     1      -5.920  12.181  17.770  0.00  0.00    +0.000 NA
ATOM     37  C   UNL     1      -5.214  12.374  18.856  0.00  0.00    +0.000 A 
ATOM     38  N   UNL     1      -3.909  12.014  18.676  0.00  0.00    +0.000 N 
ATOM     39  H   UNL     1      -3.175  12.084  19.370  0.00  0.00    +0.000 HD
ENDBRANCH  33  34
ENDBRANCH  32  33
ENDBRANCH   9  32
TORSDOF 9
ENDMDL
MODEL 6
REMARK VINA RESULT:      -7.5      3.636      4.379
REMARK  Name = 
REMARK  9 active torsions:
REMARK  status: ('A' for Active; 'I' for Inactive)
REMARK    1  A    between atoms: O5*_1  and  C5*_2
REMARK    2  A    between atoms: C5*_2  and  C4*_3
REMARK    3  A    between atoms: C1*_5  and  N_6
REMARK    4  A    between atoms: N_11  and  C_12
REMARK    5  A    between atoms: N_20  and  C_21
REMARK    6  A    between atoms: C_21  and  C_22
REMARK    7  A    between atoms: C_22  and  C_23
REMARK    8  A    between atoms: C2*_30  and  O2*_31
REMARK    9  A    between atoms: C3*_32  and  O3*_33
REMARK                            x       y       z     vdW  Elec       q    Type
REMARK                         _______ _______ _______ _____ _____    ______ ____
ROOT
ATOM      1  N   UNL     1       3.684   3.201  18.430  0.00  0.00    +0.000 N 
ATOM      2  C   UNL     1       4.469   2.444  17.604  0.00  0.00    +0.000 A 
ATOM      3  N   UNL     1       5.120   3.182  16.738  0.00  0.00    +0.000 NA
ATOM      4  C   UNL     1       4.723   4.478  17.000  0.00  0.00    +0.000 A 
ATOM      5  C   UNL     1       5.047   5.715  16.414  0.00  0.00    +0.000 A 
ATOM      6  N   UNL     1       5.963   5.863  15.367  0.00  0.00    +0.000 N 
ATOM      7  N   UNL     1       4.442   6.828  16.913  0.00  0.00    +0.000 NA
ATOM      8  C   UNL     1       3.581   6.722  17.944  0.00  0.00    +0.000 A 
ATOM      9  N   UNL     1       2.894   7.838  18.373  0.00  0.00    +0.000 N 
ATOM     10  N   UNL     1       3.282   5.594  18.607  0.00  0.00    +0.000 NA
ATOM     11  C   UNL     1       3.846   4.506  18.067  0.00  0.00    +0.000 A 
ATOM     12  H   UNL     1       6.245   6.823  15.231  0.00  0.00    +0.000 HD
ATOM     13  H   UNL     1       3.158   8.087  19.315  0.00  0.00    +0.000 HD
ENDROOT
BRANCH   6  14
ATOM     14  C   UNL     1       6.136   5.024  14.253  0.00  0.00    +0.000 A 
ATOM     15  C   UNL     1       7.344   4.968  13.544  0.00  0.00    +0.000 A 
ATOM     16  C   UNL     1       7.473   4.187  12.394  0.00  0.00    +0.000 A 
ATOM     17  C   UNL     1       6.391   3.449  11.939  0.00  0.00    +0.000 A 
ATOM     18  C   UNL     1       5.183   3.487  12.634  0.00  0.00    +0.000 A 
ATOM     19  C   UNL     1       5.060   4.265  13.787  0.00  0.00    +0.000 A 
ENDBRANCH   6  14
BRANCH   1  22
ATOM     20  C4* UNL     1       1.063   3.539  20.701  0.00  0.00    +0.000 C 
ATOM     21  O4* UNL     1       1.519   3.157  19.382  0.00  0.00    +0.000 OA
ATOM     22  C1* UNL     1       2.874   2.669  19.501  0.00  0.00    +0.000 C 
ATOM     23  C2* UNL     1       3.383   3.000  20.899  0.00  0.00    +0.000 C 
ATOM     24  C3* UNL     1       2.085   2.974  21.692  0.00  0.00    +0.000 C 
BRANCH  23  25
ATOM     25  O2* UNL     1       4.309   2.022  21.378  0.00  0.00    +0.000 OA
ATOM     26  H2* UNL     1       4.159   1.223  20.828  0.00  0.00    +0.000 HD
ENDBRANCH  23  25
BRANCH  24  27
ATOM     27  O3* UNL     1       1.824   1.587  22.009  0.00  0.00    +0.000 OA
ATOM     28  H3* UNL     1       1.939   1.456  22.967  0.00  0.00    +0.000 HD
ENDBRANCH  24  27
BRANCH  20  29
ATOM     29  C5* UNL     1       0.901   5.059  20.771  0.00  0.00    +0.000 C 
BRANCH  29  30
ATOM     30  O5* UNL     1       2.105   5.665  21.224  0.00  0.00    +0.000 OA
ATOM     31  H5* UNL     1       2.715   5.672  20.461  0.00  0.00    +0.000 HD
ENDBRANCH  29  30
ENDBRANCH  20  29
ENDBRANCH   1  22
BRANCH   9  32
ATOM     32  C   UNL     1       2.628   8.916  17.439  0.00  0.00    +0.000 C 
BRANCH  32  33
ATOM     33  C   UNL     1       1.399   9.722  17.908  0.00  0.00    +0.000 C 
BRANCH  33  34
ATOM     34  C   UNL     1       1.731  11.120  18.333  0.00  0.00    +0.000 A 
ATOM     35  C   UNL     1       1.318  11.901  19.391  0.00  0.00    +0.000 A 
ATOM     36  N   UNL     1       1.874  13.151  19.329  0.00  0.00    +0.000 NA
ATOM     37  C   UNL     1       2.641  13.136  18.267  0.00  0.00    +0.000 A 
ATOM     38  N   UNL     1       2.589  11.929  17.629  0.00  0.00    +0.000 N 
ATOM     39  H   UNL     1       3.088  11.686  16.782  0.00  0.00    +0.000 HD
ENDBRANCH  33  34
ENDBRANCH  32  33
ENDBRANCH   9  32
TORSDOF 9
ENDMDL
MODEL 7
REMARK VINA RESULT:      -7.4      7.408     10.921
REMARK  Name = 
REMARK  9 active torsions:
REMARK  status: ('A' for Active; 'I' for Inactive)
REMARK    1  A    between atoms: O5*_1  and  C5*_2
REMARK    2  A    between atoms: C5*_2  and  C4*_3
REMARK    3  A    between atoms: C1*_5  and  N_6
REMARK    4  A    between atoms: N_11  and  C_12
REMARK    5  A    between atoms: N_20  and  C_21
REMARK    6  A    between atoms: C_21  and  C_22
REMARK    7  A    between atoms: C_22  and  C_23
REMARK    8  A    between atoms: C2*_30  and  O2*_31
REMARK    9  A    between atoms: C3*_32  and  O3*_33
REMARK                            x       y       z     vdW  Elec       q    Type
REMARK                         _______ _______ _______ _____ _____    ______ ____
ROOT
ATOM      1  N   UNL     1       1.073  13.216  19.230  0.00  0.00    +0.000 N 
ATOM      2  C   UNL     1       0.090  13.653  18.383  0.00  0.00    +0.000 A 
ATOM      3  N   UNL     1      -0.887  12.785  18.280  0.00  0.00    +0.000 NA
ATOM      4  C   UNL     1      -0.512  11.724  19.081  0.00  0.00    +0.000 A 
ATOM      5  C   UNL     1      -1.117  10.490  19.379  0.00  0.00    +0.000 A 
ATOM      6  N   UNL     1      -2.366  10.097  18.886  0.00  0.00    +0.000 N 
ATOM      7  N   UNL     1      -0.448   9.644  20.209  0.00  0.00    +0.000 NA
ATOM      8  C   UNL     1       0.741  10.007  20.728  0.00  0.00    +0.000 A 
ATOM      9  N   UNL     1       1.459   9.104  21.482  0.00  0.00    +0.000 N 
ATOM     10  N   UNL     1       1.344  11.194  20.558  0.00  0.00    +0.000 NA
ATOM     11  C   UNL     1       0.696  11.990  19.696  0.00  0.00    +0.000 A 
ATOM     12  H   UNL     1      -2.744   9.301  19.378  0.00  0.00    +0.000 HD
ATOM     13  H   UNL     1       1.549   9.418  22.437  0.00  0.00    +0.000 HD
ENDROOT
BRANCH   6  14
ATOM     14  C   UNL     1      -2.883  10.306  17.596  0.00  0.00    +0.000 A 
ATOM     15  C   UNL     1      -2.287   9.748  16.455  0.00  0.00    +0.000 A 
ATOM     16  C   UNL     1      -2.769  10.030  15.176  0.00  0.00    +0.000 A 
ATOM     17  C   UNL     1      -3.857  10.875  15.021  0.00  0.00    +0.000 A 
ATOM     18  C   UNL     1      -4.467  11.435  16.143  0.00  0.00    +0.000 A 
ATOM     19  C   UNL     1      -3.986  11.145  17.422  0.00  0.00    +0.000 A 
ENDBRANCH   6  14
BRANCH   1  22
ATOM     20  C4* UNL     1       2.603  16.213  20.132  0.00  0.00    +0.000 C 
ATOM     21  O4* UNL     1       1.937  14.993  20.531  0.00  0.00    +0.000 OA
ATOM     22  C1* UNL     1       2.259  13.969  19.563  0.00  0.00    +0.000 C 
ATOM     23  C2* UNL     1       2.938  14.633  18.370  0.00  0.00    +0.000 C 
ATOM     24  C3* UNL     1       3.608  15.821  19.045  0.00  0.00    +0.000 C 
BRANCH  23  25
ATOM     25  O2* UNL     1       3.897  13.772  17.752  0.00  0.00    +0.000 OA
ATOM     26  H2* UNL     1       3.382  13.187  17.154  0.00  0.00    +0.000 HD
ENDBRANCH  23  25
BRANCH  24  27
ATOM     27  O3* UNL     1       4.848  15.330  19.603  0.00  0.00    +0.000 OA
ATOM     28  H3* UNL     1       4.697  15.074  20.530  0.00  0.00    +0.000 HD
ENDBRANCH  24  27
BRANCH  20  29
ATOM     29  C5* UNL     1       1.567  17.244  19.681  0.00  0.00    +0.000 C 
BRANCH  29  30
ATOM     30  O5* UNL     1       2.173  18.522  19.531  0.00  0.00    +0.000 OA
ATOM     31  H5* UNL     1       3.078  18.442  19.892  0.00  0.00    +0.000 HD
ENDBRANCH  29  30
ENDBRANCH  20  29
ENDBRANCH   1  22
BRANCH   9  32
ATOM     32  C   UNL     1       1.280   7.682  21.254  0.00  0.00    +0.000 C 
BRANCH  32  33
ATOM     33  C   UNL     1       2.169   7.226  20.079  0.00  0.00    +0.000 C 
BRANCH  33  34
ATOM     34  C   UNL     1       2.346   5.739  20.009  0.00  0.00    +0.000 A 
ATOM     35  C   UNL     1       3.228   4.932  19.323  0.00  0.00    +0.000 A 
ATOM     36  N   UNL     1       2.962   3.607  19.548  0.00  0.00    +0.000 NA
ATOM     37  C   UNL     1       1.952   3.594  20.382  0.00  0.00    +0.000 A 
ATOM     38  N   UNL     1       1.541   4.860  20.691  0.00  0.00    +0.000 N 
ATOM     39  H   UNL     1       0.772   5.099  21.305  0.00  0.00    +0.000 HD
ENDBRANCH  33  34
ENDBRANCH  32  33
ENDBRANCH   9  32
TORSDOF 9
ENDMDL
MODEL 8
REMARK VINA RESULT:      -7.4      7.447     10.911
REMARK  Name = 
REMARK  9 active torsions:
REMARK  status: ('A' for Active; 'I' for Inactive)
REMARK    1  A    between atoms: O5*_1  and  C5*_2
REMARK    2  A    between atoms: C5*_2  and  C4*_3
REMARK    3  A    between atoms: C1*_5  and  N_6
REMARK    4  A    between atoms: N_11  and  C_12
REMARK    5  A    between atoms: N_20  and  C_21
REMARK    6  A    between atoms: C_21  and  C_22
REMARK    7  A    between atoms: C_22  and  C_23
REMARK    8  A    between atoms: C2*_30  and  O2*_31
REMARK    9  A    between atoms: C3*_32  and  O3*_33
REMARK                            x       y       z     vdW  Elec       q    Type
REMARK                         _______ _______ _______ _____ _____    ______ ____
ROOT
ATOM      1  N   UNL     1       1.194  13.480  19.302  0.00  0.00    +0.000 N 
ATOM      2  C   UNL     1       0.240  13.892  18.412  0.00  0.00    +0.000 A 
ATOM      3  N   UNL     1      -0.753  13.039  18.330  0.00  0.00    +0.000 NA
ATOM      4  C   UNL     1      -0.418  12.014  19.192  0.00  0.00    +0.000 A 
ATOM      5  C   UNL     1      -1.054  10.809  19.539  0.00  0.00    +0.000 A 
ATOM      6  N   UNL     1      -2.299  10.415  19.038  0.00  0.00    +0.000 N 
ATOM      7  N   UNL     1      -0.421   9.993  20.427  0.00  0.00    +0.000 NA
ATOM      8  C   UNL     1       0.763  10.360  20.954  0.00  0.00    +0.000 A 
ATOM      9  N   UNL     1       1.446   9.483  21.769  0.00  0.00    +0.000 N 
ATOM     10  N   UNL     1       1.394  11.525  20.737  0.00  0.00    +0.000 NA
ATOM     11  C   UNL     1       0.782  12.287  19.821  0.00  0.00    +0.000 A 
ATOM     12  H   UNL     1      -2.704   9.652  19.561  0.00  0.00    +0.000 HD
ATOM     13  H   UNL     1       1.521   9.844  22.709  0.00  0.00    +0.000 HD
ENDROOT
BRANCH   6  14
ATOM     14  C   UNL     1      -2.783  10.567  17.727  0.00  0.00    +0.000 A 
ATOM     15  C   UNL     1      -3.914  11.346  17.437  0.00  0.00    +0.000 A 
ATOM     16  C   UNL     1      -4.426  11.423  16.141  0.00  0.00    +0.000 A 
ATOM     17  C   UNL     1      -3.811  10.721  15.116  0.00  0.00    +0.000 A 
ATOM     18  C   UNL     1      -2.683   9.946  15.383  0.00  0.00    +0.000 A 
ATOM     19  C   UNL     1      -2.170   9.877  16.680  0.00  0.00    +0.000 A 
ENDBRANCH   6  14
BRANCH   1  22
ATOM     20  C4* UNL     1       2.758  16.481  20.131  0.00  0.00    +0.000 C 
ATOM     21  O4* UNL     1       2.071  15.282  20.559  0.00  0.00    +0.000 OA
ATOM     22  C1* UNL     1       2.387  14.226  19.624  0.00  0.00    +0.000 C 
ATOM     23  C2* UNL     1       3.085  14.846  18.419  0.00  0.00    +0.000 C 
ATOM     24  C3* UNL     1       3.766  16.044  19.064  0.00  0.00    +0.000 C 
BRANCH  23  25
ATOM     25  O2* UNL     1       4.038  13.955  17.833  0.00  0.00    +0.000 OA
ATOM     26  H2* UNL     1       4.345  13.377  18.565  0.00  0.00    +0.000 HD
ENDBRANCH  23  25
BRANCH  24  27
ATOM     27  O3* UNL     1       4.995  15.553  19.647  0.00  0.00    +0.000 OA
ATOM     28  H3* UNL     1       4.828  15.311  20.576  0.00  0.00    +0.000 HD
ENDBRANCH  24  27
BRANCH  20  29
ATOM     29  C5* UNL     1       1.740  17.513  19.641  0.00  0.00    +0.000 C 
BRANCH  29  30
ATOM     30  O5* UNL     1       0.417  17.074  19.922  0.00  0.00    +0.000 OA
ATOM     31  H5* UNL     1       0.132  16.545  19.151  0.00  0.00    +0.000 HD
ENDBRANCH  29  30
ENDBRANCH  20  29
ENDBRANCH   1  22
BRANCH   9  32
ATOM     32  C   UNL     1       1.244   8.055  21.610  0.00  0.00    +0.000 C 
BRANCH  32  33
ATOM     33  C   UNL     1       1.852   7.587  20.272  0.00  0.00    +0.000 C 
BRANCH  33  34
ATOM     34  C   UNL     1       2.210   6.132  20.257  0.00  0.00    +0.000 A 
ATOM     35  C   UNL     1       1.522   4.994  20.622  0.00  0.00    +0.000 A 
ATOM     36  N   UNL     1       2.300   3.877  20.468  0.00  0.00    +0.000 NA
ATOM     37  C   UNL     1       3.438   4.311  19.987  0.00  0.00    +0.000 A 
ATOM     38  N   UNL     1       3.435   5.670  19.843  0.00  0.00    +0.000 N 
ATOM     39  H   UNL     1       4.206   6.229  19.501  0.00  0.00    +0.000 HD
ENDBRANCH  33  34
ENDBRANCH  32  33
ENDBRANCH   9  32
TORSDOF 9
ENDMDL
MODEL 9
REMARK VINA RESULT:      -7.2      8.017     10.658
REMARK  Name = 
REMARK  9 active torsions:
REMARK  status: ('A' for Active; 'I' for Inactive)
REMARK    1  A    between atoms: O5*_1  and  C5*_2
REMARK    2  A    between atoms: C5*_2  and  C4*_3
REMARK    3  A    between atoms: C1*_5  and  N_6
REMARK    4  A    between atoms: N_11  and  C_12
REMARK    5  A    between atoms: N_20  and  C_21
REMARK    6  A    between atoms: C_21  and  C_22
REMARK    7  A    between atoms: C_22  and  C_23
REMARK    8  A    between atoms: C2*_30  and  O2*_31
REMARK    9  A    between atoms: C3*_32  and  O3*_33
REMARK                            x       y       z     vdW  Elec       q    Type
REMARK                         _______ _______ _______ _____ _____    ______ ____
ROOT
ATOM      1  N   UNL     1       6.932  13.056  23.604  0.00  0.00    +0.000 N 
ATOM      2  C   UNL     1       8.193  12.529  23.533  0.00  0.00    +0.000 A 
ATOM      3  N   UNL     1       8.832  12.932  22.461  0.00  0.00    +0.000 NA
ATOM      4  C   UNL     1       7.936  13.743  21.793  0.00  0.00    +0.000 A 
ATOM      5  C   UNL     1       8.010  14.459  20.585  0.00  0.00    +0.000 A 
ATOM      6  N   UNL     1       9.152  14.506  19.778  0.00  0.00    +0.000 N 
ATOM      7  N   UNL     1       6.908  15.157  20.195  0.00  0.00    +0.000 NA
ATOM      8  C   UNL     1       5.804  15.160  20.967  0.00  0.00    +0.000 A 
ATOM      9  N   UNL     1       4.660  15.781  20.515  0.00  0.00    +0.000 N 
ATOM     10  N   UNL     1       5.682  14.571  22.167  0.00  0.00    +0.000 NA
ATOM     11  C   UNL     1       6.757  13.847  22.506  0.00  0.00    +0.000 A 
ATOM     12  H   UNL     1       9.108  15.239  19.086  0.00  0.00    +0.000 HD
ATOM     13  H   UNL     1       4.420  16.570  21.098  0.00  0.00    +0.000 HD
ENDROOT
BRANCH   6  14
ATOM     14  C   UNL     1      10.037  13.455  19.483  0.00  0.00    +0.000 A 
ATOM     15  C   UNL     1      11.323  13.386  20.040  0.00  0.00    +0.000 A 
ATOM     16  C   UNL     1      12.216  12.377  19.676  0.00  0.00    +0.000 A 
ATOM     17  C   UNL     1      11.834  11.421  18.748  0.00  0.00    +0.000 A 
ATOM     18  C   UNL     1      10.558  11.469  18.187  0.00  0.00    +0.000 A 
ATOM     19  C   UNL     1       9.664  12.476  18.559  0.00  0.00    +0.000 A 
ENDBRANCH   6  14
BRANCH   1  22
ATOM     20  C4* UNL     1       6.169  13.089  27.003  0.00  0.00    +0.000 C 
ATOM     21  O4* UNL     1       6.211  13.785  25.736  0.00  0.00    +0.000 OA
ATOM     22  C1* UNL     1       6.006  12.815  24.684  0.00  0.00    +0.000 C 
ATOM     23  C2* UNL     1       6.099  11.421  25.294  0.00  0.00    +0.000 C 
ATOM     24  C3* UNL     1       5.615  11.692  26.711  0.00  0.00    +0.000 C 
BRANCH  23  25
ATOM     25  O2* UNL     1       5.253  10.484  24.622  0.00  0.00    +0.000 OA
ATOM     26  H2* UNL     1       5.818   9.703  24.436  0.00  0.00    +0.000 HD
ENDBRANCH  23  25
BRANCH  24  27
ATOM     27  O3* UNL     1       4.170  11.680  26.660  0.00  0.00    +0.000 OA
ATOM     28  H3* UNL     1       3.887  11.349  25.789  0.00  0.00    +0.000 HD
ENDBRANCH  24  27
BRANCH  20  29
ATOM     29  C5* UNL     1       7.561  13.088  27.639  0.00  0.00    +0.000 C 
BRANCH  29  30
ATOM     30  O5* UNL     1       7.718  11.956  28.484  0.00  0.00    +0.000 OA
ATOM     31  H5* UNL     1       7.914  12.302  29.377  0.00  0.00    +0.000 HD
ENDBRANCH  29  30
ENDBRANCH  20  29
ENDBRANCH   1  22
BRANCH   9  32
ATOM     32  C   UNL     1       4.429  15.902  19.088  0.00  0.00    +0.000 C 
BRANCH  32  33
ATOM     33  C   UNL     1       2.935  15.675  18.779  0.00  0.00    +0.000 C 
BRANCH  33  34
ATOM     34  C   UNL     1       2.539  14.229  18.786  0.00  0.00    +0.000 A 
ATOM     35  C   UNL     1       1.837  13.454  19.684  0.00  0.00    +0.000 A 
ATOM     36  N   UNL     1       1.770  12.152  19.265  0.00  0.00    +0.000 NA
ATOM     37  C   UNL     1       2.394  12.127  18.114  0.00  0.00    +0.000 A 
ATOM     38  N   UNL     1       2.879  13.359  17.779  0.00  0.00    +0.000 N 
ATOM     39  H   UNL     1       3.405  13.580  16.943  0.00  0.00    +0.000 HD
ENDBRANCH  33  34
ENDBRANCH  32  33
ENDBRANCH   9  32
TORSDOF 9
ENDMDL
