MODEL 1
REMARK VINA RESULT:      -8.2      0.000      0.000
REMARK  Name = 
REMARK  6 active torsions:
REMARK  status: ('A' for Active; 'I' for Inactive)
REMARK    1  A    between atoms: N_1  and  C_2
REMARK    2  A    between atoms: C_5  and  C_6
REMARK    3  A    between atoms: C_15  and  C_16
REMARK    4  A    between atoms: N_18  and  C_19
REMARK    5  A    between atoms: C_24  and  N_25
REMARK    6  A    between atoms: C_29  and  N_30
REMARK                            x       y       z     vdW  Elec       q    Type
REMARK                         _______ _______ _______ _____ _____    ______ ____
ROOT
ATOM      1  C   UNL     1       2.311   7.147  18.258  0.00  0.00    +0.000 C 
ATOM      2  O   UNL     1       1.504   6.709  17.436  0.00  0.00    +0.000 OA
ATOM      3  N   UNL     1       3.663   6.823  18.262  0.00  0.00    +0.000 N 
ATOM      4  H   UNL     1       4.221   7.077  19.072  0.00  0.00    +0.000 HD
ENDROOT
BRANCH   1  10
ATOM      5  C   UNL     1       1.573   7.533  20.633  0.00  0.00    +0.000 A 
ATOM      6  C   UNL     1       1.045   8.401  21.582  0.00  0.00    +0.000 A 
ATOM      7  C   UNL     1       0.707   9.703  21.223  0.00  0.00    +0.000 A 
ATOM      8  C   UNL     1       0.925  10.152  19.918  0.00  0.00    +0.000 A 
ATOM      9  N   UNL     1       1.485   9.339  18.978  0.00  0.00    +0.000 NA
ATOM     10  C   UNL     1       1.803   8.061  19.347  0.00  0.00    +0.000 A 
BRANCH   8  11
ATOM     11  C   UNL     1       0.602  11.534  19.505  0.00  0.00    +0.000 A 
ATOM     12  C   UNL     1      -0.449  11.813  18.615  0.00  0.00    +0.000 A 
ATOM     13  F   UNL     1      -1.222  10.827  18.135  0.00  0.00    +0.000 F 
ATOM     14  C   UNL     1      -0.718  13.109  18.160  0.00  0.00    +0.000 A 
ATOM     15  C   UNL     1       0.066  14.179  18.580  0.00  0.00    +0.000 A 
ATOM     16  C   UNL     1       1.100  13.948  19.478  0.00  0.00    +0.000 A 
ATOM     17  C   UNL     1       1.346  12.649  19.937  0.00  0.00    +0.000 A 
ATOM     18  F   UNL     1       2.343  12.506  20.827  0.00  0.00    +0.000 F 
ENDBRANCH   8  11
BRANCH   5  19
ATOM     19  N   UNL     1       2.035   6.277  21.076  0.00  0.00    +0.000 N 
ATOM     20  H   UNL     1       1.822   5.519  20.436  0.00  0.00    +0.000 HD
ATOM     21  H   UNL     1       3.042   6.307  21.288  0.00  0.00    +0.000 HD
ENDBRANCH   5  19
ENDBRANCH   1  10
BRANCH   3  22
ATOM     22  C   UNL     1       4.333   6.097  17.229  0.00  0.00    +0.000 A 
ATOM     23  C   UNL     1       5.039   6.752  16.212  0.00  0.00    +0.000 A 
ATOM     24  N   UNL     1       5.788   6.139  15.261  0.00  0.00    +0.000 NA
ATOM     25  C   UNL     1       5.832   4.801  15.317  0.00  0.00    +0.000 A 
ATOM     26  C   UNL     1       5.148   4.047  16.258  0.00  0.00    +0.000 A 
ATOM     27  C   UNL     1       4.368   4.683  17.243  0.00  0.00    +0.000 A 
BRANCH  27  28
ATOM     28  N   UNL     1       3.637   3.936  18.197  0.00  0.00    +0.000 N 
ATOM     29  C   UNL     1       4.404   3.117  19.155  0.00  0.00    +0.000 C 
ATOM     30  C   UNL     1       3.502   2.777  20.338  0.00  0.00    +0.000 C 
ATOM     31  C   UNL     1       2.231   2.056  19.884  0.00  0.00    +0.000 C 
ATOM     32  C   UNL     1       1.514   2.814  18.752  0.00  0.00    +0.000 C 
ATOM     33  C   UNL     1       2.508   3.173  17.617  0.00  0.00    +0.000 C 
BRANCH  32  34
ATOM     34  N   UNL     1       0.376   2.011  18.287  0.00  0.00    +0.000 NA
ATOM     35  H   UNL     1       0.354   1.986  17.269  0.00  0.00    +0.000 HD
ATOM     36  H   UNL     1      -0.497   2.452  18.583  0.00  0.00    +0.000 HD
ENDBRANCH  32  34
ENDBRANCH  27  28
ENDBRANCH   3  22
TORSDOF 6
ENDMDL
MODEL 2
REMARK VINA RESULT:      -8.2      0.109      1.489
REMARK  Name = 
REMARK  6 active torsions:
REMARK  status: ('A' for Active; 'I' for Inactive)
REMARK    1  A    between atoms: N_1  and  C_2
REMARK    2  A    between atoms: C_5  and  C_6
REMARK    3  A    between atoms: C_15  and  C_16
REMARK    4  A    between atoms: N_18  and  C_19
REMARK    5  A    between atoms: C_24  and  N_25
REMARK    6  A    between atoms: C_29  and  N_30
REMARK                            x       y       z     vdW  Elec       q    Type
REMARK                         _______ _______ _______ _____ _____    ______ ____
ROOT
ATOM      1  C   UNL     1       2.339   7.031  18.263  0.00  0.00    +0.000 C 
ATOM      2  O   UNL     1       1.525   6.500  17.504  0.00  0.00    +0.000 OA
ATOM      3  N   UNL     1       3.707   6.793  18.218  0.00  0.00    +0.000 N 
ATOM      4  H   UNL     1       4.284   7.124  18.987  0.00  0.00    +0.000 HD
ENDROOT
BRANCH   1  10
ATOM      5  C   UNL     1       1.588   7.472  20.624  0.00  0.00    +0.000 A 
ATOM      6  C   UNL     1       1.053   8.362  21.549  0.00  0.00    +0.000 A 
ATOM      7  C   UNL     1       0.712   9.653  21.157  0.00  0.00    +0.000 A 
ATOM      8  C   UNL     1       0.935  10.071  19.843  0.00  0.00    +0.000 A 
ATOM      9  N   UNL     1       1.503   9.237  18.925  0.00  0.00    +0.000 NA
ATOM     10  C   UNL     1       1.823   7.970  19.327  0.00  0.00    +0.000 A 
BRANCH   8  11
ATOM     11  C   UNL     1       0.609  11.442  19.394  0.00  0.00    +0.000 A 
ATOM     12  C   UNL     1       1.325  12.559  19.855  0.00  0.00    +0.000 A 
ATOM     13  F   UNL     1       2.358  12.413  20.699  0.00  0.00    +0.000 F 
ATOM     14  C   UNL     1       0.980  13.867  19.495  0.00  0.00    +0.000 A 
ATOM     15  C   UNL     1      -0.105  14.103  18.658  0.00  0.00    +0.000 A 
ATOM     16  C   UNL     1      -0.823  13.023  18.161  0.00  0.00    +0.000 A 
ATOM     17  C   UNL     1      -0.457  11.720  18.517  0.00  0.00    +0.000 A 
ATOM     18  F   UNL     1      -1.178  10.725  17.975  0.00  0.00    +0.000 F 
ENDBRANCH   8  11
BRANCH   5  19
ATOM     19  N   UNL     1       2.052   6.229  21.099  0.00  0.00    +0.000 N 
ATOM     20  H   UNL     1       1.700   5.437  20.571  0.00  0.00    +0.000 HD
ATOM     21  H   UNL     1       3.079   6.212  21.146  0.00  0.00    +0.000 HD
ENDBRANCH   5  19
ENDBRANCH   1  10
BRANCH   3  22
ATOM     22  C   UNL     1       4.376   6.054  17.192  0.00  0.00    +0.000 A 
ATOM     23  C   UNL     1       5.079   6.698  16.166  0.00  0.00    +0.000 A 
ATOM     24  N   UNL     1       5.826   6.074  15.220  0.00  0.00    +0.000 NA
ATOM     25  C   UNL     1       5.872   4.736  15.293  0.00  0.00    +0.000 A 
ATOM     26  C   UNL     1       5.191   3.994  16.245  0.00  0.00    +0.000 A 
ATOM     27  C   UNL     1       4.412   4.640  17.223  0.00  0.00    +0.000 A 
BRANCH  27  28
ATOM     28  N   UNL     1       3.684   3.905  18.188  0.00  0.00    +0.000 N 
ATOM     29  C   UNL     1       4.454   3.086  19.145  0.00  0.00    +0.000 C 
ATOM     30  C   UNL     1       3.559   2.759  20.337  0.00  0.00    +0.000 C 
ATOM     31  C   UNL     1       2.280   2.045  19.899  0.00  0.00    +0.000 C 
ATOM     32  C   UNL     1       1.558   2.801  18.769  0.00  0.00    +0.000 C 
ATOM     33  C   UNL     1       2.545   3.146  17.622  0.00  0.00    +0.000 C 
BRANCH  32  34
ATOM     34  N   UNL     1       0.410   2.004  18.318  0.00  0.00    +0.000 NA
ATOM     35  H   UNL     1      -0.419   2.589  18.244  0.00  0.00    +0.000 HD
ATOM     36  H   UNL     1       0.197   1.289  19.015  0.00  0.00    +0.000 HD
ENDBRANCH  32  34
ENDBRANCH  27  28
ENDBRANCH   3  22
TORSDOF 6
ENDMDL
MODEL 3
REMARK VINA RESULT:      -7.8      2.202      4.058
REMARK  Name = 
REMARK  6 active torsions:
REMARK  status: ('A' for Active; 'I' for Inactive)
REMARK    1  A    between atoms: N_1  and  C_2
REMARK    2  A    between atoms: C_5  and  C_6
REMARK    3  A    between atoms: C_15  and  C_16
REMARK    4  A    between atoms: N_18  and  C_19
REMARK    5  A    between atoms: C_24  and  N_25
REMARK    6  A    between atoms: C_29  and  N_30
REMARK                            x       y       z     vdW  Elec       q    Type
REMARK                         _______ _______ _______ _____ _____    ______ ____
ROOT
ATOM      1  C   UNL     1       2.160   6.682  19.453  0.00  0.00    +0.000 C 
ATOM      2  O   UNL     1       2.426   6.351  20.611  0.00  0.00    +0.000 OA
ATOM      3  N   UNL     1       2.199   5.809  18.372  0.00  0.00    +0.000 N 
ATOM      4  H   UNL     1       2.145   6.196  17.434  0.00  0.00    +0.000 HD
ENDROOT
BRANCH   1  10
ATOM      5  C   UNL     1       2.461   8.808  18.142  0.00  0.00    +0.000 A 
ATOM      6  C   UNL     1       2.142  10.151  17.975  0.00  0.00    +0.000 A 
ATOM      7  C   UNL     1       1.263  10.773  18.858  0.00  0.00    +0.000 A 
ATOM      8  C   UNL     1       0.674  10.044  19.893  0.00  0.00    +0.000 A 
ATOM      9  N   UNL     1       0.930   8.714  20.054  0.00  0.00    +0.000 NA
ATOM     10  C   UNL     1       1.803   8.124  19.182  0.00  0.00    +0.000 A 
BRANCH   8  11
ATOM     11  C   UNL     1      -0.284  10.662  20.835  0.00  0.00    +0.000 A 
ATOM     12  C   UNL     1      -1.272  11.562  20.401  0.00  0.00    +0.000 A 
ATOM     13  F   UNL     1      -1.401  11.865  19.100  0.00  0.00    +0.000 F 
ATOM     14  C   UNL     1      -2.137  12.208  21.291  0.00  0.00    +0.000 A 
ATOM     15  C   UNL     1      -2.037  11.979  22.660  0.00  0.00    +0.000 A 
ATOM     16  C   UNL     1      -1.089  11.078  23.127  0.00  0.00    +0.000 A 
ATOM     17  C   UNL     1      -0.243  10.426  22.223  0.00  0.00    +0.000 A 
ATOM     18  F   UNL     1       0.629   9.547  22.745  0.00  0.00    +0.000 F 
ENDBRANCH   8  11
BRANCH   5  19
ATOM     19  N   UNL     1       3.237   8.188  17.142  0.00  0.00    +0.000 N 
ATOM     20  H   UNL     1       3.938   7.552  17.510  0.00  0.00    +0.000 HD
ATOM     21  H   UNL     1       2.640   7.716  16.451  0.00  0.00    +0.000 HD
ENDBRANCH   5  19
ENDBRANCH   1  10
BRANCH   3  22
ATOM     22  C   UNL     1       2.372   4.394  18.469  0.00  0.00    +0.000 A 
ATOM     23  C   UNL     1       1.287   3.536  18.688  0.00  0.00    +0.000 A 
ATOM     24  N   UNL     1       1.350   2.180  18.686  0.00  0.00    +0.000 NA
ATOM     25  C   UNL     1       2.559   1.646  18.461  0.00  0.00    +0.000 A 
ATOM     26  C   UNL     1       3.707   2.398  18.263  0.00  0.00    +0.000 A 
ATOM     27  C   UNL     1       3.643   3.804  18.270  0.00  0.00    +0.000 A 
BRANCH  27  28
ATOM     28  N   UNL     1       4.805   4.594  18.100  0.00  0.00    +0.000 N 
ATOM     29  C   UNL     1       5.423   4.617  16.760  0.00  0.00    +0.000 C 
ATOM     30  C   UNL     1       6.341   5.833  16.668  0.00  0.00    +0.000 C 
ATOM     31  C   UNL     1       7.402   5.819  17.770  0.00  0.00    +0.000 C 
ATOM     32  C   UNL     1       6.781   5.613  19.163  0.00  0.00    +0.000 C 
ATOM     33  C   UNL     1       5.819   4.396  19.161  0.00  0.00    +0.000 C 
BRANCH  32  34
ATOM     34  N   UNL     1       7.859   5.492  20.153  0.00  0.00    +0.000 NA
ATOM     35  H   UNL     1       8.164   6.414  20.458  0.00  0.00    +0.000 HD
ATOM     36  H   UNL     1       8.671   5.048  19.721  0.00  0.00    +0.000 HD
ENDBRANCH  32  34
ENDBRANCH  27  28
ENDBRANCH   3  22
TORSDOF 6
ENDMDL
MODEL 4
REMARK VINA RESULT:      -7.7      2.220      4.216
REMARK  Name = 
REMARK  6 active torsions:
REMARK  status: ('A' for Active; 'I' for Inactive)
REMARK    1  A    between atoms: N_1  and  C_2
REMARK    2  A    between atoms: C_5  and  C_6
REMARK    3  A    between atoms: C_15  and  C_16
REMARK    4  A    between atoms: N_18  and  C_19
REMARK    5  A    between atoms: C_24  and  N_25
REMARK    6  A    between atoms: C_29  and  N_30
REMARK                            x       y       z     vdW  Elec       q    Type
REMARK                         _______ _______ _______ _____ _____    ______ ____
ROOT
ATOM      1  C   UNL     1       2.136   6.699  19.442  0.00  0.00    +0.000 C 
ATOM      2  O   UNL     1       2.346   6.339  20.602  0.00  0.00    +0.000 OA
ATOM      3  N   UNL     1       2.229   5.855  18.342  0.00  0.00    +0.000 N 
ATOM      4  H   UNL     1       2.220   6.266  17.412  0.00  0.00    +0.000 HD
ENDROOT
BRANCH   1  10
ATOM      5  C   UNL     1       2.425   8.829  18.132  0.00  0.00    +0.000 A 
ATOM      6  C   UNL     1       2.121  10.177  17.983  0.00  0.00    +0.000 A 
ATOM      7  C   UNL     1       1.282  10.807  18.899  0.00  0.00    +0.000 A 
ATOM      8  C   UNL     1       0.717  10.081  19.950  0.00  0.00    +0.000 A 
ATOM      9  N   UNL     1       0.958   8.747  20.094  0.00  0.00    +0.000 NA
ATOM     10  C   UNL     1       1.792   8.148  19.191  0.00  0.00    +0.000 A 
BRANCH   8  11
ATOM     11  C   UNL     1      -0.199  10.708  20.927  0.00  0.00    +0.000 A 
ATOM     12  C   UNL     1      -0.174  10.363  22.289  0.00  0.00    +0.000 A 
ATOM     13  F   UNL     1       0.712   9.471  22.756  0.00  0.00    +0.000 F 
ATOM     14  C   UNL     1      -1.084  10.896  23.210  0.00  0.00    +0.000 A 
ATOM     15  C   UNL     1      -2.061  11.795  22.794  0.00  0.00    +0.000 A 
ATOM     16  C   UNL     1      -2.102  12.179  21.460  0.00  0.00    +0.000 A 
ATOM     17  C   UNL     1      -1.176  11.651  20.554  0.00  0.00    +0.000 A 
ATOM     18  F   UNL     1      -1.258  12.091  19.287  0.00  0.00    +0.000 F 
ENDBRANCH   8  11
BRANCH   5  19
ATOM     19  N   UNL     1       3.158   8.202  17.103  0.00  0.00    +0.000 N 
ATOM     20  H   UNL     1       2.574   7.736  16.417  0.00  0.00    +0.000 HD
ATOM     21  H   UNL     1       3.799   8.867  16.650  0.00  0.00    +0.000 HD
ENDBRANCH   5  19
ENDBRANCH   1  10
BRANCH   3  22
ATOM     22  C   UNL     1       2.398   4.437  18.411  0.00  0.00    +0.000 A 
ATOM     23  C   UNL     1       1.309   3.577  18.602  0.00  0.00    +0.000 A 
ATOM     24  N   UNL     1       1.369   2.222  18.572  0.00  0.00    +0.000 NA
ATOM     25  C   UNL     1       2.578   1.690  18.347  0.00  0.00    +0.000 A 
ATOM     26  C   UNL     1       3.730   2.443  18.176  0.00  0.00    +0.000 A 
ATOM     27  C   UNL     1       3.669   3.848  18.212  0.00  0.00    +0.000 A 
BRANCH  27  28
ATOM     28  N   UNL     1       4.834   4.639  18.069  0.00  0.00    +0.000 N 
ATOM     29  C   UNL     1       5.467   4.685  16.737  0.00  0.00    +0.000 C 
ATOM     30  C   UNL     1       6.389   5.900  16.677  0.00  0.00    +0.000 C 
ATOM     31  C   UNL     1       7.437   5.864  17.790  0.00  0.00    +0.000 C 
ATOM     32  C   UNL     1       6.801   5.634  19.172  0.00  0.00    +0.000 C 
ATOM     33  C   UNL     1       5.836   4.419  19.137  0.00  0.00    +0.000 C 
BRANCH  32  34
ATOM     34  N   UNL     1       7.867   5.492  20.172  0.00  0.00    +0.000 NA
ATOM     35  H   UNL     1       8.530   6.261  20.093  0.00  0.00    +0.000 HD
ATOM     36  H   UNL     1       8.395   4.638  19.989  0.00  0.00    +0.000 HD
ENDBRANCH  32  34
ENDBRANCH  27  28
ENDBRANCH   3  22
TORSDOF 6
ENDMDL
MODEL 5
REMARK VINA RESULT:      -7.6      1.049      1.433
REMARK  Name = 
REMARK  6 active torsions:
REMARK  status: ('A' for Active; 'I' for Inactive)
REMARK    1  A    between atoms: N_1  and  C_2
REMARK    2  A    between atoms: C_5  and  C_6
REMARK    3  A    between atoms: C_15  and  C_16
REMARK    4  A    between atoms: N_18  and  C_19
REMARK    5  A    between atoms: C_24  and  N_25
REMARK    6  A    between atoms: C_29  and  N_30
REMARK                            x       y       z     vdW  Elec       q    Type
REMARK                         _______ _______ _______ _____ _____    ______ ____
ROOT
ATOM      1  C   UNL     1       2.435   7.878  18.267  0.00  0.00    +0.000 C 
ATOM      2  O   UNL     1       2.124   8.180  17.113  0.00  0.00    +0.000 OA
ATOM      3  N   UNL     1       3.310   6.847  18.587  0.00  0.00    +0.000 N 
ATOM      4  H   UNL     1       3.373   6.545  19.556  0.00  0.00    +0.000 HD
ENDROOT
BRANCH   1  10
ATOM      5  C   UNL     1       1.449   7.957  20.581  0.00  0.00    +0.000 A 
ATOM      6  C   UNL     1       0.815   8.698  21.574  0.00  0.00    +0.000 A 
ATOM      7  C   UNL     1       0.502  10.036  21.350  0.00  0.00    +0.000 A 
ATOM      8  C   UNL     1       0.850  10.648  20.144  0.00  0.00    +0.000 A 
ATOM      9  N   UNL     1       1.515   9.961  19.172  0.00  0.00    +0.000 NA
ATOM     10  C   UNL     1       1.806   8.646  19.405  0.00  0.00    +0.000 A 
BRANCH   8  11
ATOM     11  C   UNL     1       0.557  12.073  19.880  0.00  0.00    +0.000 A 
ATOM     12  C   UNL     1      -0.598  12.473  19.188  0.00  0.00    +0.000 A 
ATOM     13  F   UNL     1      -1.497  11.569  18.771  0.00  0.00    +0.000 F 
ATOM     14  C   UNL     1      -0.850  13.813  18.868  0.00  0.00    +0.000 A 
ATOM     15  C   UNL     1       0.056  14.805  19.229  0.00  0.00    +0.000 A 
ATOM     16  C   UNL     1       1.199  14.452  19.936  0.00  0.00    +0.000 A 
ATOM     17  C   UNL     1       1.429  13.111  20.263  0.00  0.00    +0.000 A 
ATOM     18  F   UNL     1       2.539  12.848  20.973  0.00  0.00    +0.000 F 
ENDBRANCH   8  11
BRANCH   5  19
ATOM     19  N   UNL     1       1.876   6.653  20.906  0.00  0.00    +0.000 N 
ATOM     20  H   UNL     1       2.237   6.137  20.110  0.00  0.00    +0.000 HD
ATOM     21  H   UNL     1       2.559   6.669  21.675  0.00  0.00    +0.000 HD
ENDBRANCH   5  19
ENDBRANCH   1  10
BRANCH   3  22
ATOM     22  C   UNL     1       4.101   6.122  17.642  0.00  0.00    +0.000 A 
ATOM     23  C   UNL     1       5.032   6.765  16.818  0.00  0.00    +0.000 A 
ATOM     24  N   UNL     1       5.893   6.141  15.975  0.00  0.00    +0.000 NA
ATOM     25  C   UNL     1       5.820   4.803  15.943  0.00  0.00    +0.000 A 
ATOM     26  C   UNL     1       4.916   4.063  16.690  0.00  0.00    +0.000 A 
ATOM     27  C   UNL     1       4.020   4.711  17.561  0.00  0.00    +0.000 A 
BRANCH  27  28
ATOM     28  N   UNL     1       3.068   3.982  18.312  0.00  0.00    +0.000 N 
ATOM     29  C   UNL     1       1.641   4.260  18.059  0.00  0.00    +0.000 C 
ATOM     30  C   UNL     1       0.814   3.098  18.602  0.00  0.00    +0.000 C 
ATOM     31  C   UNL     1       1.080   2.867  20.090  0.00  0.00    +0.000 C 
ATOM     32  C   UNL     1       2.585   2.755  20.395  0.00  0.00    +0.000 C 
ATOM     33  C   UNL     1       3.362   3.940  19.763  0.00  0.00    +0.000 C 
BRANCH  32  34
ATOM     34  N   UNL     1       2.772   2.654  21.847  0.00  0.00    +0.000 NA
ATOM     35  H   UNL     1       2.333   3.445  22.316  0.00  0.00    +0.000 HD
ATOM     36  H   UNL     1       3.767   2.705  22.068  0.00  0.00    +0.000 HD
ENDBRANCH  32  34
ENDBRANCH  27  28
ENDBRANCH   3  22
TORSDOF 6
ENDMDL
MODEL 6
REMARK VINA RESULT:      -7.5      1.149      1.769
REMARK  Name = 
REMARK  6 active torsions:
REMARK  status: ('A' for Active; 'I' for Inactive)
REMARK    1  A    between atoms: N_1  and  C_2
REMARK    2  A    between atoms: C_5  and  C_6
REMARK    3  A    between atoms: C_15  and  C_16
REMARK    4  A    between atoms: N_18  and  C_19
REMARK    5  A    between atoms: C_24  and  N_25
REMARK    6  A    between atoms: C_29  and  N_30
REMARK                            x       y       z     vdW  Elec       q    Type
REMARK                         _______ _______ _______ _____ _____    ______ ____
ROOT
ATOM      1  C   UNL     1       2.096   8.266  18.401  0.00  0.00    +0.000 C 
ATOM      2  O   UNL     1       1.595   8.419  17.285  0.00  0.00    +0.000 OA
ATOM      3  N   UNL     1       3.105   7.352  18.677  0.00  0.00    +0.000 N 
ATOM      4  H   UNL     1       3.334   7.159  19.649  0.00  0.00    +0.000 HD
ENDROOT
BRANCH   1  10
ATOM      5  C   UNL     1       1.252   8.456  20.765  0.00  0.00    +0.000 A 
ATOM      6  C   UNL     1       0.704   9.250  21.766  0.00  0.00    +0.000 A 
ATOM      7  C   UNL     1       0.424  10.590  21.516  0.00  0.00    +0.000 A 
ATOM      8  C   UNL     1       0.720  11.150  20.271  0.00  0.00    +0.000 A 
ATOM      9  N   UNL     1       1.302  10.409  19.285  0.00  0.00    +0.000 NA
ATOM     10  C   UNL     1       1.562   9.092  19.547  0.00  0.00    +0.000 A 
BRANCH   8  11
ATOM     11  C   UNL     1       0.460  12.576  19.975  0.00  0.00    +0.000 A 
ATOM     12  C   UNL     1       1.506  13.487  19.756  0.00  0.00    +0.000 A 
ATOM     13  F   UNL     1       2.785  13.083  19.774  0.00  0.00    +0.000 F 
ATOM     14  C   UNL     1       1.276  14.852  19.547  0.00  0.00    +0.000 A 
ATOM     15  C   UNL     1      -0.021  15.356  19.557  0.00  0.00    +0.000 A 
ATOM     16  C   UNL     1      -1.084  14.482  19.746  0.00  0.00    +0.000 A 
ATOM     17  C   UNL     1      -0.839  13.118  19.937  0.00  0.00    +0.000 A 
ATOM     18  F   UNL     1      -1.917  12.330  20.084  0.00  0.00    +0.000 F 
ENDBRANCH   8  11
BRANCH   5  19
ATOM     19  N   UNL     1       1.654   7.148  21.108  0.00  0.00    +0.000 N 
ATOM     20  H   UNL     1       2.659   7.012  21.074  0.00  0.00    +0.000 HD
ATOM     21  H   UNL     1       1.277   6.876  22.026  0.00  0.00    +0.000 HD
ENDBRANCH   5  19
ENDBRANCH   1  10
BRANCH   3  22
ATOM     22  C   UNL     1       3.821   6.601  17.693  0.00  0.00    +0.000 A 
ATOM     23  C   UNL     1       4.623   7.230  16.733  0.00  0.00    +0.000 A 
ATOM     24  N   UNL     1       5.415   6.589  15.836  0.00  0.00    +0.000 NA
ATOM     25  C   UNL     1       5.405   5.250  15.891  0.00  0.00    +0.000 A 
ATOM     26  C   UNL     1       4.626   4.522  16.777  0.00  0.00    +0.000 A 
ATOM     27  C   UNL     1       3.800   5.187  17.704  0.00  0.00    +0.000 A 
BRANCH  27  28
ATOM     28  N   UNL     1       2.974   4.467  18.600  0.00  0.00    +0.000 N 
ATOM     29  C   UNL     1       3.550   4.091  19.906  0.00  0.00    +0.000 C 
ATOM     30  C   UNL     1       2.409   3.752  20.862  0.00  0.00    +0.000 C 
ATOM     31  C   UNL     1       1.522   2.638  20.303  0.00  0.00    +0.000 C 
ATOM     32  C   UNL     1       1.060   2.937  18.866  0.00  0.00    +0.000 C 
ATOM     33  C   UNL     1       2.266   3.328  17.972  0.00  0.00    +0.000 C 
BRANCH  32  34
ATOM     34  N   UNL     1       0.316   1.780  18.353  0.00  0.00    +0.000 NA
ATOM     35  H   UNL     1       0.490   0.962  18.934  0.00  0.00    +0.000 HD
ATOM     36  H   UNL     1       0.651   1.546  17.418  0.00  0.00    +0.000 HD
ENDBRANCH  32  34
ENDBRANCH  27  28
ENDBRANCH   3  22
TORSDOF 6
ENDMDL
MODEL 7
REMARK VINA RESULT:      -7.5      1.062      2.064
REMARK  Name = 
REMARK  6 active torsions:
REMARK  status: ('A' for Active; 'I' for Inactive)
REMARK    1  A    between atoms: N_1  and  C_2
REMARK    2  A    between atoms: C_5  and  C_6
REMARK    3  A    between atoms: C_15  and  C_16
REMARK    4  A    between atoms: N_18  and  C_19
REMARK    5  A    between atoms: C_24  and  N_25
REMARK    6  A    between atoms: C_29  and  N_30
REMARK                            x       y       z     vdW  Elec       q    Type
REMARK                         _______ _______ _______ _____ _____    ______ ____
ROOT
ATOM      1  C   UNL     1       2.446   7.869  18.264  0.00  0.00    +0.000 C 
ATOM      2  O   UNL     1       2.141   8.172  17.108  0.00  0.00    +0.000 OA
ATOM      3  N   UNL     1       3.316   6.835  18.588  0.00  0.00    +0.000 N 
ATOM      4  H   UNL     1       3.372   6.533  19.558  0.00  0.00    +0.000 HD
ENDROOT
BRANCH   1  10
ATOM      5  C   UNL     1       1.454   7.954  20.575  0.00  0.00    +0.000 A 
ATOM      6  C   UNL     1       0.818   8.697  21.564  0.00  0.00    +0.000 A 
ATOM      7  C   UNL     1       0.505  10.035  21.337  0.00  0.00    +0.000 A 
ATOM      8  C   UNL     1       0.857  10.644  20.130  0.00  0.00    +0.000 A 
ATOM      9  N   UNL     1       1.524   9.955  19.161  0.00  0.00    +0.000 NA
ATOM     10  C   UNL     1       1.814   8.640  19.398  0.00  0.00    +0.000 A 
BRANCH   8  11
ATOM     11  C   UNL     1       0.565  12.069  19.862  0.00  0.00    +0.000 A 
ATOM     12  C   UNL     1       1.417  13.094  20.306  0.00  0.00    +0.000 A 
ATOM     13  F   UNL     1       2.551  12.808  20.964  0.00  0.00    +0.000 F 
ATOM     14  C   UNL     1       1.115  14.448  20.121  0.00  0.00    +0.000 A 
ATOM     15  C   UNL     1      -0.063  14.825  19.485  0.00  0.00    +0.000 A 
ATOM     16  C   UNL     1      -0.921  13.841  19.010  0.00  0.00    +0.000 A 
ATOM     17  C   UNL     1      -0.597  12.491  19.187  0.00  0.00    +0.000 A 
ATOM     18  F   UNL     1      -1.458  11.596  18.675  0.00  0.00    +0.000 F 
ENDBRANCH   8  11
BRANCH   5  19
ATOM     19  N   UNL     1       1.879   6.651  20.904  0.00  0.00    +0.000 N 
ATOM     20  H   UNL     1       2.595   6.629  21.623  0.00  0.00    +0.000 HD
ATOM     21  H   UNL     1       1.081   6.056  21.161  0.00  0.00    +0.000 HD
ENDBRANCH   5  19
ENDBRANCH   1  10
BRANCH   3  22
ATOM     22  C   UNL     1       4.108   6.106  17.647  0.00  0.00    +0.000 A 
ATOM     23  C   UNL     1       5.041   6.747  16.823  0.00  0.00    +0.000 A 
ATOM     24  N   UNL     1       5.903   6.120  15.984  0.00  0.00    +0.000 NA
ATOM     25  C   UNL     1       5.830   4.781  15.956  0.00  0.00    +0.000 A 
ATOM     26  C   UNL     1       4.924   4.045  16.703  0.00  0.00    +0.000 A 
ATOM     27  C   UNL     1       4.026   4.696  17.570  0.00  0.00    +0.000 A 
BRANCH  27  28
ATOM     28  N   UNL     1       3.073   3.969  18.322  0.00  0.00    +0.000 N 
ATOM     29  C   UNL     1       1.647   4.253  18.072  0.00  0.00    +0.000 C 
ATOM     30  C   UNL     1       0.816   3.093  18.615  0.00  0.00    +0.000 C 
ATOM     31  C   UNL     1       1.084   2.860  20.102  0.00  0.00    +0.000 C 
ATOM     32  C   UNL     1       2.588   2.741  20.404  0.00  0.00    +0.000 C 
ATOM     33  C   UNL     1       3.369   3.924  19.773  0.00  0.00    +0.000 C 
BRANCH  32  34
ATOM     34  N   UNL     1       2.777   2.638  21.857  0.00  0.00    +0.000 NA
ATOM     35  H   UNL     1       3.756   2.459  22.074  0.00  0.00    +0.000 HD
ATOM     36  H   UNL     1       2.252   1.839  22.213  0.00  0.00    +0.000 HD
ENDBRANCH  32  34
ENDBRANCH  27  28
ENDBRANCH   3  22
TORSDOF 6
ENDMDL
MODEL 8
REMARK VINA RESULT:      -7.5      3.601      8.941
REMARK  Name = 
REMARK  6 active torsions:
REMARK  status: ('A' for Active; 'I' for Inactive)
REMARK    1  A    between atoms: N_1  and  C_2
REMARK    2  A    between atoms: C_5  and  C_6
REMARK    3  A    between atoms: C_15  and  C_16
REMARK    4  A    between atoms: N_18  and  C_19
REMARK    5  A    between atoms: C_24  and  N_25
REMARK    6  A    between atoms: C_29  and  N_30
REMARK                            x       y       z     vdW  Elec       q    Type
REMARK                         _______ _______ _______ _____ _____    ______ ____
ROOT
ATOM      1  C   UNL     1       0.850   9.883  20.697  0.00  0.00    +0.000 C 
ATOM      2  O   UNL     1       1.409  10.167  21.759  0.00  0.00    +0.000 OA
ATOM      3  N   UNL     1      -0.389  10.384  20.318  0.00  0.00    +0.000 N 
ATOM      4  H   UNL     1      -0.860   9.964  19.520  0.00  0.00    +0.000 HD
ENDROOT
BRANCH   1  10
ATOM      5  C   UNL     1       1.811   9.306  18.444  0.00  0.00    +0.000 A 
ATOM      6  C   UNL     1       2.380   8.350  17.609  0.00  0.00    +0.000 A 
ATOM      7  C   UNL     1       2.583   7.053  18.073  0.00  0.00    +0.000 A 
ATOM      8  C   UNL     1       2.246   6.715  19.385  0.00  0.00    +0.000 A 
ATOM      9  N   UNL     1       1.731   7.642  20.242  0.00  0.00    +0.000 NA
ATOM     10  C   UNL     1       1.531   8.908  19.766  0.00  0.00    +0.000 A 
BRANCH   8  11
ATOM     11  C   UNL     1       2.470   5.355  19.922  0.00  0.00    +0.000 A 
ATOM     12  C   UNL     1       3.732   4.739  19.871  0.00  0.00    +0.000 A 
ATOM     13  F   UNL     1       4.791   5.384  19.359  0.00  0.00    +0.000 F 
ATOM     14  C   UNL     1       3.940   3.426  20.309  0.00  0.00    +0.000 A 
ATOM     15  C   UNL     1       2.882   2.677  20.813  0.00  0.00    +0.000 A 
ATOM     16  C   UNL     1       1.623   3.259  20.903  0.00  0.00    +0.000 A 
ATOM     17  C   UNL     1       1.435   4.578  20.476  0.00  0.00    +0.000 A 
ATOM     18  F   UNL     1       0.198   5.084  20.621  0.00  0.00    +0.000 F 
ENDBRANCH   8  11
BRANCH   5  19
ATOM     19  N   UNL     1       1.760  10.637  17.981  0.00  0.00    +0.000 N 
ATOM     20  H   UNL     1       1.002  11.177  18.386  0.00  0.00    +0.000 HD
ATOM     21  H   UNL     1       2.663  11.110  18.118  0.00  0.00    +0.000 HD
ENDBRANCH   5  19
ENDBRANCH   1  10
BRANCH   3  22
ATOM     22  C   UNL     1      -1.098  11.419  21.003  0.00  0.00    +0.000 A 
ATOM     23  C   UNL     1      -0.700  11.866  22.269  0.00  0.00    +0.000 A 
ATOM     24  N   UNL     1      -1.250  12.911  22.937  0.00  0.00    +0.000 NA
ATOM     25  C   UNL     1      -2.257  13.544  22.318  0.00  0.00    +0.000 A 
ATOM     26  C   UNL     1      -2.754  13.169  21.079  0.00  0.00    +0.000 A 
ATOM     27  C   UNL     1      -2.187  12.082  20.388  0.00  0.00    +0.000 A 
BRANCH  27  28
ATOM     28  N   UNL     1      -2.695  11.661  19.136  0.00  0.00    +0.000 N 
ATOM     29  C   UNL     1      -1.893  11.970  17.936  0.00  0.00    +0.000 C 
ATOM     30  C   UNL     1      -2.355  11.067  16.795  0.00  0.00    +0.000 C 
ATOM     31  C   UNL     1      -3.851  11.230  16.522  0.00  0.00    +0.000 C 
ATOM     32  C   UNL     1      -4.689  11.089  17.805  0.00  0.00    +0.000 C 
ATOM     33  C   UNL     1      -4.124  11.993  18.932  0.00  0.00    +0.000 C 
BRANCH  32  34
ATOM     34  N   UNL     1      -6.095  11.373  17.491  0.00  0.00    +0.000 NA
ATOM     35  H   UNL     1      -6.707  10.759  18.025  0.00  0.00    +0.000 HD
ATOM     36  H   UNL     1      -6.272  11.172  16.506  0.00  0.00    +0.000 HD
ENDBRANCH  32  34
ENDBRANCH  27  28
ENDBRANCH   3  22
TORSDOF 6
ENDMDL
MODEL 9
REMARK VINA RESULT:      -7.4      1.126      1.430
REMARK  Name = 
REMARK  6 active torsions:
REMARK  status: ('A' for Active; 'I' for Inactive)
REMARK    1  A    between atoms: N_1  and  C_2
REMARK    2  A    between atoms: C_5  and  C_6
REMARK    3  A    between atoms: C_15  and  C_16
REMARK    4  A    between atoms: N_18  and  C_19
REMARK    5  A    between atoms: C_24  and  N_25
REMARK    6  A    between atoms: C_29  and  N_30
REMARK                            x       y       z     vdW  Elec       q    Type
REMARK                         _______ _______ _______ _____ _____    ______ ____
ROOT
ATOM      1  C   UNL     1       2.952   7.097  18.253  0.00  0.00    +0.000 C 
ATOM      2  O   UNL     1       2.520   7.036  17.100  0.00  0.00    +0.000 OA
ATOM      3  N   UNL     1       4.152   6.526  18.660  0.00  0.00    +0.000 N 
ATOM      4  H   UNL     1       4.348   6.464  19.656  0.00  0.00    +0.000 HD
ENDROOT
BRANCH   1  10
ATOM      5  C   UNL     1       1.766   7.113  20.472  0.00  0.00    +0.000 A 
ATOM      6  C   UNL     1       0.945   7.785  21.372  0.00  0.00    +0.000 A 
ATOM      7  C   UNL     1       0.458   9.050  21.057  0.00  0.00    +0.000 A 
ATOM      8  C   UNL     1       0.816   9.663  19.853  0.00  0.00    +0.000 A 
ATOM      9  N   UNL     1       1.657   9.049  18.974  0.00  0.00    +0.000 NA
ATOM     10  C   UNL     1       2.119   7.803  19.296  0.00  0.00    +0.000 A 
BRANCH   8  11
ATOM     11  C   UNL     1       0.339  11.016  19.495  0.00  0.00    +0.000 A 
ATOM     12  C   UNL     1      -0.705  11.212  18.576  0.00  0.00    +0.000 A 
ATOM     13  F   UNL     1      -1.331  10.166  18.014  0.00  0.00    +0.000 F 
ATOM     14  C   UNL     1      -1.116  12.488  18.174  0.00  0.00    +0.000 A 
ATOM     15  C   UNL     1      -0.487  13.621  18.678  0.00  0.00    +0.000 A 
ATOM     16  C   UNL     1       0.534  13.470  19.608  0.00  0.00    +0.000 A 
ATOM     17  C   UNL     1       0.923  12.188  20.013  0.00  0.00    +0.000 A 
ATOM     18  F   UNL     1       1.895  12.120  20.937  0.00  0.00    +0.000 F 
ENDBRANCH   8  11
BRANCH   5  19
ATOM     19  N   UNL     1       2.352   5.902  20.896  0.00  0.00    +0.000 N 
ATOM     20  H   UNL     1       3.348   5.847  20.707  0.00  0.00    +0.000 HD
ATOM     21  H   UNL     1       2.156   5.725  21.890  0.00  0.00    +0.000 HD
ENDBRANCH   5  19
ENDBRANCH   1  10
BRANCH   3  22
ATOM     22  C   UNL     1       5.125   5.954  17.782  0.00  0.00    +0.000 A 
ATOM     23  C   UNL     1       6.105   6.740  17.163  0.00  0.00    +0.000 A 
ATOM     24  N   UNL     1       7.125   6.264  16.405  0.00  0.00    +0.000 NA
ATOM     25  C   UNL     1       7.171   4.933  16.247  0.00  0.00    +0.000 A 
ATOM     26  C   UNL     1       6.237   4.062  16.787  0.00  0.00    +0.000 A 
ATOM     27  C   UNL     1       5.176   4.557  17.569  0.00  0.00    +0.000 A 
BRANCH  27  28
ATOM     28  N   UNL     1       4.194   3.692  18.107  0.00  0.00    +0.000 N 
ATOM     29  C   UNL     1       2.890   3.628  17.418  0.00  0.00    +0.000 C 
ATOM     30  C   UNL     1       2.171   2.354  17.853  0.00  0.00    +0.000 C 
ATOM     31  C   UNL     1       2.001   2.297  19.372  0.00  0.00    +0.000 C 
ATOM     32  C   UNL     1       3.329   2.543  20.109  0.00  0.00    +0.000 C 
ATOM     33  C   UNL     1       4.025   3.822  19.573  0.00  0.00    +0.000 C 
BRANCH  32  34
ATOM     34  N   UNL     1       3.072   2.593  21.554  0.00  0.00    +0.000 NA
ATOM     35  H   UNL     1       2.090   2.399  21.745  0.00  0.00    +0.000 HD
ATOM     36  H   UNL     1       3.252   3.536  21.901  0.00  0.00    +0.000 HD
ENDBRANCH  32  34
ENDBRANCH  27  28
ENDBRANCH   3  22
TORSDOF 6
ENDMDL
