MODEL 1
REMARK VINA RESULT:      -7.7      0.000      0.000
REMARK  Name = 
REMARK  8 active torsions:
REMARK  status: ('A' for Active; 'I' for Inactive)
REMARK    1  A    between atoms: C_1  and  C_2
REMARK    2  A    between atoms: C_2  and  N_3
REMARK    3  A    between atoms: C_2  and  C_20
REMARK    4  A    between atoms: C_8  and  N_9
REMARK    5  A    between atoms: C_13  and  C_14
REMARK    6  A    between atoms: C_13  and  C_15
REMARK    7  A    between atoms: C_16  and  C_17
REMARK    8  A    between atoms: C_16  and  C_18
REMARK                            x       y       z     vdW  Elec       q    Type
REMARK                         _______ _______ _______ _____ _____    ______ ____
ROOT
ATOM      1  N   UNL     1       1.352   7.088  20.918  0.00  0.00    +0.000 N 
ATOM      2  C   UNL     1       1.872   5.977  20.315  0.00  0.00    +0.000 A 
ATOM      3  N   UNL     1       1.206   4.837  20.517  0.00  0.00    +0.000 NA
ATOM      4  C   UNL     1       1.750   3.716  20.005  0.00  0.00    +0.000 A 
ATOM      5  C   UNL     1       2.970   3.685  19.379  0.00  0.00    +0.000 A 
ATOM      6  C   UNL     1       3.574   4.904  19.191  0.00  0.00    +0.000 A 
ATOM      7  N   UNL     1       2.993   6.053  19.601  0.00  0.00    +0.000 NA
ATOM      8  H   UNL     1       0.716   6.886  21.673  0.00  0.00    +0.000 HD
ENDROOT
BRANCH   6   9
ATOM      9  N   UNL     1       4.834   4.989  18.579  0.00  0.00    +0.000 N 
ATOM     10  C   UNL     1       6.007   4.688  19.237  0.00  0.00    +0.000 C 
ATOM     11  O   UNL     1       6.129   4.172  20.335  0.00  0.00    +0.000 OA
ATOM     12  O   UNL     1       7.074   5.094  18.495  0.00  0.00    +0.000 OA
ATOM     13  C   UNL     1       6.641   5.659  17.233  0.00  0.00    +0.000 C 
ATOM     14  C   UNL     1       7.424   4.860  16.180  0.00  0.00    +0.000 C 
ATOM     15  C   UNL     1       7.122   7.116  17.178  0.00  0.00    +0.000 C 
ATOM     16  C   UNL     1       5.082   5.492  17.233  0.00  0.00    +0.000 C 
ATOM     17  C   UNL     1       4.617   4.428  16.207  0.00  0.00    +0.000 C 
ATOM     18  C   UNL     1       4.318   6.789  16.904  0.00  0.00    +0.000 C 
ENDBRANCH   6   9
BRANCH   1  20
ATOM     19  C   UNL     1       1.619   8.634  19.082  0.00  0.00    +0.000 C 
ATOM     20  C   UNL     1       1.721   8.445  20.599  0.00  0.00    +0.000 C 
BRANCH  20  21
ATOM     21  C   UNL     1       0.839   9.444  21.339  0.00  0.00    +0.000 A 
ATOM     22  C   UNL     1       0.702  10.752  20.847  0.00  0.00    +0.000 A 
ATOM     23  C   UNL     1      -0.100  11.690  21.499  0.00  0.00    +0.000 A 
ATOM     24  C   UNL     1      -0.784  11.333  22.658  0.00  0.00    +0.000 A 
ATOM     25  C   UNL     1      -0.676  10.035  23.154  0.00  0.00    +0.000 A 
ATOM     26  C   UNL     1       0.131   9.095  22.500  0.00  0.00    +0.000 A 
ENDBRANCH  20  21
ENDBRANCH   1  20
TORSDOF 3
ENDMDL
MODEL 2
REMARK VINA RESULT:      -7.7      1.953      3.683
REMARK  Name = 
REMARK  8 active torsions:
REMARK  status: ('A' for Active; 'I' for Inactive)
REMARK    1  A    between atoms: C_1  and  C_2
REMARK    2  A    between atoms: C_2  and  N_3
REMARK    3  A    between atoms: C_2  and  C_20
REMARK    4  A    between atoms: C_8  and  N_9
REMARK    5  A    between atoms: C_13  and  C_14
REMARK    6  A    between atoms: C_13  and  C_15
REMARK    7  A    between atoms: C_16  and  C_17
REMARK    8  A    between atoms: C_16  and  C_18
REMARK                            x       y       z     vdW  Elec       q    Type
REMARK                         _______ _______ _______ _____ _____    ______ ____
ROOT
ATOM      1  N   UNL     1       0.919   9.289  19.665  0.00  0.00    +0.000 N 
ATOM      2  C   UNL     1       1.878   8.532  19.053  0.00  0.00    +0.000 A 
ATOM      3  N   UNL     1       2.407   9.046  17.940  0.00  0.00    +0.000 NA
ATOM      4  C   UNL     1       3.290   8.278  17.274  0.00  0.00    +0.000 A 
ATOM      5  C   UNL     1       3.592   6.989  17.633  0.00  0.00    +0.000 A 
ATOM      6  C   UNL     1       3.024   6.547  18.802  0.00  0.00    +0.000 A 
ATOM      7  N   UNL     1       2.221   7.342  19.544  0.00  0.00    +0.000 NA
ATOM      8  H   UNL     1       0.508   9.990  19.071  0.00  0.00    +0.000 HD
ENDROOT
BRANCH   6   9
ATOM      9  N   UNL     1       3.250   5.239  19.255  0.00  0.00    +0.000 N 
ATOM     10  C   UNL     1       4.503   4.767  19.583  0.00  0.00    +0.000 C 
ATOM     11  O   UNL     1       5.533   5.412  19.687  0.00  0.00    +0.000 OA
ATOM     12  O   UNL     1       4.464   3.415  19.744  0.00  0.00    +0.000 OA
ATOM     13  C   UNL     1       3.115   2.915  19.577  0.00  0.00    +0.000 C 
ATOM     14  C   UNL     1       2.852   2.120  20.866  0.00  0.00    +0.000 C 
ATOM     15  C   UNL     1       3.121   1.925  18.403  0.00  0.00    +0.000 C 
ATOM     16  C   UNL     1       2.238   4.192  19.342  0.00  0.00    +0.000 C 
ATOM     17  C   UNL     1       1.315   4.488  20.551  0.00  0.00    +0.000 C 
ATOM     18  C   UNL     1       1.330   4.103  18.102  0.00  0.00    +0.000 C 
ENDBRANCH   6   9
BRANCH   1  20
ATOM     19  C   UNL     1       1.647   8.935  21.940  0.00  0.00    +0.000 C 
ATOM     20  C   UNL     1       0.439   9.078  21.009  0.00  0.00    +0.000 C 
BRANCH  20  21
ATOM     21  C   UNL     1      -0.468  10.219  21.455  0.00  0.00    +0.000 A 
ATOM     22  C   UNL     1      -0.815  10.346  22.809  0.00  0.00    +0.000 A 
ATOM     23  C   UNL     1      -1.641  11.381  23.252  0.00  0.00    +0.000 A 
ATOM     24  C   UNL     1      -2.133  12.313  22.342  0.00  0.00    +0.000 A 
ATOM     25  C   UNL     1      -1.788  12.216  20.995  0.00  0.00    +0.000 A 
ATOM     26  C   UNL     1      -0.960  11.175  20.552  0.00  0.00    +0.000 A 
ENDBRANCH  20  21
ENDBRANCH   1  20
TORSDOF 3
ENDMDL
MODEL 3
REMARK VINA RESULT:      -7.5      3.931      6.709
REMARK  Name = 
REMARK  8 active torsions:
REMARK  status: ('A' for Active; 'I' for Inactive)
REMARK    1  A    between atoms: C_1  and  C_2
REMARK    2  A    between atoms: C_2  and  N_3
REMARK    3  A    between atoms: C_2  and  C_20
REMARK    4  A    between atoms: C_8  and  N_9
REMARK    5  A    between atoms: C_13  and  C_14
REMARK    6  A    between atoms: C_13  and  C_15
REMARK    7  A    between atoms: C_16  and  C_17
REMARK    8  A    between atoms: C_16  and  C_18
REMARK                            x       y       z     vdW  Elec       q    Type
REMARK                         _______ _______ _______ _____ _____    ______ ____
ROOT
ATOM      1  N   UNL     1       7.414   7.365  16.996  0.00  0.00    +0.000 N 
ATOM      2  C   UNL     1       6.550   6.358  16.670  0.00  0.00    +0.000 A 
ATOM      3  N   UNL     1       6.717   5.813  15.462  0.00  0.00    +0.000 NA
ATOM      4  C   UNL     1       5.822   4.880  15.086  0.00  0.00    +0.000 A 
ATOM      5  C   UNL     1       4.724   4.540  15.835  0.00  0.00    +0.000 A 
ATOM      6  C   UNL     1       4.642   5.129  17.073  0.00  0.00    +0.000 A 
ATOM      7  N   UNL     1       5.589   5.986  17.514  0.00  0.00    +0.000 NA
ATOM      8  H   UNL     1       7.876   7.783  16.205  0.00  0.00    +0.000 HD
ENDROOT
BRANCH   6   9
ATOM      9  N   UNL     1       3.551   4.868  17.916  0.00  0.00    +0.000 N 
ATOM     10  C   UNL     1       2.603   5.820  18.227  0.00  0.00    +0.000 C 
ATOM     11  O   UNL     1       2.467   6.922  17.724  0.00  0.00    +0.000 OA
ATOM     12  O   UNL     1       1.816   5.376  19.246  0.00  0.00    +0.000 OA
ATOM     13  C   UNL     1       2.189   4.033  19.639  0.00  0.00    +0.000 C 
ATOM     14  C   UNL     1       0.875   3.242  19.549  0.00  0.00    +0.000 C 
ATOM     15  C   UNL     1       2.617   4.074  21.113  0.00  0.00    +0.000 C 
ATOM     16  C   UNL     1       3.329   3.625  18.644  0.00  0.00    +0.000 C 
ATOM     17  C   UNL     1       2.861   2.537  17.646  0.00  0.00    +0.000 C 
ATOM     18  C   UNL     1       4.592   3.078  19.337  0.00  0.00    +0.000 C 
ENDBRANCH   6   9
BRANCH   1  20
ATOM     19  C   UNL     1       8.489   6.896  19.107  0.00  0.00    +0.000 C 
ATOM     20  C   UNL     1       7.610   7.880  18.329  0.00  0.00    +0.000 C 
BRANCH  20  21
ATOM     21  C   UNL     1       8.235   9.270  18.295  0.00  0.00    +0.000 A 
ATOM     22  C   UNL     1       9.322   9.566  19.132  0.00  0.00    +0.000 A 
ATOM     23  C   UNL     1       9.920  10.827  19.124  0.00  0.00    +0.000 A 
ATOM     24  C   UNL     1       9.440  11.818  18.271  0.00  0.00    +0.000 A 
ATOM     25  C   UNL     1       8.372  11.541  17.420  0.00  0.00    +0.000 A 
ATOM     26  C   UNL     1       7.772  10.275  17.431  0.00  0.00    +0.000 A 
ENDBRANCH  20  21
ENDBRANCH   1  20
TORSDOF 3
ENDMDL
MODEL 4
REMARK VINA RESULT:      -7.5      3.389      6.573
REMARK  Name = 
REMARK  8 active torsions:
REMARK  status: ('A' for Active; 'I' for Inactive)
REMARK    1  A    between atoms: C_1  and  C_2
REMARK    2  A    between atoms: C_2  and  N_3
REMARK    3  A    between atoms: C_2  and  C_20
REMARK    4  A    between atoms: C_8  and  N_9
REMARK    5  A    between atoms: C_13  and  C_14
REMARK    6  A    between atoms: C_13  and  C_15
REMARK    7  A    between atoms: C_16  and  C_17
REMARK    8  A    between atoms: C_16  and  C_18
REMARK                            x       y       z     vdW  Elec       q    Type
REMARK                         _______ _______ _______ _____ _____    ______ ____
ROOT
ATOM      1  N   UNL     1       7.105   7.430  17.029  0.00  0.00    +0.000 N 
ATOM      2  C   UNL     1       6.346   6.319  16.790  0.00  0.00    +0.000 A 
ATOM      3  N   UNL     1       6.346   5.871  15.532  0.00  0.00    +0.000 NA
ATOM      4  C   UNL     1       5.537   4.831  15.256  0.00  0.00    +0.000 A 
ATOM      5  C   UNL     1       4.669   4.285  16.169  0.00  0.00    +0.000 A 
ATOM      6  C   UNL     1       4.751   4.789  17.443  0.00  0.00    +0.000 A 
ATOM      7  N   UNL     1       5.635   5.759  17.767  0.00  0.00    +0.000 NA
ATOM      8  H   UNL     1       7.336   7.956  16.201  0.00  0.00    +0.000 HD
ENDROOT
BRANCH   6   9
ATOM      9  N   UNL     1       3.898   4.317  18.453  0.00  0.00    +0.000 N 
ATOM     10  C   UNL     1       4.268   3.333  19.345  0.00  0.00    +0.000 C 
ATOM     11  O   UNL     1       5.379   2.858  19.504  0.00  0.00    +0.000 OA
ATOM     12  O   UNL     1       3.179   2.901  20.039  0.00  0.00    +0.000 OA
ATOM     13  C   UNL     1       1.996   3.647  19.660  0.00  0.00    +0.000 C 
ATOM     14  C   UNL     1       1.449   4.177  20.994  0.00  0.00    +0.000 C 
ATOM     15  C   UNL     1       0.974   2.653  19.089  0.00  0.00    +0.000 C 
ATOM     16  C   UNL     1       2.506   4.714  18.631  0.00  0.00    +0.000 C 
ATOM     17  C   UNL     1       2.465   6.147  19.219  0.00  0.00    +0.000 C 
ATOM     18  C   UNL     1       1.699   4.748  17.320  0.00  0.00    +0.000 C 
ENDBRANCH   6   9
BRANCH   1  20
ATOM     19  C   UNL     1       8.433   6.873  18.967  0.00  0.00    +0.000 C 
ATOM     20  C   UNL     1       7.485   7.899  18.338  0.00  0.00    +0.000 C 
BRANCH  20  21
ATOM     21  C   UNL     1       8.136   9.276  18.263  0.00  0.00    +0.000 A 
ATOM     22  C   UNL     1       9.262   9.560  19.052  0.00  0.00    +0.000 A 
ATOM     23  C   UNL     1       9.884  10.809  19.004  0.00  0.00    +0.000 A 
ATOM     24  C   UNL     1       9.389  11.798  18.158  0.00  0.00    +0.000 A 
ATOM     25  C   UNL     1       8.282  11.533  17.354  0.00  0.00    +0.000 A 
ATOM     26  C   UNL     1       7.658  10.279  17.404  0.00  0.00    +0.000 A 
ENDBRANCH  20  21
ENDBRANCH   1  20
TORSDOF 3
ENDMDL
MODEL 5
REMARK VINA RESULT:      -7.4      3.789      8.506
REMARK  Name = 
REMARK  8 active torsions:
REMARK  status: ('A' for Active; 'I' for Inactive)
REMARK    1  A    between atoms: C_1  and  C_2
REMARK    2  A    between atoms: C_2  and  N_3
REMARK    3  A    between atoms: C_2  and  C_20
REMARK    4  A    between atoms: C_8  and  N_9
REMARK    5  A    between atoms: C_13  and  C_14
REMARK    6  A    between atoms: C_13  and  C_15
REMARK    7  A    between atoms: C_16  and  C_17
REMARK    8  A    between atoms: C_16  and  C_18
REMARK                            x       y       z     vdW  Elec       q    Type
REMARK                         _______ _______ _______ _____ _____    ______ ____
ROOT
ATOM      1  N   UNL     1       6.666   4.615  15.366  0.00  0.00    +0.000 N 
ATOM      2  C   UNL     1       6.469   4.856  16.696  0.00  0.00    +0.000 A 
ATOM      3  N   UNL     1       7.558   5.177  17.400  0.00  0.00    +0.000 NA
ATOM      4  C   UNL     1       7.401   5.333  18.728  0.00  0.00    +0.000 A 
ATOM      5  C   UNL     1       6.218   5.094  19.383  0.00  0.00    +0.000 A 
ATOM      6  C   UNL     1       5.145   4.792  18.582  0.00  0.00    +0.000 A 
ATOM      7  N   UNL     1       5.257   4.739  17.236  0.00  0.00    +0.000 NA
ATOM      8  H   UNL     1       7.623   4.414  15.122  0.00  0.00    +0.000 HD
ENDROOT
BRANCH   6   9
ATOM      9  N   UNL     1       3.891   4.511  19.145  0.00  0.00    +0.000 N 
ATOM     10  C   UNL     1       3.040   5.494  19.604  0.00  0.00    +0.000 C 
ATOM     11  O   UNL     1       3.152   6.699  19.455  0.00  0.00    +0.000 OA
ATOM     12  O   UNL     1       2.025   4.935  20.319  0.00  0.00    +0.000 OA
ATOM     13  C   UNL     1       2.131   3.490  20.322  0.00  0.00    +0.000 C 
ATOM     14  C   UNL     1       0.761   3.016  19.813  0.00  0.00    +0.000 C 
ATOM     15  C   UNL     1       2.280   3.030  21.779  0.00  0.00    +0.000 C 
ATOM     16  C   UNL     1       3.370   3.176  19.414  0.00  0.00    +0.000 C 
ATOM     17  C   UNL     1       2.951   2.523  18.073  0.00  0.00    +0.000 C 
ATOM     18  C   UNL     1       4.395   2.230  20.067  0.00  0.00    +0.000 C 
ENDBRANCH   6   9
BRANCH   1  20
ATOM     19  C   UNL     1       5.253   5.977  13.960  0.00  0.00    +0.000 C 
ATOM     20  C   UNL     1       5.618   4.549  14.378  0.00  0.00    +0.000 C 
BRANCH  20  21
ATOM     21  C   UNL     1       6.045   3.715  13.175  0.00  0.00    +0.000 A 
ATOM     22  C   UNL     1       5.118   2.867  12.550  0.00  0.00    +0.000 A 
ATOM     23  C   UNL     1       5.475   2.092  11.445  0.00  0.00    +0.000 A 
ATOM     24  C   UNL     1       6.773   2.157  10.943  0.00  0.00    +0.000 A 
ATOM     25  C   UNL     1       7.705   3.005  11.538  0.00  0.00    +0.000 A 
ATOM     26  C   UNL     1       7.345   3.781  12.648  0.00  0.00    +0.000 A 
ENDBRANCH  20  21
ENDBRANCH   1  20
TORSDOF 3
ENDMDL
MODEL 6
REMARK VINA RESULT:      -7.3      3.300      7.681
REMARK  Name = 
REMARK  8 active torsions:
REMARK  status: ('A' for Active; 'I' for Inactive)
REMARK    1  A    between atoms: C_1  and  C_2
REMARK    2  A    between atoms: C_2  and  N_3
REMARK    3  A    between atoms: C_2  and  C_20
REMARK    4  A    between atoms: C_8  and  N_9
REMARK    5  A    between atoms: C_13  and  C_14
REMARK    6  A    between atoms: C_13  and  C_15
REMARK    7  A    between atoms: C_16  and  C_17
REMARK    8  A    between atoms: C_16  and  C_18
REMARK                            x       y       z     vdW  Elec       q    Type
REMARK                         _______ _______ _______ _____ _____    ______ ____
ROOT
ATOM      1  N   UNL     1       6.546   6.606  16.197  0.00  0.00    +0.000 N 
ATOM      2  C   UNL     1       5.337   6.595  16.834  0.00  0.00    +0.000 A 
ATOM      3  N   UNL     1       4.628   7.724  16.761  0.00  0.00    +0.000 NA
ATOM      4  C   UNL     1       3.474   7.765  17.454  0.00  0.00    +0.000 A 
ATOM      5  C   UNL     1       3.053   6.754  18.281  0.00  0.00    +0.000 A 
ATOM      6  C   UNL     1       3.827   5.620  18.277  0.00  0.00    +0.000 A 
ATOM      7  N   UNL     1       4.931   5.518  17.504  0.00  0.00    +0.000 NA
ATOM      8  H   UNL     1       6.900   7.529  16.004  0.00  0.00    +0.000 HD
ENDROOT
BRANCH   6   9
ATOM      9  N   UNL     1       3.500   4.531  19.099  0.00  0.00    +0.000 N 
ATOM     10  C   UNL     1       4.453   3.719  19.677  0.00  0.00    +0.000 C 
ATOM     11  O   UNL     1       5.659   3.897  19.708  0.00  0.00    +0.000 OA
ATOM     12  O   UNL     1       3.862   2.611  20.205  0.00  0.00    +0.000 OA
ATOM     13  C   UNL     1       2.424   2.666  20.041  0.00  0.00    +0.000 C 
ATOM     14  C   UNL     1       1.879   2.467  21.464  0.00  0.00    +0.000 C 
ATOM     15  C   UNL     1       1.999   1.455  19.197  0.00  0.00    +0.000 C 
ATOM     16  C   UNL     1       2.149   4.053  19.366  0.00  0.00    +0.000 C 
ATOM     17  C   UNL     1       1.453   5.039  20.338  0.00  0.00    +0.000 C 
ATOM     18  C   UNL     1       1.262   3.969  18.109  0.00  0.00    +0.000 C 
ENDBRANCH   6   9
BRANCH   1  20
ATOM     19  C   UNL     1       7.146   4.421  17.032  0.00  0.00    +0.000 C 
ATOM     20  C   UNL     1       7.326   5.431  15.895  0.00  0.00    +0.000 C 
BRANCH  20  21
ATOM     21  C   UNL     1       6.918   4.829  14.554  0.00  0.00    +0.000 A 
ATOM     22  C   UNL     1       7.675   5.107  13.406  0.00  0.00    +0.000 A 
ATOM     23  C   UNL     1       7.331   4.570  12.164  0.00  0.00    +0.000 A 
ATOM     24  C   UNL     1       6.220   3.738  12.052  0.00  0.00    +0.000 A 
ATOM     25  C   UNL     1       5.464   3.435  13.182  0.00  0.00    +0.000 A 
ATOM     26  C   UNL     1       5.809   3.977  14.427  0.00  0.00    +0.000 A 
ENDBRANCH  20  21
ENDBRANCH   1  20
TORSDOF 3
ENDMDL
MODEL 7
REMARK VINA RESULT:      -7.2      3.558      8.348
REMARK  Name = 
REMARK  8 active torsions:
REMARK  status: ('A' for Active; 'I' for Inactive)
REMARK    1  A    between atoms: C_1  and  C_2
REMARK    2  A    between atoms: C_2  and  N_3
REMARK    3  A    between atoms: C_2  and  C_20
REMARK    4  A    between atoms: C_8  and  N_9
REMARK    5  A    between atoms: C_13  and  C_14
REMARK    6  A    between atoms: C_13  and  C_15
REMARK    7  A    between atoms: C_16  and  C_17
REMARK    8  A    between atoms: C_16  and  C_18
REMARK                            x       y       z     vdW  Elec       q    Type
REMARK                         _______ _______ _______ _____ _____    ______ ____
ROOT
ATOM      1  N   UNL     1       6.615   4.862  15.375  0.00  0.00    +0.000 N 
ATOM      2  C   UNL     1       6.477   4.947  16.731  0.00  0.00    +0.000 A 
ATOM      3  N   UNL     1       7.535   5.413  17.399  0.00  0.00    +0.000 NA
ATOM      4  C   UNL     1       7.452   5.422  18.743  0.00  0.00    +0.000 A 
ATOM      5  C   UNL     1       6.388   4.905  19.438  0.00  0.00    +0.000 A 
ATOM      6  C   UNL     1       5.333   4.470  18.674  0.00  0.00    +0.000 A 
ATOM      7  N   UNL     1       5.352   4.553  17.326  0.00  0.00    +0.000 NA
ATOM      8  H   UNL     1       7.571   4.871  15.058  0.00  0.00    +0.000 HD
ENDROOT
BRANCH   6   9
ATOM      9  N   UNL     1       4.200   3.905  19.280  0.00  0.00    +0.000 N 
ATOM     10  C   UNL     1       4.227   2.688  19.927  0.00  0.00    +0.000 C 
ATOM     11  O   UNL     1       5.207   2.021  20.210  0.00  0.00    +0.000 OA
ATOM     12  O   UNL     1       2.957   2.274  20.192  0.00  0.00    +0.000 OA
ATOM     13  C   UNL     1       1.991   3.265  19.763  0.00  0.00    +0.000 C 
ATOM     14  C   UNL     1       1.149   3.532  21.020  0.00  0.00    +0.000 C 
ATOM     15  C   UNL     1       1.080   2.612  18.713  0.00  0.00    +0.000 C 
ATOM     16  C   UNL     1       2.851   4.458  19.222  0.00  0.00    +0.000 C 
ATOM     17  C   UNL     1       2.776   5.692  20.155  0.00  0.00    +0.000 C 
ATOM     18  C   UNL     1       2.437   4.937  17.818  0.00  0.00    +0.000 C 
ENDBRANCH   6   9
BRANCH   1  20
ATOM     19  C   UNL     1       5.027   6.057  14.004  0.00  0.00    +0.000 C 
ATOM     20  C   UNL     1       5.526   4.678  14.447  0.00  0.00    +0.000 C 
BRANCH  20  21
ATOM     21  C   UNL     1       5.958   3.838  13.250  0.00  0.00    +0.000 A 
ATOM     22  C   UNL     1       7.278   3.920  12.780  0.00  0.00    +0.000 A 
ATOM     23  C   UNL     1       7.706   3.162  11.689  0.00  0.00    +0.000 A 
ATOM     24  C   UNL     1       6.817   2.303  11.048  0.00  0.00    +0.000 A 
ATOM     25  C   UNL     1       5.506   2.194  11.509  0.00  0.00    +0.000 A 
ATOM     26  C   UNL     1       5.078   2.956  12.603  0.00  0.00    +0.000 A 
ENDBRANCH  20  21
ENDBRANCH   1  20
TORSDOF 3
ENDMDL
MODEL 8
REMARK VINA RESULT:      -7.2      3.491      8.155
REMARK  Name = 
REMARK  8 active torsions:
REMARK  status: ('A' for Active; 'I' for Inactive)
REMARK    1  A    between atoms: C_1  and  C_2
REMARK    2  A    between atoms: C_2  and  N_3
REMARK    3  A    between atoms: C_2  and  C_20
REMARK    4  A    between atoms: C_8  and  N_9
REMARK    5  A    between atoms: C_13  and  C_14
REMARK    6  A    between atoms: C_13  and  C_15
REMARK    7  A    between atoms: C_16  and  C_17
REMARK    8  A    between atoms: C_16  and  C_18
REMARK                            x       y       z     vdW  Elec       q    Type
REMARK                         _______ _______ _______ _____ _____    ______ ____
ROOT
ATOM      1  N   UNL     1       6.591   5.339  15.686  0.00  0.00    +0.000 N 
ATOM      2  C   UNL     1       6.407   5.309  17.039  0.00  0.00    +0.000 A 
ATOM      3  N   UNL     1       7.419   5.773  17.777  0.00  0.00    +0.000 NA
ATOM      4  C   UNL     1       7.295   5.671  19.114  0.00  0.00    +0.000 A 
ATOM      5  C   UNL     1       6.240   5.046  19.730  0.00  0.00    +0.000 A 
ATOM      6  C   UNL     1       5.233   4.621  18.900  0.00  0.00    +0.000 A 
ATOM      7  N   UNL     1       5.288   4.812  17.563  0.00  0.00    +0.000 NA
ATOM      8  H   UNL     1       7.554   5.422  15.404  0.00  0.00    +0.000 HD
ENDROOT
BRANCH   6   9
ATOM      9  N   UNL     1       4.114   3.953  19.420  0.00  0.00    +0.000 N 
ATOM     10  C   UNL     1       4.189   2.698  19.986  0.00  0.00    +0.000 C 
ATOM     11  O   UNL     1       5.196   2.070  20.263  0.00  0.00    +0.000 OA
ATOM     12  O   UNL     1       2.937   2.196  20.172  0.00  0.00    +0.000 OA
ATOM     13  C   UNL     1       1.930   3.157  19.771  0.00  0.00    +0.000 C 
ATOM     14  C   UNL     1       1.029   3.290  21.008  0.00  0.00    +0.000 C 
ATOM     15  C   UNL     1       1.099   2.528  18.644  0.00  0.00    +0.000 C 
ATOM     16  C   UNL     1       2.738   4.431  19.345  0.00  0.00    +0.000 C 
ATOM     17  C   UNL     1       2.557   5.593  20.354  0.00  0.00    +0.000 C 
ATOM     18  C   UNL     1       2.348   4.981  17.960  0.00  0.00    +0.000 C 
ENDBRANCH   6   9
BRANCH   1  20
ATOM     19  C   UNL     1       5.043   6.563  14.294  0.00  0.00    +0.000 C 
ATOM     20  C   UNL     1       5.541   5.175  14.711  0.00  0.00    +0.000 C 
BRANCH  20  21
ATOM     21  C   UNL     1       6.029   4.380  13.505  0.00  0.00    +0.000 A 
ATOM     22  C   UNL     1       5.197   3.410  12.926  0.00  0.00    +0.000 A 
ATOM     23  C   UNL     1       5.611   2.666  11.819  0.00  0.00    +0.000 A 
ATOM     24  C   UNL     1       6.871   2.886  11.268  0.00  0.00    +0.000 A 
ATOM     25  C   UNL     1       7.707   3.857  11.817  0.00  0.00    +0.000 A 
ATOM     26  C   UNL     1       7.290   4.600  12.928  0.00  0.00    +0.000 A 
ENDBRANCH  20  21
ENDBRANCH   1  20
TORSDOF 3
ENDMDL
MODEL 9
REMARK VINA RESULT:      -7.2      8.243     11.506
REMARK  Name = 
REMARK  8 active torsions:
REMARK  status: ('A' for Active; 'I' for Inactive)
REMARK    1  A    between atoms: C_1  and  C_2
REMARK    2  A    between atoms: C_2  and  N_3
REMARK    3  A    between atoms: C_2  and  C_20
REMARK    4  A    between atoms: C_8  and  N_9
REMARK    5  A    between atoms: C_13  and  C_14
REMARK    6  A    between atoms: C_13  and  C_15
REMARK    7  A    between atoms: C_16  and  C_17
REMARK    8  A    between atoms: C_16  and  C_18
REMARK                            x       y       z     vdW  Elec       q    Type
REMARK                         _______ _______ _______ _____ _____    ______ ____
ROOT
ATOM      1  N   UNL     1      -3.688  11.532  17.258  0.00  0.00    +0.000 N 
ATOM      2  C   UNL     1      -4.848  11.924  17.864  0.00  0.00    +0.000 A 
ATOM      3  N   UNL     1      -5.773  12.461  17.065  0.00  0.00    +0.000 NA
ATOM      4  C   UNL     1      -6.887  12.934  17.655  0.00  0.00    +0.000 A 
ATOM      5  C   UNL     1      -7.067  12.966  19.015  0.00  0.00    +0.000 A 
ATOM      6  C   UNL     1      -6.080  12.370  19.761  0.00  0.00    +0.000 A 
ATOM      7  N   UNL     1      -5.005  11.792  19.180  0.00  0.00    +0.000 NA
ATOM      8  H   UNL     1      -3.535  11.951  16.355  0.00  0.00    +0.000 HD
ENDROOT
BRANCH   6   9
ATOM      9  N   UNL     1      -6.152  12.361  21.162  0.00  0.00    +0.000 N 
ATOM     10  C   UNL     1      -7.045  11.575  21.859  0.00  0.00    +0.000 C 
ATOM     11  O   UNL     1      -7.758  10.692  21.414  0.00  0.00    +0.000 OA
ATOM     12  O   UNL     1      -7.069  11.948  23.169  0.00  0.00    +0.000 OA
ATOM     13  C   UNL     1      -6.113  13.007  23.421  0.00  0.00    +0.000 C 
ATOM     14  C   UNL     1      -5.257  12.467  24.578  0.00  0.00    +0.000 C 
ATOM     15  C   UNL     1      -6.888  14.229  23.935  0.00  0.00    +0.000 C 
ATOM     16  C   UNL     1      -5.388  13.230  22.050  0.00  0.00    +0.000 C 
ATOM     17  C   UNL     1      -3.919  12.740  22.088  0.00  0.00    +0.000 C 
ATOM     18  C   UNL     1      -5.354  14.702  21.597  0.00  0.00    +0.000 C 
ENDBRANCH   6   9
BRANCH   1  20
ATOM     19  C   UNL     1      -2.070   9.811  16.755  0.00  0.00    +0.000 C 
ATOM     20  C   UNL     1      -2.697  10.672  17.856  0.00  0.00    +0.000 C 
BRANCH  20  21
ATOM     21  C   UNL     1      -1.636  11.484  18.592  0.00  0.00    +0.000 A 
ATOM     22  C   UNL     1      -1.125  11.017  19.813  0.00  0.00    +0.000 A 
ATOM     23  C   UNL     1      -0.150  11.734  20.511  0.00  0.00    +0.000 A 
ATOM     24  C   UNL     1       0.333  12.933  19.993  0.00  0.00    +0.000 A 
ATOM     25  C   UNL     1      -0.149  13.406  18.774  0.00  0.00    +0.000 A 
ATOM     26  C   UNL     1      -1.128  12.686  18.076  0.00  0.00    +0.000 A 
ENDBRANCH  20  21
ENDBRANCH   1  20
TORSDOF 3
ENDMDL
