MODEL 1
REMARK VINA RESULT:      -6.6      0.000      0.000
REMARK  Name = 
REMARK  6 active torsions:
REMARK  status: ('A' for Active; 'I' for Inactive)
REMARK    1  A    between atoms: C_1  and  C_2
REMARK    2  A    between atoms: C_2  and  C_3
REMARK    3  A    between atoms: C_2  and  O_4
REMARK    4  A    between atoms: C_2  and  C_5
REMARK    5  A    between atoms: N_7  and  C_8
REMARK    6  A    between atoms: C_11  and  C_12
REMARK                            x       y       z     vdW  Elec       q    Type
REMARK                         _______ _______ _______ _____ _____    ______ ____
ROOT
ATOM      1  C   UNL     1       2.858   3.501  19.636  0.00  0.00    +0.000 A 
ATOM      2  C   UNL     1       3.163   4.078  18.423  0.00  0.00    +0.000 A 
ATOM      3  N   UNL     1       4.507   3.873  18.253  0.00  0.00    +0.000 N 
ATOM      4  N   UNL     1       5.010   3.258  19.352  0.00  0.00    +0.000 NA
ATOM      5  N   UNL     1       4.013   3.023  20.196  0.00  0.00    +0.000 NA
ENDROOT
BRANCH   3   6
ATOM      6  C   UNL     1       5.301   4.177  17.119  0.00  0.00    +0.000 A 
ATOM      7  C   UNL     1       6.631   4.590  17.274  0.00  0.00    +0.000 A 
ATOM      8  C   UNL     1       7.390   4.950  16.157  0.00  0.00    +0.000 A 
ATOM      9  C   UNL     1       6.828   4.899  14.879  0.00  0.00    +0.000 A 
ATOM     10  C   UNL     1       5.506   4.469  14.718  0.00  0.00    +0.000 A 
ATOM     11  C   UNL     1       4.744   4.104  15.834  0.00  0.00    +0.000 A 
BRANCH   9  12
ATOM     12  C   UNL     1       7.603   5.300  13.743  0.00  0.00    +0.000 C 
ATOM     13  N   UNL     1       8.241   5.631  12.831  0.00  0.00    +0.000 NA
ENDBRANCH   9  12
ENDBRANCH   3   6
BRANCH   1  15
ATOM     14  C   UNL     1       1.647   2.600  21.625  0.00  0.00    +0.000 C 
ATOM     15  C   UNL     1       1.521   3.340  20.292  0.00  0.00    +0.000 C 
ATOM     16  C   UNL     1       0.548   2.613  19.356  0.00  0.00    +0.000 C 
BRANCH  15  17
ATOM     17  O   UNL     1       0.951   4.632  20.575  0.00  0.00    +0.000 OA
ATOM     18  H   UNL     1       1.687   5.246  20.734  0.00  0.00    +0.000 HD
ENDBRANCH  15  17
ENDBRANCH   1  15
TORSDOF 4
ENDMDL
MODEL 2
REMARK VINA RESULT:      -6.6      0.857      1.121
REMARK  Name = 
REMARK  6 active torsions:
REMARK  status: ('A' for Active; 'I' for Inactive)
REMARK    1  A    between atoms: C_1  and  C_2
REMARK    2  A    between atoms: C_2  and  C_3
REMARK    3  A    between atoms: C_2  and  O_4
REMARK    4  A    between atoms: C_2  and  C_5
REMARK    5  A    between atoms: N_7  and  C_8
REMARK    6  A    between atoms: C_11  and  C_12
REMARK                            x       y       z     vdW  Elec       q    Type
REMARK                         _______ _______ _______ _____ _____    ______ ____
ROOT
ATOM      1  C   UNL     1       3.156   3.767  19.965  0.00  0.00    +0.000 A 
ATOM      2  C   UNL     1       3.530   4.484  18.851  0.00  0.00    +0.000 A 
ATOM      3  N   UNL     1       4.685   3.891  18.411  0.00  0.00    +0.000 N 
ATOM      4  N   UNL     1       5.034   2.899  19.267  0.00  0.00    +0.000 NA
ATOM      5  N   UNL     1       4.106   2.812  20.212  0.00  0.00    +0.000 NA
ENDROOT
BRANCH   3   6
ATOM      6  C   UNL     1       5.421   4.178  17.235  0.00  0.00    +0.000 A 
ATOM      7  C   UNL     1       6.761   4.583  17.317  0.00  0.00    +0.000 A 
ATOM      8  C   UNL     1       7.464   4.926  16.160  0.00  0.00    +0.000 A 
ATOM      9  C   UNL     1       6.836   4.865  14.912  0.00  0.00    +0.000 A 
ATOM     10  C   UNL     1       5.506   4.443  14.824  0.00  0.00    +0.000 A 
ATOM     11  C   UNL     1       4.799   4.095  15.981  0.00  0.00    +0.000 A 
BRANCH   9  12
ATOM     12  C   UNL     1       7.555   5.249  13.734  0.00  0.00    +0.000 C 
ATOM     13  N   UNL     1       8.128   5.555  12.771  0.00  0.00    +0.000 NA
ENDBRANCH   9  12
ENDBRANCH   3   6
BRANCH   1  15
ATOM     14  C   UNL     1       0.766   3.088  20.221  0.00  0.00    +0.000 C 
ATOM     15  C   UNL     1       1.921   3.907  20.802  0.00  0.00    +0.000 C 
ATOM     16  C   UNL     1       1.527   5.382  20.939  0.00  0.00    +0.000 C 
BRANCH  15  17
ATOM     17  O   UNL     1       2.167   3.409  22.131  0.00  0.00    +0.000 OA
ATOM     18  H   UNL     1       2.261   2.444  22.068  0.00  0.00    +0.000 HD
ENDBRANCH  15  17
ENDBRANCH   1  15
TORSDOF 4
ENDMDL
MODEL 3
REMARK VINA RESULT:      -6.5      0.987      1.327
REMARK  Name = 
REMARK  6 active torsions:
REMARK  status: ('A' for Active; 'I' for Inactive)
REMARK    1  A    between atoms: C_1  and  C_2
REMARK    2  A    between atoms: C_2  and  C_3
REMARK    3  A    between atoms: C_2  and  O_4
REMARK    4  A    between atoms: C_2  and  C_5
REMARK    5  A    between atoms: N_7  and  C_8
REMARK    6  A    between atoms: C_11  and  C_12
REMARK                            x       y       z     vdW  Elec       q    Type
REMARK                         _______ _______ _______ _____ _____    ______ ____
ROOT
ATOM      1  C   UNL     1       2.654   3.381  19.447  0.00  0.00    +0.000 A 
ATOM      2  C   UNL     1       3.571   4.218  18.853  0.00  0.00    +0.000 A 
ATOM      3  N   UNL     1       4.137   3.479  17.847  0.00  0.00    +0.000 N 
ATOM      4  N   UNL     1       3.633   2.220  17.877  0.00  0.00    +0.000 NA
ATOM      5  N   UNL     1       2.726   2.153  18.844  0.00  0.00    +0.000 NA
ENDROOT
BRANCH   3   6
ATOM      6  C   UNL     1       5.065   3.905  16.864  0.00  0.00    +0.000 A 
ATOM      7  C   UNL     1       6.242   4.568  17.240  0.00  0.00    +0.000 A 
ATOM      8  C   UNL     1       7.122   5.043  16.264  0.00  0.00    +0.000 A 
ATOM      9  C   UNL     1       6.836   4.859  14.909  0.00  0.00    +0.000 A 
ATOM     10  C   UNL     1       5.672   4.181  14.531  0.00  0.00    +0.000 A 
ATOM     11  C   UNL     1       4.789   3.700  15.506  0.00  0.00    +0.000 A 
BRANCH   9  12
ATOM     12  C   UNL     1       7.728   5.377  13.915  0.00  0.00    +0.000 C 
ATOM     13  N   UNL     1       8.460   5.802  13.120  0.00  0.00    +0.000 NA
ENDBRANCH   9  12
ENDBRANCH   3   6
BRANCH   1  15
ATOM     14  C   UNL     1       1.578   5.188  20.793  0.00  0.00    +0.000 C 
ATOM     15  C   UNL     1       1.675   3.682  20.541  0.00  0.00    +0.000 C 
ATOM     16  C   UNL     1       2.059   2.939  21.825  0.00  0.00    +0.000 C 
BRANCH  15  17
ATOM     17  O   UNL     1       0.361   3.228  20.165  0.00  0.00    +0.000 OA
ATOM     18  H   UNL     1       0.138   3.651  19.320  0.00  0.00    +0.000 HD
ENDBRANCH  15  17
ENDBRANCH   1  15
TORSDOF 4
ENDMDL
MODEL 4
REMARK VINA RESULT:      -6.5      0.976      1.750
REMARK  Name = 
REMARK  6 active torsions:
REMARK  status: ('A' for Active; 'I' for Inactive)
REMARK    1  A    between atoms: C_1  and  C_2
REMARK    2  A    between atoms: C_2  and  C_3
REMARK    3  A    between atoms: C_2  and  O_4
REMARK    4  A    between atoms: C_2  and  C_5
REMARK    5  A    between atoms: N_7  and  C_8
REMARK    6  A    between atoms: C_11  and  C_12
REMARK                            x       y       z     vdW  Elec       q    Type
REMARK                         _______ _______ _______ _____ _____    ______ ____
ROOT
ATOM      1  C   UNL     1       2.649   3.286  19.414  0.00  0.00    +0.000 A 
ATOM      2  C   UNL     1       3.506   4.193  18.832  0.00  0.00    +0.000 A 
ATOM      3  N   UNL     1       4.117   3.511  17.813  0.00  0.00    +0.000 N 
ATOM      4  N   UNL     1       3.699   2.221  17.822  0.00  0.00    +0.000 NA
ATOM      5  N   UNL     1       2.802   2.077  18.789  0.00  0.00    +0.000 NA
ENDROOT
BRANCH   3   6
ATOM      6  C   UNL     1       5.011   4.016  16.836  0.00  0.00    +0.000 A 
ATOM      7  C   UNL     1       4.689   3.944  15.474  0.00  0.00    +0.000 A 
ATOM      8  C   UNL     1       5.600   4.385  14.511  0.00  0.00    +0.000 A 
ATOM      9  C   UNL     1       6.838   4.903  14.901  0.00  0.00    +0.000 A 
ATOM     10  C   UNL     1       7.156   4.995  16.260  0.00  0.00    +0.000 A 
ATOM     11  C   UNL     1       6.244   4.557  17.228  0.00  0.00    +0.000 A 
BRANCH   9  12
ATOM     12  C   UNL     1       7.779   5.323  13.906  0.00  0.00    +0.000 C 
ATOM     13  N   UNL     1       8.543   5.676  13.105  0.00  0.00    +0.000 NA
ENDBRANCH   9  12
ENDBRANCH   3   6
BRANCH   1  15
ATOM     14  C   UNL     1       1.494   4.992  20.826  0.00  0.00    +0.000 C 
ATOM     15  C   UNL     1       1.655   3.502  20.514  0.00  0.00    +0.000 C 
ATOM     16  C   UNL     1       2.066   2.725  21.770  0.00  0.00    +0.000 C 
BRANCH  15  17
ATOM     17  O   UNL     1       0.362   3.009  20.115  0.00  0.00    +0.000 OA
ATOM     18  H   UNL     1      -0.260   3.754  20.162  0.00  0.00    +0.000 HD
ENDBRANCH  15  17
ENDBRANCH   1  15
TORSDOF 4
ENDMDL
MODEL 5
REMARK VINA RESULT:      -6.4      0.180      1.188
REMARK  Name = 
REMARK  6 active torsions:
REMARK  status: ('A' for Active; 'I' for Inactive)
REMARK    1  A    between atoms: C_1  and  C_2
REMARK    2  A    between atoms: C_2  and  C_3
REMARK    3  A    between atoms: C_2  and  O_4
REMARK    4  A    between atoms: C_2  and  C_5
REMARK    5  A    between atoms: N_7  and  C_8
REMARK    6  A    between atoms: C_11  and  C_12
REMARK                            x       y       z     vdW  Elec       q    Type
REMARK                         _______ _______ _______ _____ _____    ______ ____
ROOT
ATOM      1  C   UNL     1       2.851   3.485  19.726  0.00  0.00    +0.000 A 
ATOM      2  C   UNL     1       3.159   4.186  18.583  0.00  0.00    +0.000 A 
ATOM      3  N   UNL     1       4.490   3.946  18.359  0.00  0.00    +0.000 N 
ATOM      4  N   UNL     1       4.984   3.186  19.367  0.00  0.00    +0.000 NA
ATOM      5  N   UNL     1       3.993   2.896  20.201  0.00  0.00    +0.000 NA
ENDROOT
BRANCH   3   6
ATOM      6  C   UNL     1       5.276   4.347  17.250  0.00  0.00    +0.000 A 
ATOM      7  C   UNL     1       4.761   4.266  15.948  0.00  0.00    +0.000 A 
ATOM      8  C   UNL     1       5.562   4.602  14.854  0.00  0.00    +0.000 A 
ATOM      9  C   UNL     1       6.880   5.024  15.051  0.00  0.00    +0.000 A 
ATOM     10  C   UNL     1       7.391   5.125  16.349  0.00  0.00    +0.000 A 
ATOM     11  C   UNL     1       6.591   4.791  17.448  0.00  0.00    +0.000 A 
BRANCH   9  12
ATOM     12  C   UNL     1       7.704   5.336  13.921  0.00  0.00    +0.000 C 
ATOM     13  N   UNL     1       8.383   5.589  13.013  0.00  0.00    +0.000 NA
ENDBRANCH   9  12
ENDBRANCH   3   6
BRANCH   1  15
ATOM     14  C   UNL     1       1.668   2.604  21.742  0.00  0.00    +0.000 C 
ATOM     15  C   UNL     1       1.519   3.305  20.389  0.00  0.00    +0.000 C 
ATOM     16  C   UNL     1       0.565   2.529  19.476  0.00  0.00    +0.000 C 
BRANCH  15  17
ATOM     17  O   UNL     1       0.915   4.588  20.641  0.00  0.00    +0.000 OA
ATOM     18  H   UNL     1       0.907   4.723  21.603  0.00  0.00    +0.000 HD
ENDBRANCH  15  17
ENDBRANCH   1  15
TORSDOF 4
ENDMDL
MODEL 6
REMARK VINA RESULT:      -6.3      0.987      1.053
REMARK  Name = 
REMARK  6 active torsions:
REMARK  status: ('A' for Active; 'I' for Inactive)
REMARK    1  A    between atoms: C_1  and  C_2
REMARK    2  A    between atoms: C_2  and  C_3
REMARK    3  A    between atoms: C_2  and  O_4
REMARK    4  A    between atoms: C_2  and  C_5
REMARK    5  A    between atoms: N_7  and  C_8
REMARK    6  A    between atoms: C_11  and  C_12
REMARK                            x       y       z     vdW  Elec       q    Type
REMARK                         _______ _______ _______ _____ _____    ______ ____
ROOT
ATOM      1  C   UNL     1       2.980   3.468  19.501  0.00  0.00    +0.000 A 
ATOM      2  C   UNL     1       3.969   4.240  18.934  0.00  0.00    +0.000 A 
ATOM      3  N   UNL     1       4.340   3.573  17.795  0.00  0.00    +0.000 N 
ATOM      4  N   UNL     1       3.652   2.408  17.713  0.00  0.00    +0.000 NA
ATOM      5  N   UNL     1       2.818   2.338  18.743  0.00  0.00    +0.000 NA
ENDROOT
BRANCH   3   6
ATOM      6  C   UNL     1       5.248   3.995  16.792  0.00  0.00    +0.000 A 
ATOM      7  C   UNL     1       6.356   4.786  17.125  0.00  0.00    +0.000 A 
ATOM      8  C   UNL     1       7.213   5.252  16.124  0.00  0.00    +0.000 A 
ATOM      9  C   UNL     1       6.970   4.931  14.786  0.00  0.00    +0.000 A 
ATOM     10  C   UNL     1       5.877   4.126  14.451  0.00  0.00    +0.000 A 
ATOM     11  C   UNL     1       5.018   3.654  15.451  0.00  0.00    +0.000 A 
BRANCH   9  12
ATOM     12  C   UNL     1       7.835   5.440  13.764  0.00  0.00    +0.000 C 
ATOM     13  N   UNL     1       8.548   5.849  12.942  0.00  0.00    +0.000 NA
ENDBRANCH   9  12
ENDBRANCH   3   6
BRANCH   1  15
ATOM     14  C   UNL     1       2.350   2.683  21.786  0.00  0.00    +0.000 C 
ATOM     15  C   UNL     1       2.142   3.751  20.710  0.00  0.00    +0.000 C 
ATOM     16  C   UNL     1       0.662   3.856  20.326  0.00  0.00    +0.000 C 
BRANCH  15  17
ATOM     17  O   UNL     1       2.521   5.016  21.287  0.00  0.00    +0.000 OA
ATOM     18  H   UNL     1       1.727   5.398  21.697  0.00  0.00    +0.000 HD
ENDBRANCH  15  17
ENDBRANCH   1  15
TORSDOF 4
ENDMDL
MODEL 7
REMARK VINA RESULT:      -6.2      4.620      7.134
REMARK  Name = 
REMARK  6 active torsions:
REMARK  status: ('A' for Active; 'I' for Inactive)
REMARK    1  A    between atoms: C_1  and  C_2
REMARK    2  A    between atoms: C_2  and  C_3
REMARK    3  A    between atoms: C_2  and  O_4
REMARK    4  A    between atoms: C_2  and  C_5
REMARK    5  A    between atoms: N_7  and  C_8
REMARK    6  A    between atoms: C_11  and  C_12
REMARK                            x       y       z     vdW  Elec       q    Type
REMARK                         _______ _______ _______ _____ _____    ______ ____
ROOT
ATOM      1  C   UNL     1       5.403   5.596  16.968  0.00  0.00    +0.000 A 
ATOM      2  C   UNL     1       4.897   6.841  17.266  0.00  0.00    +0.000 A 
ATOM      3  N   UNL     1       3.666   6.608  17.820  0.00  0.00    +0.000 N 
ATOM      4  N   UNL     1       3.406   5.277  17.793  0.00  0.00    +0.000 NA
ATOM      5  N   UNL     1       4.459   4.653  17.281  0.00  0.00    +0.000 NA
ENDROOT
BRANCH   3   6
ATOM      6  C   UNL     1       2.775   7.548  18.397  0.00  0.00    +0.000 A 
ATOM      7  C   UNL     1       2.308   7.371  19.707  0.00  0.00    +0.000 A 
ATOM      8  C   UNL     1       1.381   8.265  20.249  0.00  0.00    +0.000 A 
ATOM      9  C   UNL     1       0.915   9.341  19.488  0.00  0.00    +0.000 A 
ATOM     10  C   UNL     1       1.393   9.532  18.188  0.00  0.00    +0.000 A 
ATOM     11  C   UNL     1       2.324   8.640  17.643  0.00  0.00    +0.000 A 
BRANCH   9  12
ATOM     12  C   UNL     1      -0.060  10.234  20.041  0.00  0.00    +0.000 C 
ATOM     13  N   UNL     1      -0.846  10.954  20.501  0.00  0.00    +0.000 NA
ENDBRANCH   9  12
ENDBRANCH   3   6
BRANCH   1  15
ATOM     14  C   UNL     1       6.632   4.414  15.143  0.00  0.00    +0.000 C 
ATOM     15  C   UNL     1       6.754   5.233  16.430  0.00  0.00    +0.000 C 
ATOM     16  C   UNL     1       7.564   4.471  17.485  0.00  0.00    +0.000 C 
BRANCH  15  17
ATOM     17  O   UNL     1       7.493   6.426  16.107  0.00  0.00    +0.000 OA
ATOM     18  H   UNL     1       8.433   6.238  16.268  0.00  0.00    +0.000 HD
ENDBRANCH  15  17
ENDBRANCH   1  15
TORSDOF 4
ENDMDL
MODEL 8
REMARK VINA RESULT:      -6.2      0.753      1.546
REMARK  Name = 
REMARK  6 active torsions:
REMARK  status: ('A' for Active; 'I' for Inactive)
REMARK    1  A    between atoms: C_1  and  C_2
REMARK    2  A    between atoms: C_2  and  C_3
REMARK    3  A    between atoms: C_2  and  O_4
REMARK    4  A    between atoms: C_2  and  C_5
REMARK    5  A    between atoms: N_7  and  C_8
REMARK    6  A    between atoms: C_11  and  C_12
REMARK                            x       y       z     vdW  Elec       q    Type
REMARK                         _______ _______ _______ _____ _____    ______ ____
ROOT
ATOM      1  C   UNL     1       3.079   3.360  19.773  0.00  0.00    +0.000 A 
ATOM      2  C   UNL     1       3.310   4.043  18.600  0.00  0.00    +0.000 A 
ATOM      3  N   UNL     1       4.638   3.850  18.324  0.00  0.00    +0.000 N 
ATOM      4  N   UNL     1       5.206   3.135  19.327  0.00  0.00    +0.000 NA
ATOM      5  N   UNL     1       4.264   2.828  20.210  0.00  0.00    +0.000 NA
ENDROOT
BRANCH   3   6
ATOM      6  C   UNL     1       5.359   4.253  17.172  0.00  0.00    +0.000 A 
ATOM      7  C   UNL     1       4.731   4.293  15.920  0.00  0.00    +0.000 A 
ATOM      8  C   UNL     1       5.462   4.631  14.778  0.00  0.00    +0.000 A 
ATOM      9  C   UNL     1       6.823   4.932  14.878  0.00  0.00    +0.000 A 
ATOM     10  C   UNL     1       7.449   4.912  16.128  0.00  0.00    +0.000 A 
ATOM     11  C   UNL     1       6.719   4.577  17.276  0.00  0.00    +0.000 A 
BRANCH   9  12
ATOM     12  C   UNL     1       7.571   5.245  13.697  0.00  0.00    +0.000 C 
ATOM     13  N   UNL     1       8.167   5.501  12.733  0.00  0.00    +0.000 NA
ENDBRANCH   9  12
ENDBRANCH   3   6
BRANCH   1  15
ATOM     14  C   UNL     1       0.896   2.148  19.752  0.00  0.00    +0.000 C 
ATOM     15  C   UNL     1       1.786   3.144  20.498  0.00  0.00    +0.000 C 
ATOM     16  C   UNL     1       1.057   4.476  20.704  0.00  0.00    +0.000 C 
BRANCH  15  17
ATOM     17  O   UNL     1       2.039   2.593  21.804  0.00  0.00    +0.000 OA
ATOM     18  H   UNL     1       1.204   2.625  22.300  0.00  0.00    +0.000 HD
ENDBRANCH  15  17
ENDBRANCH   1  15
TORSDOF 4
ENDMDL
MODEL 9
REMARK VINA RESULT:      -6.2      4.591      6.184
REMARK  Name = 
REMARK  6 active torsions:
REMARK  status: ('A' for Active; 'I' for Inactive)
REMARK    1  A    between atoms: C_1  and  C_2
REMARK    2  A    between atoms: C_2  and  C_3
REMARK    3  A    between atoms: C_2  and  O_4
REMARK    4  A    between atoms: C_2  and  C_5
REMARK    5  A    between atoms: N_7  and  C_8
REMARK    6  A    between atoms: C_11  and  C_12
REMARK                            x       y       z     vdW  Elec       q    Type
REMARK                         _______ _______ _______ _____ _____    ______ ____
ROOT
ATOM      1  C   UNL     1       3.602   4.150  19.090  0.00  0.00    +0.000 A 
ATOM      2  C   UNL     1       2.981   5.203  19.722  0.00  0.00    +0.000 A 
ATOM      3  N   UNL     1       2.988   6.227  18.811  0.00  0.00    +0.000 N 
ATOM      4  N   UNL     1       3.651   5.831  17.696  0.00  0.00    +0.000 NA
ATOM      5  N   UNL     1       4.023   4.567  17.855  0.00  0.00    +0.000 NA
ENDROOT
BRANCH   3   6
ATOM      6  C   UNL     1       2.377   7.501  18.923  0.00  0.00    +0.000 A 
ATOM      7  C   UNL     1       1.752   7.886  20.117  0.00  0.00    +0.000 A 
ATOM      8  C   UNL     1       1.097   9.117  20.202  0.00  0.00    +0.000 A 
ATOM      9  C   UNL     1       1.062   9.972  19.097  0.00  0.00    +0.000 A 
ATOM     10  C   UNL     1       1.701   9.600  17.910  0.00  0.00    +0.000 A 
ATOM     11  C   UNL     1       2.362   8.369  17.822  0.00  0.00    +0.000 A 
BRANCH   9  12
ATOM     12  C   UNL     1       0.360  11.218  19.183  0.00  0.00    +0.000 C 
ATOM     13  N   UNL     1      -0.199  12.234  19.246  0.00  0.00    +0.000 NA
ENDBRANCH   9  12
ENDBRANCH   3   6
BRANCH   1  15
ATOM     14  C   UNL     1       3.333   1.733  18.519  0.00  0.00    +0.000 C 
ATOM     15  C   UNL     1       3.795   2.744  19.572  0.00  0.00    +0.000 C 
ATOM     16  C   UNL     1       3.057   2.524  20.897  0.00  0.00    +0.000 C 
BRANCH  15  17
ATOM     17  O   UNL     1       5.192   2.493  19.817  0.00  0.00    +0.000 OA
ATOM     18  H   UNL     1       5.656   2.576  18.967  0.00  0.00    +0.000 HD
ENDBRANCH  15  17
ENDBRANCH   1  15
TORSDOF 4
ENDMDL
