MODEL 1
REMARK VINA RESULT:      -7.1      0.000      0.000
REMARK  Name = 
REMARK  7 active torsions:
REMARK  status: ('A' for Active; 'I' for Inactive)
REMARK    1  A    between atoms: C_1  and  C_2
REMARK    2  A    between atoms: C_2  and  C_3
REMARK    3  A    between atoms: C_10  and  C_11
REMARK    4  A    between atoms: C_11  and  N_12
REMARK    5  A    between atoms: N_12  and  C_13
REMARK    6  A    between atoms: C_13  and  C_14
REMARK    7  A    between atoms: C_14  and  C_15
REMARK                            x       y       z     vdW  Elec       q    Type
REMARK                         _______ _______ _______ _____ _____    ______ ____
ROOT
ATOM      1  N   UNL     1       7.711   7.018  17.255  0.00  0.00    +0.000 NA
ATOM      2  H   UNL     1       8.086   7.266  16.338  0.00  0.00    +0.000 HD
ENDROOT
BRANCH   1   3
ATOM      3  C   UNL     1       6.252   7.058  17.177  0.00  0.00    +0.000 C 
BRANCH   3  11
ATOM      4  C   UNL     1       5.834   4.743  16.017  0.00  0.00    +0.000 A 
ATOM      5  N   UNL     1       5.106   3.601  16.311  0.00  0.00    +0.000 NA
ATOM      6  C   UNL     1       4.571   3.868  17.470  0.00  0.00    +0.000 A 
ATOM      7  S   UNL     1       3.516   3.023  18.558  0.00  0.00    +0.000 S 
ATOM      8  C   UNL     1       3.578   4.424  19.650  0.00  0.00    +0.000 A 
ATOM      9  C   UNL     1       4.342   5.418  19.175  0.00  0.00    +0.000 A 
ATOM     10  N   UNL     1       4.896   5.097  17.954  0.00  0.00    +0.000 N 
ATOM     11  C   UNL     1       5.722   5.688  17.036  0.00  0.00    +0.000 A 
BRANCH   4  13
ATOM     12  C   UNL     1       6.056   3.894  13.668  0.00  0.00    +0.000 C 
ATOM     13  C   UNL     1       6.577   4.850  14.728  0.00  0.00    +0.000 C 
ENDBRANCH   4  13
ENDBRANCH   3  11
ENDBRANCH   1   3
BRANCH   1  14
ATOM     14  C   UNL     1       8.244   7.954  18.251  0.00  0.00    +0.000 C 
BRANCH  14  15
ATOM     15  C   UNL     1       7.983   9.423  17.884  0.00  0.00    +0.000 C 
BRANCH  15  16
ATOM     16  C   UNL     1       9.058  10.355  18.379  0.00  0.00    +0.000 A 
ATOM     17  C   UNL     1       9.411  10.386  19.732  0.00  0.00    +0.000 A 
ATOM     18  C   UNL     1      10.388  11.276  20.181  0.00  0.00    +0.000 A 
ATOM     19  C   UNL     1      11.024  12.139  19.284  0.00  0.00    +0.000 A 
ATOM     20 CL   UNL     1      12.220  13.214  19.912  0.00  0.00    +0.000 Cl
ATOM     21  C   UNL     1      10.681  12.110  17.929  0.00  0.00    +0.000 A 
ATOM     22 CL   UNL     1      11.412  13.151  16.760  0.00  0.00    +0.000 Cl
ATOM     23  C   UNL     1       9.704  11.218  17.481  0.00  0.00    +0.000 A 
ENDBRANCH  15  16
ENDBRANCH  14  15
ENDBRANCH   1  14
TORSDOF 6
ENDMDL
MODEL 2
REMARK VINA RESULT:      -7.1      5.217      6.831
REMARK  Name = 
REMARK  7 active torsions:
REMARK  status: ('A' for Active; 'I' for Inactive)
REMARK    1  A    between atoms: C_1  and  C_2
REMARK    2  A    between atoms: C_2  and  C_3
REMARK    3  A    between atoms: C_10  and  C_11
REMARK    4  A    between atoms: C_11  and  N_12
REMARK    5  A    between atoms: N_12  and  C_13
REMARK    6  A    between atoms: C_13  and  C_14
REMARK    7  A    between atoms: C_14  and  C_15
REMARK                            x       y       z     vdW  Elec       q    Type
REMARK                         _______ _______ _______ _____ _____    ______ ____
ROOT
ATOM      1  N   UNL     1       6.475   4.129  18.484  0.00  0.00    +0.000 NA
ATOM      2  H   UNL     1       5.845   3.768  17.767  0.00  0.00    +0.000 HD
ENDROOT
BRANCH   1   3
ATOM      3  C   UNL     1       5.721   5.051  19.332  0.00  0.00    +0.000 C 
BRANCH   3  11
ATOM      4  C   UNL     1       3.478   5.888  18.262  0.00  0.00    +0.000 A 
ATOM      5  N   UNL     1       2.166   5.442  18.226  0.00  0.00    +0.000 NA
ATOM      6  C   UNL     1       2.202   4.328  18.902  0.00  0.00    +0.000 A 
ATOM      7  S   UNL     1       1.031   3.134  19.363  0.00  0.00    +0.000 S 
ATOM      8  C   UNL     1       2.321   2.240  20.196  0.00  0.00    +0.000 A 
ATOM      9  C   UNL     1       3.514   2.846  20.105  0.00  0.00    +0.000 A 
ATOM     10  N   UNL     1       3.438   4.014  19.377  0.00  0.00    +0.000 N 
ATOM     11  C   UNL     1       4.291   5.006  18.971  0.00  0.00    +0.000 A 
BRANCH   4  13
ATOM     12  C   UNL     1       2.778   8.247  17.778  0.00  0.00    +0.000 C 
ATOM     13  C   UNL     1       3.850   7.182  17.619  0.00  0.00    +0.000 C 
ENDBRANCH   4  13
ENDBRANCH   3  11
ENDBRANCH   1   3
BRANCH   1  14
ATOM     14  C   UNL     1       7.615   4.778  17.828  0.00  0.00    +0.000 C 
BRANCH  14  15
ATOM     15  C   UNL     1       7.185   5.764  16.730  0.00  0.00    +0.000 C 
BRANCH  15  16
ATOM     16  C   UNL     1       6.660   5.079  15.496  0.00  0.00    +0.000 A 
ATOM     17  C   UNL     1       5.529   4.259  15.558  0.00  0.00    +0.000 A 
ATOM     18  C   UNL     1       5.072   3.607  14.412  0.00  0.00    +0.000 A 
ATOM     19  C   UNL     1       5.737   3.770  13.193  0.00  0.00    +0.000 A 
ATOM     20 CL   UNL     1       5.115   2.930  11.818  0.00  0.00    +0.000 Cl
ATOM     21  C   UNL     1       6.865   4.592  13.120  0.00  0.00    +0.000 A 
ATOM     22 CL   UNL     1       7.747   4.838  11.655  0.00  0.00    +0.000 Cl
ATOM     23  C   UNL     1       7.320   5.246  14.268  0.00  0.00    +0.000 A 
ENDBRANCH  15  16
ENDBRANCH  14  15
ENDBRANCH   1  14
TORSDOF 6
ENDMDL
MODEL 3
REMARK VINA RESULT:      -7.0      4.641      7.007
REMARK  Name = 
REMARK  7 active torsions:
REMARK  status: ('A' for Active; 'I' for Inactive)
REMARK    1  A    between atoms: C_1  and  C_2
REMARK    2  A    between atoms: C_2  and  C_3
REMARK    3  A    between atoms: C_10  and  C_11
REMARK    4  A    between atoms: C_11  and  N_12
REMARK    5  A    between atoms: N_12  and  C_13
REMARK    6  A    between atoms: C_13  and  C_14
REMARK    7  A    between atoms: C_14  and  C_15
REMARK                            x       y       z     vdW  Elec       q    Type
REMARK                         _______ _______ _______ _____ _____    ______ ____
ROOT
ATOM      1  N   UNL     1       5.025   5.524  19.443  0.00  0.00    +0.000 NA
ATOM      2  H   UNL     1       5.368   6.426  19.109  0.00  0.00    +0.000 HD
ENDROOT
BRANCH   1   3
ATOM      3  C   UNL     1       5.796   4.471  18.786  0.00  0.00    +0.000 C 
BRANCH   3  11
ATOM      4  C   UNL     1       7.357   6.081  17.427  0.00  0.00    +0.000 A 
ATOM      5  N   UNL     1       7.688   6.252  16.092  0.00  0.00    +0.000 NA
ATOM      6  C   UNL     1       7.012   5.316  15.486  0.00  0.00    +0.000 A 
ATOM      7  S   UNL     1       6.821   4.813  13.836  0.00  0.00    +0.000 S 
ATOM      8  C   UNL     1       5.707   3.543  14.389  0.00  0.00    +0.000 A 
ATOM      9  C   UNL     1       5.529   3.553  15.719  0.00  0.00    +0.000 A 
ATOM     10  N   UNL     1       6.265   4.548  16.324  0.00  0.00    +0.000 N 
ATOM     11  C   UNL     1       6.474   5.016  17.594  0.00  0.00    +0.000 A 
BRANCH   4  13
ATOM     12  C   UNL     1       8.102   8.418  17.946  0.00  0.00    +0.000 C 
ATOM     13  C   UNL     1       7.909   7.002  18.462  0.00  0.00    +0.000 C 
ENDBRANCH   4  13
ENDBRANCH   3  11
ENDBRANCH   1   3
BRANCH   1  14
ATOM     14  C   UNL     1       3.590   5.429  19.155  0.00  0.00    +0.000 C 
BRANCH  14  15
ATOM     15  C   UNL     1       3.143   6.392  18.043  0.00  0.00    +0.000 C 
BRANCH  15  16
ATOM     16  C   UNL     1       2.348   7.562  18.560  0.00  0.00    +0.000 A 
ATOM     17  C   UNL     1       1.946   8.589  17.701  0.00  0.00    +0.000 A 
ATOM     18  C   UNL     1       1.235   9.682  18.200  0.00  0.00    +0.000 A 
ATOM     19  C   UNL     1       0.916   9.757  19.559  0.00  0.00    +0.000 A 
ATOM     20 CL   UNL     1       0.038  11.141  20.105  0.00  0.00    +0.000 Cl
ATOM     21  C   UNL     1       1.309   8.732  20.423  0.00  0.00    +0.000 A 
ATOM     22 CL   UNL     1       0.963   8.755  22.116  0.00  0.00    +0.000 Cl
ATOM     23  C   UNL     1       2.019   7.637  19.922  0.00  0.00    +0.000 A 
ENDBRANCH  15  16
ENDBRANCH  14  15
ENDBRANCH   1  14
TORSDOF 6
ENDMDL
MODEL 4
REMARK VINA RESULT:      -6.9      7.523      9.940
REMARK  Name = 
REMARK  7 active torsions:
REMARK  status: ('A' for Active; 'I' for Inactive)
REMARK    1  A    between atoms: C_1  and  C_2
REMARK    2  A    between atoms: C_2  and  C_3
REMARK    3  A    between atoms: C_10  and  C_11
REMARK    4  A    between atoms: C_11  and  N_12
REMARK    5  A    between atoms: N_12  and  C_13
REMARK    6  A    between atoms: C_13  and  C_14
REMARK    7  A    between atoms: C_14  and  C_15
REMARK                            x       y       z     vdW  Elec       q    Type
REMARK                         _______ _______ _______ _____ _____    ______ ____
ROOT
ATOM      1  N   UNL     1       1.653   9.616  17.485  0.00  0.00    +0.000 NA
ATOM      2  H   UNL     1       2.213  10.414  17.183  0.00  0.00    +0.000 HD
ENDROOT
BRANCH   1   3
ATOM      3  C   UNL     1       0.440  10.124  18.123  0.00  0.00    +0.000 C 
BRANCH   3  11
ATOM      4  C   UNL     1       0.573  10.681  20.682  0.00  0.00    +0.000 A 
ATOM      5  N   UNL     1       1.047  11.735  21.447  0.00  0.00    +0.000 NA
ATOM      6  C   UNL     1       1.530  12.562  20.563  0.00  0.00    +0.000 A 
ATOM      7  S   UNL     1       2.294  14.119  20.628  0.00  0.00    +0.000 S 
ATOM      8  C   UNL     1       2.417  14.094  18.855  0.00  0.00    +0.000 A 
ATOM      9  C   UNL     1       1.900  12.980  18.315  0.00  0.00    +0.000 A 
ATOM     10  N   UNL     1       1.407  12.127  19.280  0.00  0.00    +0.000 N 
ATOM     11  C   UNL     1       0.796  10.903  19.324  0.00  0.00    +0.000 A 
BRANCH   4  13
ATOM     12  C   UNL     1       0.277   9.369  22.799  0.00  0.00    +0.000 C 
ATOM     13  C   UNL     1      -0.103   9.522  21.335  0.00  0.00    +0.000 C 
ENDBRANCH   4  13
ENDBRANCH   3  11
ENDBRANCH   1   3
BRANCH   1  14
ATOM     14  C   UNL     1       2.458   8.789  18.391  0.00  0.00    +0.000 C 
BRANCH  14  15
ATOM     15  C   UNL     1       2.861   7.444  17.766  0.00  0.00    +0.000 C 
BRANCH  15  16
ATOM     16  C   UNL     1       2.442   6.259  18.596  0.00  0.00    +0.000 A 
ATOM     17  C   UNL     1       2.137   6.408  19.953  0.00  0.00    +0.000 A 
ATOM     18  C   UNL     1       1.780   5.296  20.717  0.00  0.00    +0.000 A 
ATOM     19  C   UNL     1       1.720   4.027  20.134  0.00  0.00    +0.000 A 
ATOM     20 CL   UNL     1       1.273   2.698  21.142  0.00  0.00    +0.000 Cl
ATOM     21  C   UNL     1       2.017   3.871  18.777  0.00  0.00    +0.000 A 
ATOM     22 CL   UNL     1       1.976   2.336  17.984  0.00  0.00    +0.000 Cl
ATOM     23  C   UNL     1       2.373   4.985  18.013  0.00  0.00    +0.000 A 
ENDBRANCH  15  16
ENDBRANCH  14  15
ENDBRANCH   1  14
TORSDOF 6
ENDMDL
MODEL 5
REMARK VINA RESULT:      -6.9      4.715      7.146
REMARK  Name = 
REMARK  7 active torsions:
REMARK  status: ('A' for Active; 'I' for Inactive)
REMARK    1  A    between atoms: C_1  and  C_2
REMARK    2  A    between atoms: C_2  and  C_3
REMARK    3  A    between atoms: C_10  and  C_11
REMARK    4  A    between atoms: C_11  and  N_12
REMARK    5  A    between atoms: N_12  and  C_13
REMARK    6  A    between atoms: C_13  and  C_14
REMARK    7  A    between atoms: C_14  and  C_15
REMARK                            x       y       z     vdW  Elec       q    Type
REMARK                         _______ _______ _______ _____ _____    ______ ____
ROOT
ATOM      1  N   UNL     1       3.719   4.330  16.805  0.00  0.00    +0.000 NA
ATOM      2  H   UNL     1       3.105   3.844  16.149  0.00  0.00    +0.000 HD
ENDROOT
BRANCH   1   3
ATOM      3  C   UNL     1       4.994   3.618  16.850  0.00  0.00    +0.000 C 
BRANCH   3  11
ATOM      4  C   UNL     1       6.885   5.389  16.446  0.00  0.00    +0.000 A 
ATOM      5  N   UNL     1       7.627   5.820  15.358  0.00  0.00    +0.000 NA
ATOM      6  C   UNL     1       7.197   5.074  14.379  0.00  0.00    +0.000 A 
ATOM      7  S   UNL     1       7.557   4.944  12.686  0.00  0.00    +0.000 S 
ATOM      8  C   UNL     1       6.344   3.651  12.563  0.00  0.00    +0.000 A 
ATOM      9  C   UNL     1       5.746   3.388  13.735  0.00  0.00    +0.000 A 
ATOM     10  N   UNL     1       6.231   4.189  14.746  0.00  0.00    +0.000 N 
ATOM     11  C   UNL     1       6.011   4.364  16.086  0.00  0.00    +0.000 A 
BRANCH   4  13
ATOM     12  C   UNL     1       7.641   7.437  17.680  0.00  0.00    +0.000 C 
ATOM     13  C   UNL     1       7.059   6.036  17.779  0.00  0.00    +0.000 C 
ENDBRANCH   4  13
ENDBRANCH   3  11
ENDBRANCH   1   3
BRANCH   1  14
ATOM     14  C   UNL     1       3.061   4.386  18.115  0.00  0.00    +0.000 C 
BRANCH  14  15
ATOM     15  C   UNL     1       3.659   5.463  19.033  0.00  0.00    +0.000 C 
BRANCH  15  16
ATOM     16  C   UNL     1       2.878   6.751  19.018  0.00  0.00    +0.000 A 
ATOM     17  C   UNL     1       2.907   7.592  17.901  0.00  0.00    +0.000 A 
ATOM     18  C   UNL     1       2.203   8.797  17.912  0.00  0.00    +0.000 A 
ATOM     19  C   UNL     1       1.460   9.171  19.036  0.00  0.00    +0.000 A 
ATOM     20 CL   UNL     1       0.616  10.677  18.978  0.00  0.00    +0.000 Cl
ATOM     21  C   UNL     1       1.421   8.333  20.154  0.00  0.00    +0.000 A 
ATOM     22 CL   UNL     1       0.535   8.728  21.584  0.00  0.00    +0.000 Cl
ATOM     23  C   UNL     1       2.125   7.127  20.140  0.00  0.00    +0.000 A 
ENDBRANCH  15  16
ENDBRANCH  14  15
ENDBRANCH   1  14
TORSDOF 6
ENDMDL
MODEL 6
REMARK VINA RESULT:      -6.9      4.482      7.206
REMARK  Name = 
REMARK  7 active torsions:
REMARK  status: ('A' for Active; 'I' for Inactive)
REMARK    1  A    between atoms: C_1  and  C_2
REMARK    2  A    between atoms: C_2  and  C_3
REMARK    3  A    between atoms: C_10  and  C_11
REMARK    4  A    between atoms: C_11  and  N_12
REMARK    5  A    between atoms: N_12  and  C_13
REMARK    6  A    between atoms: C_13  and  C_14
REMARK    7  A    between atoms: C_14  and  C_15
REMARK                            x       y       z     vdW  Elec       q    Type
REMARK                         _______ _______ _______ _____ _____    ______ ____
ROOT
ATOM      1  N   UNL     1       4.663   3.028  17.406  0.00  0.00    +0.000 NA
ATOM      2  H   UNL     1       5.613   2.706  17.219  0.00  0.00    +0.000 HD
ENDROOT
BRANCH   1   3
ATOM      3  C   UNL     1       4.325   4.052  16.420  0.00  0.00    +0.000 C 
BRANCH   3  11
ATOM      4  C   UNL     1       6.539   5.449  16.262  0.00  0.00    +0.000 A 
ATOM      5  N   UNL     1       7.492   5.694  15.287  0.00  0.00    +0.000 NA
ATOM      6  C   UNL     1       7.080   4.987  14.271  0.00  0.00    +0.000 A 
ATOM      7  S   UNL     1       7.648   4.717  12.654  0.00  0.00    +0.000 S 
ATOM      8  C   UNL     1       6.255   3.648  12.381  0.00  0.00    +0.000 A 
ATOM      9  C   UNL     1       5.460   3.548  13.456  0.00  0.00    +0.000 A 
ATOM     10  N   UNL     1       5.931   4.301  14.510  0.00  0.00    +0.000 N 
ATOM     11  C   UNL     1       5.557   4.575  15.799  0.00  0.00    +0.000 A 
BRANCH   4  13
ATOM     12  C   UNL     1       7.562   7.323  17.577  0.00  0.00    +0.000 C 
ATOM     13  C   UNL     1       6.634   6.120  17.591  0.00  0.00    +0.000 C 
ENDBRANCH   4  13
ENDBRANCH   3  11
ENDBRANCH   1   3
BRANCH   1  14
ATOM     14  C   UNL     1       4.598   3.533  18.782  0.00  0.00    +0.000 C 
BRANCH  14  15
ATOM     15  C   UNL     1       3.165   3.555  19.339  0.00  0.00    +0.000 C 
BRANCH  15  16
ATOM     16  C   UNL     1       2.665   4.946  19.624  0.00  0.00    +0.000 A 
ATOM     17  C   UNL     1       1.896   5.211  20.762  0.00  0.00    +0.000 A 
ATOM     18  C   UNL     1       1.414   6.499  20.998  0.00  0.00    +0.000 A 
ATOM     19  C   UNL     1       1.698   7.535  20.103  0.00  0.00    +0.000 A 
ATOM     20 CL   UNL     1       1.066   9.102  20.459  0.00  0.00    +0.000 Cl
ATOM     21  C   UNL     1       2.471   7.281  18.967  0.00  0.00    +0.000 A 
ATOM     22 CL   UNL     1       2.858   8.503  17.809  0.00  0.00    +0.000 Cl
ATOM     23  C   UNL     1       2.954   5.991  18.733  0.00  0.00    +0.000 A 
ENDBRANCH  15  16
ENDBRANCH  14  15
ENDBRANCH   1  14
TORSDOF 6
ENDMDL
MODEL 7
REMARK VINA RESULT:      -6.8      1.159      1.159
REMARK  Name = 
REMARK  7 active torsions:
REMARK  status: ('A' for Active; 'I' for Inactive)
REMARK    1  A    between atoms: C_1  and  C_2
REMARK    2  A    between atoms: C_2  and  C_3
REMARK    3  A    between atoms: C_10  and  C_11
REMARK    4  A    between atoms: C_11  and  N_12
REMARK    5  A    between atoms: N_12  and  C_13
REMARK    6  A    between atoms: C_13  and  C_14
REMARK    7  A    between atoms: C_14  and  C_15
REMARK                            x       y       z     vdW  Elec       q    Type
REMARK                         _______ _______ _______ _____ _____    ______ ____
ROOT
ATOM      1  N   UNL     1       6.947   7.206  18.016  0.00  0.00    +0.000 NA
ATOM      2  H   UNL     1       6.272   7.542  18.705  0.00  0.00    +0.000 HD
ENDROOT
BRANCH   1   3
ATOM      3  C   UNL     1       7.119   5.768  18.210  0.00  0.00    +0.000 C 
BRANCH   3  11
ATOM      4  C   UNL     1       5.746   4.363  16.472  0.00  0.00    +0.000 A 
ATOM      5  N   UNL     1       4.447   3.890  16.380  0.00  0.00    +0.000 NA
ATOM      6  C   UNL     1       3.896   4.290  17.492  0.00  0.00    +0.000 A 
ATOM      7  S   UNL     1       2.316   4.155  18.196  0.00  0.00    +0.000 S 
ATOM      8  C   UNL     1       2.900   5.077  19.599  0.00  0.00    +0.000 A 
ATOM      9  C   UNL     1       4.188   5.435  19.484  0.00  0.00    +0.000 A 
ATOM     10  N   UNL     1       4.738   4.988  18.302  0.00  0.00    +0.000 N 
ATOM     11  C   UNL     1       5.951   5.047  17.669  0.00  0.00    +0.000 A 
BRANCH   4  13
ATOM     12  C   UNL     1       6.026   4.072  13.997  0.00  0.00    +0.000 C 
ATOM     13  C   UNL     1       6.708   4.140  15.353  0.00  0.00    +0.000 C 
ENDBRANCH   4  13
ENDBRANCH   3  11
ENDBRANCH   1   3
BRANCH   1  14
ATOM     14  C   UNL     1       8.201   7.948  18.184  0.00  0.00    +0.000 C 
BRANCH  14  15
ATOM     15  C   UNL     1       8.167   9.330  17.512  0.00  0.00    +0.000 C 
BRANCH  15  16
ATOM     16  C   UNL     1       8.793  10.410  18.354  0.00  0.00    +0.000 A 
ATOM     17  C   UNL     1       9.326  10.117  19.614  0.00  0.00    +0.000 A 
ATOM     18  C   UNL     1       9.876  11.134  20.396  0.00  0.00    +0.000 A 
ATOM     19  C   UNL     1       9.903  12.450  19.926  0.00  0.00    +0.000 A 
ATOM     20 CL   UNL     1      10.598  13.656  20.950  0.00  0.00    +0.000 Cl
ATOM     21  C   UNL     1       9.379  12.751  18.666  0.00  0.00    +0.000 A 
ATOM     22 CL   UNL     1       9.366  14.353  18.019  0.00  0.00    +0.000 Cl
ATOM     23  C   UNL     1       8.830  11.731  17.884  0.00  0.00    +0.000 A 
ENDBRANCH  15  16
ENDBRANCH  14  15
ENDBRANCH   1  14
TORSDOF 6
ENDMDL
MODEL 8
REMARK VINA RESULT:      -6.7      4.999      7.018
REMARK  Name = 
REMARK  7 active torsions:
REMARK  status: ('A' for Active; 'I' for Inactive)
REMARK    1  A    between atoms: C_1  and  C_2
REMARK    2  A    between atoms: C_2  and  C_3
REMARK    3  A    between atoms: C_10  and  C_11
REMARK    4  A    between atoms: C_11  and  N_12
REMARK    5  A    between atoms: N_12  and  C_13
REMARK    6  A    between atoms: C_13  and  C_14
REMARK    7  A    between atoms: C_14  and  C_15
REMARK                            x       y       z     vdW  Elec       q    Type
REMARK                         _______ _______ _______ _____ _____    ______ ____
ROOT
ATOM      1  N   UNL     1       4.447   2.632  17.750  0.00  0.00    +0.000 NA
ATOM      2  H   UNL     1       4.951   3.201  18.432  0.00  0.00    +0.000 HD
ENDROOT
BRANCH   1   3
ATOM      3  C   UNL     1       4.296   3.415  16.526  0.00  0.00    +0.000 C 
BRANCH   3  11
ATOM      4  C   UNL     1       6.008   5.020  15.355  0.00  0.00    +0.000 A 
ATOM      5  N   UNL     1       7.009   5.882  15.773  0.00  0.00    +0.000 NA
ATOM      6  C   UNL     1       6.968   5.791  17.073  0.00  0.00    +0.000 A 
ATOM      7  S   UNL     1       7.859   6.502  18.381  0.00  0.00    +0.000 S 
ATOM      8  C   UNL     1       6.857   5.577  19.521  0.00  0.00    +0.000 A 
ATOM      9  C   UNL     1       5.947   4.808  18.905  0.00  0.00    +0.000 A 
ATOM     10  N   UNL     1       6.015   4.936  17.534  0.00  0.00    +0.000 N 
ATOM     11  C   UNL     1       5.369   4.424  16.441  0.00  0.00    +0.000 A 
BRANCH   4  13
ATOM     12  C   UNL     1       6.426   3.553  13.364  0.00  0.00    +0.000 C 
ATOM     13  C   UNL     1       5.757   4.809  13.899  0.00  0.00    +0.000 C 
ENDBRANCH   4  13
ENDBRANCH   3  11
ENDBRANCH   1   3
BRANCH   1  14
ATOM     14  C   UNL     1       3.157   2.236  18.326  0.00  0.00    +0.000 C 
BRANCH  14  15
ATOM     15  C   UNL     1       2.012   3.174  17.912  0.00  0.00    +0.000 C 
BRANCH  15  16
ATOM     16  C   UNL     1       1.964   4.441  18.726  0.00  0.00    +0.000 A 
ATOM     17  C   UNL     1       1.562   4.416  20.065  0.00  0.00    +0.000 A 
ATOM     18  C   UNL     1       1.494   5.602  20.798  0.00  0.00    +0.000 A 
ATOM     19  C   UNL     1       1.829   6.822  20.203  0.00  0.00    +0.000 A 
ATOM     20 CL   UNL     1       1.718   8.248  21.170  0.00  0.00    +0.000 Cl
ATOM     21  C   UNL     1       2.238   6.854  18.866  0.00  0.00    +0.000 A 
ATOM     22 CL   UNL     1       2.660   8.320  18.055  0.00  0.00    +0.000 Cl
ATOM     23  C   UNL     1       2.307   5.666  18.134  0.00  0.00    +0.000 A 
ENDBRANCH  15  16
ENDBRANCH  14  15
ENDBRANCH   1  14
TORSDOF 6
ENDMDL
MODEL 9
REMARK VINA RESULT:      -6.6      6.824      8.625
REMARK  Name = 
REMARK  7 active torsions:
REMARK  status: ('A' for Active; 'I' for Inactive)
REMARK    1  A    between atoms: C_1  and  C_2
REMARK    2  A    between atoms: C_2  and  C_3
REMARK    3  A    between atoms: C_10  and  C_11
REMARK    4  A    between atoms: C_11  and  N_12
REMARK    5  A    between atoms: N_12  and  C_13
REMARK    6  A    between atoms: C_13  and  C_14
REMARK    7  A    between atoms: C_14  and  C_15
REMARK                            x       y       z     vdW  Elec       q    Type
REMARK                         _______ _______ _______ _____ _____    ______ ____
ROOT
ATOM      1  N   UNL     1       1.677   7.891  17.990  0.00  0.00    +0.000 NA
ATOM      2  H   UNL     1       0.735   7.497  18.009  0.00  0.00    +0.000 HD
ENDROOT
BRANCH   1   3
ATOM      3  C   UNL     1       2.426   7.338  19.117  0.00  0.00    +0.000 C 
BRANCH   3  11
ATOM      4  C   UNL     1       4.118   5.656  18.027  0.00  0.00    +0.000 A 
ATOM      5  N   UNL     1       4.202   4.280  17.889  0.00  0.00    +0.000 NA
ATOM      6  C   UNL     1       3.140   3.845  18.508  0.00  0.00    +0.000 A 
ATOM      7  S   UNL     1       2.452   2.281  18.812  0.00  0.00    +0.000 S 
ATOM      8  C   UNL     1       1.117   3.075  19.676  0.00  0.00    +0.000 A 
ATOM      9  C   UNL     1       1.233   4.411  19.695  0.00  0.00    +0.000 A 
ATOM     10  N   UNL     1       2.370   4.833  19.039  0.00  0.00    +0.000 N 
ATOM     11  C   UNL     1       2.983   6.022  18.750  0.00  0.00    +0.000 A 
BRANCH   4  13
ATOM     12  C   UNL     1       5.101   6.524  15.890  0.00  0.00    +0.000 C 
ATOM     13  C   UNL     1       5.150   6.538  17.409  0.00  0.00    +0.000 C 
ENDBRANCH   4  13
ENDBRANCH   3  11
ENDBRANCH   1   3
BRANCH   1  14
ATOM     14  C   UNL     1       1.579   9.353  18.047  0.00  0.00    +0.000 C 
BRANCH  14  15
ATOM     15  C   UNL     1       0.627   9.841  19.150  0.00  0.00    +0.000 C 
BRANCH  15  16
ATOM     16  C   UNL     1      -0.681  10.360  18.614  0.00  0.00    +0.000 A 
ATOM     17  C   UNL     1      -1.429  11.296  19.334  0.00  0.00    +0.000 A 
ATOM     18  C   UNL     1      -2.655  11.745  18.839  0.00  0.00    +0.000 A 
ATOM     19  C   UNL     1      -3.142  11.268  17.618  0.00  0.00    +0.000 A 
ATOM     20 CL   UNL     1      -4.666  11.867  17.070  0.00  0.00    +0.000 Cl
ATOM     21  C   UNL     1      -2.397  10.337  16.889  0.00  0.00    +0.000 A 
ATOM     22 CL   UNL     1      -2.933   9.692  15.378  0.00  0.00    +0.000 Cl
ATOM     23  C   UNL     1      -1.170   9.890  17.385  0.00  0.00    +0.000 A 
ENDBRANCH  15  16
ENDBRANCH  14  15
ENDBRANCH   1  14
TORSDOF 6
ENDMDL
