MODEL 1
REMARK VINA RESULT:      -8.8      0.000      0.000
REMARK  Name = 
REMARK  5 active torsions:
REMARK  status: ('A' for Active; 'I' for Inactive)
REMARK    1  A    between atoms: C_1  and  C_2
REMARK    2  A    between atoms: C_5  and  N_6
REMARK    3  A    between atoms: C_11  and  C_12
REMARK    4  A    between atoms: C_17  and  C_18
REMARK    5  A    between atoms: C_20  and  C_21
REMARK                            x       y       z     vdW  Elec       q    Type
REMARK                         _______ _______ _______ _____ _____    ______ ____
ROOT
ATOM      1  C   UNL     1       4.575   4.852  17.258  0.00  0.00    +0.000 C 
ATOM      2  O   UNL     1       4.021   3.946  16.645  0.00  0.00    +0.000 OA
ATOM      3  N   UNL     1       5.850   5.294  16.944  0.00  0.00    +0.000 N 
ATOM      4  C   UNL     1       6.702   4.715  15.917  0.00  0.00    +0.000 C 
ATOM      5  C   UNL     1       7.853   4.814  16.905  0.00  0.00    +0.000 C 
ATOM      6  C   UNL     1       6.955   5.646  17.857  0.00  0.00    +0.000 C 
ENDROOT
BRANCH   1  12
ATOM      7  C   UNL     1       2.191   9.133  17.896  0.00  0.00    +0.000 C 
ATOM      8  C   UNL     1       2.502   7.766  18.431  0.00  0.00    +0.000 A 
ATOM      9  C   UNL     1       1.868   7.256  19.557  0.00  0.00    +0.000 A 
ATOM     10  C   UNL     1       2.172   5.970  20.010  0.00  0.00    +0.000 A 
ATOM     11  C   UNL     1       3.146   5.180  19.359  0.00  0.00    +0.000 A 
ATOM     12  C   UNL     1       3.781   5.679  18.212  0.00  0.00    +0.000 A 
ATOM     13  C   UNL     1       3.430   6.964  17.756  0.00  0.00    +0.000 A 
BRANCH  11  14
ATOM     14  N   UNL     1       3.442   3.911  19.928  0.00  0.00    +0.000 N 
ATOM     15  N   UNL     1       4.641   3.286  19.771  0.00  0.00    +0.000 NA
ATOM     16  C   UNL     1       4.488   2.191  20.522  0.00  0.00    +0.000 A 
ATOM     17  C   UNL     1       3.252   2.221  21.168  0.00  0.00    +0.000 A 
ATOM     18  N   UNL     1       2.605   3.340  20.850  0.00  0.00    +0.000 NA
ENDBRANCH  11  14
ENDBRANCH   1  12
BRANCH   6  19
ATOM     19  C   UNL     1       7.350   7.129  17.837  0.00  0.00    +0.000 A 
ATOM     20  N   UNL     1       8.207   7.696  18.666  0.00  0.00    +0.000 NA
ATOM     21  C   UNL     1       8.299   8.988  18.179  0.00  0.00    +0.000 A 
ATOM     22  N   UNL     1       7.493   9.220  17.131  0.00  0.00    +0.000 NA
ATOM     23  O   UNL     1       6.880   8.000  16.896  0.00  0.00    +0.000 OA
BRANCH  21  24
ATOM     24  C   UNL     1       9.231   9.994  18.697  0.00  0.00    +0.000 A 
ATOM     25  C   UNL     1      10.087  10.709  17.848  0.00  0.00    +0.000 A 
ATOM     26  C   UNL     1      10.928  11.706  18.358  0.00  0.00    +0.000 A 
ATOM     27  C   UNL     1      10.925  11.999  19.723  0.00  0.00    +0.000 A 
ATOM     28  C   UNL     1      10.092  11.288  20.581  0.00  0.00    +0.000 A 
ATOM     29  C   UNL     1       9.255  10.292  20.072  0.00  0.00    +0.000 A 
ENDBRANCH  21  24
ENDBRANCH   6  19
TORSDOF 4
ENDMDL
MODEL 2
REMARK VINA RESULT:      -8.6      3.132      6.836
REMARK  Name = 
REMARK  5 active torsions:
REMARK  status: ('A' for Active; 'I' for Inactive)
REMARK    1  A    between atoms: C_1  and  C_2
REMARK    2  A    between atoms: C_5  and  N_6
REMARK    3  A    between atoms: C_11  and  C_12
REMARK    4  A    between atoms: C_17  and  C_18
REMARK    5  A    between atoms: C_20  and  C_21
REMARK                            x       y       z     vdW  Elec       q    Type
REMARK                         _______ _______ _______ _____ _____    ______ ____
ROOT
ATOM      1  C   UNL     1       5.419   5.451  19.012  0.00  0.00    +0.000 C 
ATOM      2  O   UNL     1       5.569   5.547  20.226  0.00  0.00    +0.000 OA
ATOM      3  N   UNL     1       6.416   5.783  18.109  0.00  0.00    +0.000 N 
ATOM      4  C   UNL     1       7.712   6.337  18.466  0.00  0.00    +0.000 C 
ATOM      5  C   UNL     1       7.544   7.311  17.311  0.00  0.00    +0.000 C 
ATOM      6  C   UNL     1       6.297   6.522  16.836  0.00  0.00    +0.000 C 
ENDROOT
BRANCH   1  12
ATOM      7  C   UNL     1       3.495   1.016  17.989  0.00  0.00    +0.000 C 
ATOM      8  C   UNL     1       3.271   2.494  18.111  0.00  0.00    +0.000 A 
ATOM      9  C   UNL     1       2.005   3.057  18.010  0.00  0.00    +0.000 A 
ATOM     10  C   UNL     1       1.838   4.437  18.149  0.00  0.00    +0.000 A 
ATOM     11  C   UNL     1       2.946   5.287  18.361  0.00  0.00    +0.000 A 
ATOM     12  C   UNL     1       4.228   4.728  18.480  0.00  0.00    +0.000 A 
ATOM     13  C   UNL     1       4.364   3.331  18.371  0.00  0.00    +0.000 A 
BRANCH  11  14
ATOM     14  N   UNL     1       2.694   6.685  18.422  0.00  0.00    +0.000 N 
ATOM     15  N   UNL     1       2.867   7.521  17.363  0.00  0.00    +0.000 NA
ATOM     16  C   UNL     1       2.447   8.690  17.855  0.00  0.00    +0.000 A 
ATOM     17  C   UNL     1       1.963   8.519  19.152  0.00  0.00    +0.000 A 
ATOM     18  N   UNL     1       2.054   7.237  19.500  0.00  0.00    +0.000 NA
ENDBRANCH  11  14
ENDBRANCH   1  12
BRANCH   6  19
ATOM     19  C   UNL     1       6.610   5.689  15.585  0.00  0.00    +0.000 A 
ATOM     20  N   UNL     1       5.764   4.869  14.990  0.00  0.00    +0.000 NA
ATOM     21  C   UNL     1       6.471   4.452  13.875  0.00  0.00    +0.000 A 
ATOM     22  N   UNL     1       7.715   4.953  13.816  0.00  0.00    +0.000 NA
ATOM     23  O   UNL     1       7.804   5.774  14.928  0.00  0.00    +0.000 OA
BRANCH  21  24
ATOM     24  C   UNL     1       5.907   3.609  12.817  0.00  0.00    +0.000 A 
ATOM     25  C   UNL     1       4.613   3.818  12.322  0.00  0.00    +0.000 A 
ATOM     26  C   UNL     1       4.117   3.037  11.269  0.00  0.00    +0.000 A 
ATOM     27  C   UNL     1       4.908   2.036  10.702  0.00  0.00    +0.000 A 
ATOM     28  C   UNL     1       6.190   1.807  11.192  0.00  0.00    +0.000 A 
ATOM     29  C   UNL     1       6.683   2.585  12.243  0.00  0.00    +0.000 A 
ENDBRANCH  21  24
ENDBRANCH   6  19
TORSDOF 4
ENDMDL
MODEL 3
REMARK VINA RESULT:      -8.6      0.138      1.145
REMARK  Name = 
REMARK  5 active torsions:
REMARK  status: ('A' for Active; 'I' for Inactive)
REMARK    1  A    between atoms: C_1  and  C_2
REMARK    2  A    between atoms: C_5  and  N_6
REMARK    3  A    between atoms: C_11  and  C_12
REMARK    4  A    between atoms: C_17  and  C_18
REMARK    5  A    between atoms: C_20  and  C_21
REMARK                            x       y       z     vdW  Elec       q    Type
REMARK                         _______ _______ _______ _____ _____    ______ ____
ROOT
ATOM      1  C   UNL     1       4.575   4.946  17.264  0.00  0.00    +0.000 C 
ATOM      2  O   UNL     1       4.013   4.043  16.654  0.00  0.00    +0.000 OA
ATOM      3  N   UNL     1       5.851   5.383  16.943  0.00  0.00    +0.000 N 
ATOM      4  C   UNL     1       6.695   4.799  15.913  0.00  0.00    +0.000 C 
ATOM      5  C   UNL     1       7.851   4.892  16.896  0.00  0.00    +0.000 C 
ATOM      6  C   UNL     1       6.962   5.729  17.852  0.00  0.00    +0.000 C 
ENDROOT
BRANCH   1  12
ATOM      7  C   UNL     1       2.162   9.213  17.893  0.00  0.00    +0.000 C 
ATOM      8  C   UNL     1       2.495   7.856  18.438  0.00  0.00    +0.000 A 
ATOM      9  C   UNL     1       1.885   7.353  19.581  0.00  0.00    +0.000 A 
ATOM     10  C   UNL     1       2.209   6.075  20.043  0.00  0.00    +0.000 A 
ATOM     11  C   UNL     1       3.179   5.287  19.385  0.00  0.00    +0.000 A 
ATOM     12  C   UNL     1       3.789   5.778  18.222  0.00  0.00    +0.000 A 
ATOM     13  C   UNL     1       3.419   7.054  17.756  0.00  0.00    +0.000 A 
BRANCH  11  14
ATOM     14  N   UNL     1       3.497   4.027  19.964  0.00  0.00    +0.000 N 
ATOM     15  N   UNL     1       2.570   3.220  20.549  0.00  0.00    +0.000 NA
ATOM     16  C   UNL     1       3.296   2.146  20.872  0.00  0.00    +0.000 A 
ATOM     17  C   UNL     1       4.604   2.294  20.409  0.00  0.00    +0.000 A 
ATOM     18  N   UNL     1       4.727   3.456  19.773  0.00  0.00    +0.000 NA
ENDBRANCH  11  14
ENDBRANCH   1  12
BRANCH   6  19
ATOM     19  C   UNL     1       7.364   7.210  17.830  0.00  0.00    +0.000 A 
ATOM     20  N   UNL     1       8.210   7.777  18.670  0.00  0.00    +0.000 NA
ATOM     21  C   UNL     1       8.316   9.066  18.178  0.00  0.00    +0.000 A 
ATOM     22  N   UNL     1       7.529   9.296  17.114  0.00  0.00    +0.000 NA
ATOM     23  O   UNL     1       6.915   8.078  16.876  0.00  0.00    +0.000 OA
BRANCH  21  24
ATOM     24  C   UNL     1       9.244  10.071  18.706  0.00  0.00    +0.000 A 
ATOM     25  C   UNL     1       9.297  10.376  20.072  0.00  0.00    +0.000 A 
ATOM     26  C   UNL     1      10.233  11.297  20.561  0.00  0.00    +0.000 A 
ATOM     27  C   UNL     1      11.124  11.925  19.690  0.00  0.00    +0.000 A 
ATOM     28  C   UNL     1      11.075  11.643  18.328  0.00  0.00    +0.000 A 
ATOM     29  C   UNL     1      10.140  10.726  17.841  0.00  0.00    +0.000 A 
ENDBRANCH  21  24
ENDBRANCH   6  19
TORSDOF 4
ENDMDL
MODEL 4
REMARK VINA RESULT:      -8.6      3.133      6.846
REMARK  Name = 
REMARK  5 active torsions:
REMARK  status: ('A' for Active; 'I' for Inactive)
REMARK    1  A    between atoms: C_1  and  C_2
REMARK    2  A    between atoms: C_5  and  N_6
REMARK    3  A    between atoms: C_11  and  C_12
REMARK    4  A    between atoms: C_17  and  C_18
REMARK    5  A    between atoms: C_20  and  C_21
REMARK                            x       y       z     vdW  Elec       q    Type
REMARK                         _______ _______ _______ _____ _____    ______ ____
ROOT
ATOM      1  C   UNL     1       5.349   5.503  18.976  0.00  0.00    +0.000 C 
ATOM      2  O   UNL     1       5.479   5.626  20.189  0.00  0.00    +0.000 OA
ATOM      3  N   UNL     1       6.345   5.855  18.079  0.00  0.00    +0.000 N 
ATOM      4  C   UNL     1       7.616   6.462  18.443  0.00  0.00    +0.000 C 
ATOM      5  C   UNL     1       7.428   7.408  17.268  0.00  0.00    +0.000 C 
ATOM      6  C   UNL     1       6.217   6.566  16.791  0.00  0.00    +0.000 C 
ENDROOT
BRANCH   1  12
ATOM      7  C   UNL     1       3.645   0.989  17.905  0.00  0.00    +0.000 C 
ATOM      8  C   UNL     1       3.347   2.453  18.048  0.00  0.00    +0.000 A 
ATOM      9  C   UNL     1       2.053   2.952  17.963  0.00  0.00    +0.000 A 
ATOM     10  C   UNL     1       1.818   4.319  18.123  0.00  0.00    +0.000 A 
ATOM     11  C   UNL     1       2.883   5.221  18.339  0.00  0.00    +0.000 A 
ATOM     12  C   UNL     1       4.192   4.727  18.442  0.00  0.00    +0.000 A 
ATOM     13  C   UNL     1       4.398   3.340  18.313  0.00  0.00    +0.000 A 
BRANCH  11  14
ATOM     14  N   UNL     1       2.561   6.604  18.421  0.00  0.00    +0.000 N 
ATOM     15  N   UNL     1       2.126   7.201  19.564  0.00  0.00    +0.000 NA
ATOM     16  C   UNL     1       2.025   8.481  19.192  0.00  0.00    +0.000 A 
ATOM     17  C   UNL     1       2.472   8.636  17.880  0.00  0.00    +0.000 A 
ATOM     18  N   UNL     1       2.876   7.462  17.401  0.00  0.00    +0.000 NA
ENDBRANCH  11  14
ENDBRANCH   1  12
BRANCH   6  19
ATOM     19  C   UNL     1       6.577   5.723  15.560  0.00  0.00    +0.000 A 
ATOM     20  N   UNL     1       5.749   4.911  14.930  0.00  0.00    +0.000 NA
ATOM     21  C   UNL     1       6.501   4.480  13.851  0.00  0.00    +0.000 A 
ATOM     22  N   UNL     1       7.753   4.964  13.848  0.00  0.00    +0.000 NA
ATOM     23  O   UNL     1       7.802   5.789  14.960  0.00  0.00    +0.000 OA
BRANCH  21  24
ATOM     24  C   UNL     1       5.976   3.639  12.771  0.00  0.00    +0.000 A 
ATOM     25  C   UNL     1       6.738   2.607  12.207  0.00  0.00    +0.000 A 
ATOM     26  C   UNL     1       6.194   1.779  11.216  0.00  0.00    +0.000 A 
ATOM     27  C   UNL     1       4.884   1.976  10.775  0.00  0.00    +0.000 A 
ATOM     28  C   UNL     1       4.120   3.006  11.315  0.00  0.00    +0.000 A 
ATOM     29  C   UNL     1       4.663   3.832  12.302  0.00  0.00    +0.000 A 
ENDBRANCH  21  24
ENDBRANCH   6  19
TORSDOF 4
ENDMDL
MODEL 5
REMARK VINA RESULT:      -7.8      1.247      1.799
REMARK  Name = 
REMARK  5 active torsions:
REMARK  status: ('A' for Active; 'I' for Inactive)
REMARK    1  A    between atoms: C_1  and  C_2
REMARK    2  A    between atoms: C_5  and  N_6
REMARK    3  A    between atoms: C_11  and  C_12
REMARK    4  A    between atoms: C_17  and  C_18
REMARK    5  A    between atoms: C_20  and  C_21
REMARK                            x       y       z     vdW  Elec       q    Type
REMARK                         _______ _______ _______ _____ _____    ______ ____
ROOT
ATOM      1  C   UNL     1       3.248   4.752  17.528  0.00  0.00    +0.000 C 
ATOM      2  O   UNL     1       2.352   4.009  17.141  0.00  0.00    +0.000 OA
ATOM      3  N   UNL     1       4.517   4.743  16.973  0.00  0.00    +0.000 N 
ATOM      4  C   UNL     1       4.964   3.830  15.932  0.00  0.00    +0.000 C 
ATOM      5  C   UNL     1       6.252   3.662  16.720  0.00  0.00    +0.000 C 
ATOM      6  C   UNL     1       5.823   4.820  17.658  0.00  0.00    +0.000 C 
ENDROOT
BRANCH   1  12
ATOM      7  C   UNL     1       2.305   9.593  17.852  0.00  0.00    +0.000 C 
ATOM      8  C   UNL     1       2.327   8.259  18.539  0.00  0.00    +0.000 A 
ATOM      9  C   UNL     1       1.811   8.082  19.817  0.00  0.00    +0.000 A 
ATOM     10  C   UNL     1       1.833   6.819  20.413  0.00  0.00    +0.000 A 
ATOM     11  C   UNL     1       2.405   5.711  19.749  0.00  0.00    +0.000 A 
ATOM     12  C   UNL     1       2.914   5.875  18.453  0.00  0.00    +0.000 A 
ATOM     13  C   UNL     1       2.848   7.150  17.861  0.00  0.00    +0.000 A 
BRANCH  11  14
ATOM     14  N   UNL     1       2.447   4.478  20.457  0.00  0.00    +0.000 N 
ATOM     15  N   UNL     1       1.363   3.938  21.078  0.00  0.00    +0.000 NA
ATOM     16  C   UNL     1       1.848   2.777  21.530  0.00  0.00    +0.000 A 
ATOM     17  C   UNL     1       3.167   2.611  21.108  0.00  0.00    +0.000 A 
ATOM     18  N   UNL     1       3.538   3.655  20.371  0.00  0.00    +0.000 NA
ENDBRANCH  11  14
ENDBRANCH   1  12
BRANCH   6  19
ATOM     19  C   UNL     1       6.622   6.097  17.363  0.00  0.00    +0.000 A 
ATOM     20  N   UNL     1       6.761   7.112  18.195  0.00  0.00    +0.000 NA
ATOM     21  C   UNL     1       7.637   7.946  17.522  0.00  0.00    +0.000 A 
ATOM     22  N   UNL     1       7.979   7.488  16.307  0.00  0.00    +0.000 NA
ATOM     23  O   UNL     1       7.326   6.271  16.206  0.00  0.00    +0.000 OA
BRANCH  21  24
ATOM     24  C   UNL     1       8.204   9.171  18.093  0.00  0.00    +0.000 A 
ATOM     25  C   UNL     1       8.958   9.151  19.275  0.00  0.00    +0.000 A 
ATOM     26  C   UNL     1       9.538  10.326  19.770  0.00  0.00    +0.000 A 
ATOM     27  C   UNL     1       9.369  11.535  19.092  0.00  0.00    +0.000 A 
ATOM     28  C   UNL     1       8.611  11.574  17.926  0.00  0.00    +0.000 A 
ATOM     29  C   UNL     1       8.031  10.402  17.434  0.00  0.00    +0.000 A 
ENDBRANCH  21  24
ENDBRANCH   6  19
TORSDOF 4
ENDMDL
MODEL 6
REMARK VINA RESULT:      -7.7      7.381     11.469
REMARK  Name = 
REMARK  5 active torsions:
REMARK  status: ('A' for Active; 'I' for Inactive)
REMARK    1  A    between atoms: C_1  and  C_2
REMARK    2  A    between atoms: C_5  and  N_6
REMARK    3  A    between atoms: C_11  and  C_12
REMARK    4  A    between atoms: C_17  and  C_18
REMARK    5  A    between atoms: C_20  and  C_21
REMARK                            x       y       z     vdW  Elec       q    Type
REMARK                         _______ _______ _______ _____ _____    ______ ____
ROOT
ATOM      1  C   UNL     1       0.628  10.911  21.217  0.00  0.00    +0.000 C 
ATOM      2  O   UNL     1       1.520  10.483  21.942  0.00  0.00    +0.000 OA
ATOM      3  N   UNL     1       0.220  10.254  20.068  0.00  0.00    +0.000 N 
ATOM      4  C   UNL     1       0.824   9.037  19.546  0.00  0.00    +0.000 C 
ATOM      5  C   UNL     1       0.754   9.670  18.166  0.00  0.00    +0.000 C 
ATOM      6  C   UNL     1      -0.104  10.825  18.745  0.00  0.00    +0.000 C 
ENDROOT
BRANCH   1  12
ATOM      7  C   UNL     1      -3.400  12.134  23.806  0.00  0.00    +0.000 C 
ATOM      8  C   UNL     1      -2.160  12.599  23.101  0.00  0.00    +0.000 A 
ATOM      9  C   UNL     1      -1.733  13.920  23.158  0.00  0.00    +0.000 A 
ATOM     10  C   UNL     1      -0.561  14.306  22.504  0.00  0.00    +0.000 A 
ATOM     11  C   UNL     1       0.191  13.379  21.749  0.00  0.00    +0.000 A 
ATOM     12  C   UNL     1      -0.221  12.039  21.697  0.00  0.00    +0.000 A 
ATOM     13  C   UNL     1      -1.387  11.668  22.395  0.00  0.00    +0.000 A 
BRANCH  11  14
ATOM     14  N   UNL     1       1.332  13.873  21.059  0.00  0.00    +0.000 N 
ATOM     15  N   UNL     1       2.580  13.897  21.603  0.00  0.00    +0.000 NA
ATOM     16  C   UNL     1       3.319  14.361  20.591  0.00  0.00    +0.000 A 
ATOM     17  C   UNL     1       2.527  14.527  19.455  0.00  0.00    +0.000 A 
ATOM     18  N   UNL     1       1.276  14.158  19.721  0.00  0.00    +0.000 NA
ENDBRANCH  11  14
ENDBRANCH   1  12
BRANCH   6  19
ATOM     19  C   UNL     1      -1.576  10.684  18.334  0.00  0.00    +0.000 A 
ATOM     20  N   UNL     1      -2.564  11.429  18.791  0.00  0.00    +0.000 NA
ATOM     21  C   UNL     1      -3.649  10.991  18.052  0.00  0.00    +0.000 A 
ATOM     22  N   UNL     1      -3.350   9.984  17.215  0.00  0.00    +0.000 NA
ATOM     23  O   UNL     1      -1.990   9.790  17.388  0.00  0.00    +0.000 OA
BRANCH  21  24
ATOM     24  C   UNL     1      -4.980  11.603  18.109  0.00  0.00    +0.000 A 
ATOM     25  C   UNL     1      -5.760  11.556  19.272  0.00  0.00    +0.000 A 
ATOM     26  C   UNL     1      -7.005  12.198  19.322  0.00  0.00    +0.000 A 
ATOM     27  C   UNL     1      -7.484  12.892  18.209  0.00  0.00    +0.000 A 
ATOM     28  C   UNL     1      -6.727  12.935  17.043  0.00  0.00    +0.000 A 
ATOM     29  C   UNL     1      -5.488  12.293  16.993  0.00  0.00    +0.000 A 
ENDBRANCH  21  24
ENDBRANCH   6  19
TORSDOF 4
ENDMDL
MODEL 7
REMARK VINA RESULT:      -7.7      7.118     11.206
REMARK  Name = 
REMARK  5 active torsions:
REMARK  status: ('A' for Active; 'I' for Inactive)
REMARK    1  A    between atoms: C_1  and  C_2
REMARK    2  A    between atoms: C_5  and  N_6
REMARK    3  A    between atoms: C_11  and  C_12
REMARK    4  A    between atoms: C_17  and  C_18
REMARK    5  A    between atoms: C_20  and  C_21
REMARK                            x       y       z     vdW  Elec       q    Type
REMARK                         _______ _______ _______ _____ _____    ______ ____
ROOT
ATOM      1  C   UNL     1       0.710  10.704  21.270  0.00  0.00    +0.000 C 
ATOM      2  O   UNL     1       1.517  10.275  22.088  0.00  0.00    +0.000 OA
ATOM      3  N   UNL     1       0.402  10.029  20.100  0.00  0.00    +0.000 N 
ATOM      4  C   UNL     1       1.027   8.790  19.665  0.00  0.00    +0.000 C 
ATOM      5  C   UNL     1       1.107   9.392  18.272  0.00  0.00    +0.000 C 
ATOM      6  C   UNL     1       0.222  10.577  18.740  0.00  0.00    +0.000 C 
ENDROOT
BRANCH   1  12
ATOM      7  C   UNL     1      -3.324  12.109  23.756  0.00  0.00    +0.000 C 
ATOM      8  C   UNL     1      -2.097  12.523  22.997  0.00  0.00    +0.000 A 
ATOM      9  C   UNL     1      -1.695  13.850  22.917  0.00  0.00    +0.000 A 
ATOM     10  C   UNL     1      -0.535  14.190  22.217  0.00  0.00    +0.000 A 
ATOM     11  C   UNL     1       0.230  13.205  21.554  0.00  0.00    +0.000 A 
ATOM     12  C   UNL     1      -0.158  11.860  21.641  0.00  0.00    +0.000 A 
ATOM     13  C   UNL     1      -1.311  11.540  22.382  0.00  0.00    +0.000 A 
BRANCH  11  14
ATOM     14  N   UNL     1       1.357  13.648  20.808  0.00  0.00    +0.000 N 
ATOM     15  N   UNL     1       1.265  14.153  19.548  0.00  0.00    +0.000 NA
ATOM     16  C   UNL     1       2.530  14.494  19.287  0.00  0.00    +0.000 A 
ATOM     17  C   UNL     1       3.329  14.265  20.408  0.00  0.00    +0.000 A 
ATOM     18  N   UNL     1       2.583  13.788  21.402  0.00  0.00    +0.000 NA
ENDBRANCH  11  14
ENDBRANCH   1  12
BRANCH   6  19
ATOM     19  C   UNL     1      -1.205  10.456  18.189  0.00  0.00    +0.000 A 
ATOM     20  N   UNL     1      -2.270  11.034  18.712  0.00  0.00    +0.000 NA
ATOM     21  C   UNL     1      -3.269  10.714  17.809  0.00  0.00    +0.000 A 
ATOM     22  N   UNL     1      -2.847   9.929  16.805  0.00  0.00    +0.000 NA
ATOM     23  O   UNL     1      -1.493   9.769  17.044  0.00  0.00    +0.000 OA
BRANCH  21  24
ATOM     24  C   UNL     1      -4.639  11.232  17.886  0.00  0.00    +0.000 A 
ATOM     25  C   UNL     1      -5.087  12.252  17.036  0.00  0.00    +0.000 A 
ATOM     26  C   UNL     1      -6.417  12.690  17.088  0.00  0.00    +0.000 A 
ATOM     27  C   UNL     1      -7.312  12.116  17.992  0.00  0.00    +0.000 A 
ATOM     28  C   UNL     1      -6.878  11.113  18.852  0.00  0.00    +0.000 A 
ATOM     29  C   UNL     1      -5.552  10.678  18.802  0.00  0.00    +0.000 A 
ENDBRANCH  21  24
ENDBRANCH   6  19
TORSDOF 4
ENDMDL
MODEL 8
REMARK VINA RESULT:      -7.6      8.136     12.019
REMARK  Name = 
REMARK  5 active torsions:
REMARK  status: ('A' for Active; 'I' for Inactive)
REMARK    1  A    between atoms: C_1  and  C_2
REMARK    2  A    between atoms: C_5  and  N_6
REMARK    3  A    between atoms: C_11  and  C_12
REMARK    4  A    between atoms: C_17  and  C_18
REMARK    5  A    between atoms: C_20  and  C_21
REMARK                            x       y       z     vdW  Elec       q    Type
REMARK                         _______ _______ _______ _____ _____    ______ ____
ROOT
ATOM      1  C   UNL     1      -0.315  11.122  22.052  0.00  0.00    +0.000 C 
ATOM      2  O   UNL     1       0.375  10.576  22.907  0.00  0.00    +0.000 OA
ATOM      3  N   UNL     1      -0.504  10.583  20.789  0.00  0.00    +0.000 N 
ATOM      4  C   UNL     1       0.127   9.366  20.301  0.00  0.00    +0.000 C 
ATOM      5  C   UNL     1       0.392  10.102  18.997  0.00  0.00    +0.000 C 
ATOM      6  C   UNL     1      -0.503  11.272  19.483  0.00  0.00    +0.000 C 
ENDROOT
BRANCH   1  12
ATOM      7  C   UNL     1      -4.318  12.499  24.602  0.00  0.00    +0.000 C 
ATOM      8  C   UNL     1      -3.104  12.921  23.827  0.00  0.00    +0.000 A 
ATOM      9  C   UNL     1      -2.709  14.251  23.747  0.00  0.00    +0.000 A 
ATOM     10  C   UNL     1      -1.561  14.598  23.032  0.00  0.00    +0.000 A 
ATOM     11  C   UNL     1      -0.802  13.620  22.353  0.00  0.00    +0.000 A 
ATOM     12  C   UNL     1      -1.182  12.272  22.440  0.00  0.00    +0.000 A 
ATOM     13  C   UNL     1      -2.324  11.944  23.197  0.00  0.00    +0.000 A 
BRANCH  11  14
ATOM     14  N   UNL     1       0.312  14.070  21.592  0.00  0.00    +0.000 N 
ATOM     15  N   UNL     1       0.202  14.560  20.328  0.00  0.00    +0.000 NA
ATOM     16  C   UNL     1       1.461  14.916  20.053  0.00  0.00    +0.000 A 
ATOM     17  C   UNL     1       2.272  14.712  21.169  0.00  0.00    +0.000 A 
ATOM     18  N   UNL     1       1.541  14.235  22.175  0.00  0.00    +0.000 NA
ENDBRANCH  11  14
ENDBRANCH   1  12
BRANCH   6  19
ATOM     19  C   UNL     1      -1.858  11.272  18.762  0.00  0.00    +0.000 A 
ATOM     20  N   UNL     1      -2.968  11.802  19.238  0.00  0.00    +0.000 NA
ATOM     21  C   UNL     1      -3.860  11.641  18.192  0.00  0.00    +0.000 A 
ATOM     22  N   UNL     1      -3.334  10.992  17.140  0.00  0.00    +0.000 NA
ATOM     23  O   UNL     1      -2.019  10.761  17.506  0.00  0.00    +0.000 OA
BRANCH  21  24
ATOM     24  C   UNL     1      -5.222  12.183  18.186  0.00  0.00    +0.000 A 
ATOM     25  C   UNL     1      -5.825  12.642  17.006  0.00  0.00    +0.000 A 
ATOM     26  C   UNL     1      -7.149  13.101  17.015  0.00  0.00    +0.000 A 
ATOM     27  C   UNL     1      -7.883  13.111  18.202  0.00  0.00    +0.000 A 
ATOM     28  C   UNL     1      -7.293  12.673  19.383  0.00  0.00    +0.000 A 
ATOM     29  C   UNL     1      -5.973  12.217  19.375  0.00  0.00    +0.000 A 
ENDBRANCH  21  24
ENDBRANCH   6  19
TORSDOF 4
ENDMDL
MODEL 9
REMARK VINA RESULT:      -7.5      5.348      8.714
REMARK  Name = 
REMARK  5 active torsions:
REMARK  status: ('A' for Active; 'I' for Inactive)
REMARK    1  A    between atoms: C_1  and  C_2
REMARK    2  A    between atoms: C_5  and  N_6
REMARK    3  A    between atoms: C_11  and  C_12
REMARK    4  A    between atoms: C_17  and  C_18
REMARK    5  A    between atoms: C_20  and  C_21
REMARK                            x       y       z     vdW  Elec       q    Type
REMARK                         _______ _______ _______ _____ _____    ______ ____
ROOT
ATOM      1  C   UNL     1      -0.788  11.300  21.427  0.00  0.00    +0.000 C 
ATOM      2  O   UNL     1      -1.744  11.599  22.134  0.00  0.00    +0.000 OA
ATOM      3  N   UNL     1      -0.255  10.021  21.393  0.00  0.00    +0.000 N 
ATOM      4  C   UNL     1      -0.705   8.910  22.219  0.00  0.00    +0.000 C 
ATOM      5  C   UNL     1       0.759   8.575  22.454  0.00  0.00    +0.000 C 
ATOM      6  C   UNL     1       1.164   9.613  21.375  0.00  0.00    +0.000 C 
ENDROOT
BRANCH   1  12
ATOM      7  C   UNL     1       2.598  14.711  20.275  0.00  0.00    +0.000 C 
ATOM      8  C   UNL     1       1.457  13.854  19.812  0.00  0.00    +0.000 A 
ATOM      9  C   UNL     1       1.088  13.781  18.474  0.00  0.00    +0.000 A 
ATOM     10  C   UNL     1       0.032  12.955  18.083  0.00  0.00    +0.000 A 
ATOM     11  C   UNL     1      -0.698  12.207  19.032  0.00  0.00    +0.000 A 
ATOM     12  C   UNL     1      -0.324  12.260  20.384  0.00  0.00    +0.000 A 
ATOM     13  C   UNL     1       0.766  13.074  20.747  0.00  0.00    +0.000 A 
BRANCH  11  14
ATOM     14  N   UNL     1      -1.801  11.446  18.555  0.00  0.00    +0.000 N 
ATOM     15  N   UNL     1      -3.095  11.843  18.693  0.00  0.00    +0.000 NA
ATOM     16  C   UNL     1      -3.756  10.877  18.047  0.00  0.00    +0.000 A 
ATOM     17  C   UNL     1      -2.855   9.979  17.475  0.00  0.00    +0.000 A 
ATOM     18  N   UNL     1      -1.608  10.366  17.735  0.00  0.00    +0.000 NA
ENDBRANCH  11  14
ENDBRANCH   1  12
BRANCH   6  19
ATOM     19  C   UNL     1       1.611   8.922  20.080  0.00  0.00    +0.000 A 
ATOM     20  N   UNL     1       2.177   7.731  20.014  0.00  0.00    +0.000 NA
ATOM     21  C   UNL     1       2.287   7.517  18.651  0.00  0.00    +0.000 A 
ATOM     22  N   UNL     1       1.856   8.553  17.913  0.00  0.00    +0.000 NA
ATOM     23  O   UNL     1       1.400   9.469  18.847  0.00  0.00    +0.000 OA
BRANCH  21  24
ATOM     24  C   UNL     1       2.755   6.262  18.054  0.00  0.00    +0.000 A 
ATOM     25  C   UNL     1       4.027   6.153  17.477  0.00  0.00    +0.000 A 
ATOM     26  C   UNL     1       4.474   4.927  16.965  0.00  0.00    +0.000 A 
ATOM     27  C   UNL     1       3.655   3.799  17.022  0.00  0.00    +0.000 A 
ATOM     28  C   UNL     1       2.384   3.896  17.580  0.00  0.00    +0.000 A 
ATOM     29  C   UNL     1       1.937   5.118  18.088  0.00  0.00    +0.000 A 
ENDBRANCH  21  24
ENDBRANCH   6  19
TORSDOF 4
ENDMDL
