MODEL 1
REMARK VINA RESULT:      -6.7      0.000      0.000
REMARK  Name = 
REMARK  10 active torsions:
REMARK  status: ('A' for Active; 'I' for Inactive)
REMARK    1  A    between atoms: C_1  and  O_2
REMARK    2  A    between atoms: O_2  and  C_3
REMARK    3  A    between atoms: C_3  and  C_4
REMARK    4  A    between atoms: C_4  and  N_5
REMARK    5  A    between atoms: N_5  and  C_6
REMARK    6  A    between atoms: C_6  and  C_7
REMARK    7  A    between atoms: C_13  and  C_15
REMARK    8  A    between atoms: C_17  and  C_18
REMARK    9  A    between atoms: C_18  and  C_19
REMARK   10  A    between atoms: C_18  and  C_20
REMARK                            x       y       z     vdW  Elec       q    Type
REMARK                         _______ _______ _______ _____ _____    ______ ____
ROOT
ATOM      1  N   UNL     1       2.688   4.647  18.534  0.00  0.00    +0.000 N 
ATOM      2  C   UNL     1       3.411   4.119  17.428  0.00  0.00    +0.000 C 
ATOM      3  O   UNL     1       2.916   3.239  16.722  0.00  0.00    +0.000 OA
ENDROOT
BRANCH   2   4
ATOM      4  C   UNL     1       4.731   4.632  17.076  0.00  0.00    +0.000 A 
ATOM      5  N   UNL     1       5.546   5.298  17.865  0.00  0.00    +0.000 NA
ATOM      6  C   UNL     1       6.736   5.553  17.197  0.00  0.00    +0.000 A 
ATOM      7  C   UNL     1       6.800   5.064  15.907  0.00  0.00    +0.000 A 
ATOM      8  S   UNL     1       5.348   4.267  15.508  0.00  0.00    +0.000 S 
BRANCH   6   9
ATOM      9  C   UNL     1       7.816   6.313  17.906  0.00  0.00    +0.000 C 
ATOM     10  C   UNL     1       7.686   7.812  17.641  0.00  0.00    +0.000 C 
ATOM     11  C   UNL     1       7.808   6.020  19.406  0.00  0.00    +0.000 C 
ENDBRANCH   6   9
ENDBRANCH   2   4
BRANCH   1  12
ATOM     12  C   UNL     1       1.305   4.185  18.849  0.00  0.00    +0.000 C 
BRANCH  12  13
ATOM     13  C   UNL     1       1.002   3.888  20.322  0.00  0.00    +0.000 C 
BRANCH  13  15
ATOM     14  C   UNL     1       2.446   2.784  21.748  0.00  0.00    +0.000 C 
ATOM     15  O   UNL     1       1.402   2.596  20.781  0.00  0.00    +0.000 OA
ENDBRANCH  13  15
ENDBRANCH  12  13
ENDBRANCH   1  12
BRANCH   1  16
ATOM     16  C   UNL     1       3.200   5.742  19.366  0.00  0.00    +0.000 C 
BRANCH  16  17
ATOM     17  C   UNL     1       2.586   7.098  19.108  0.00  0.00    +0.000 A 
ATOM     18  C   UNL     1       1.852   7.821  20.046  0.00  0.00    +0.000 A 
ATOM     19  C   UNL     1       1.264   9.034  19.690  0.00  0.00    +0.000 A 
ATOM     20  C   UNL     1       1.466   9.509  18.405  0.00  0.00    +0.000 A 
ATOM     21  N   UNL     1       2.217   8.873  17.484  0.00  0.00    +0.000 NA
ATOM     22  C   UNL     1       2.760   7.690  17.857  0.00  0.00    +0.000 A 
ENDBRANCH  16  17
ENDBRANCH   1  16
TORSDOF 7
ENDMDL
MODEL 2
REMARK VINA RESULT:      -6.5      3.299      5.649
REMARK  Name = 
REMARK  10 active torsions:
REMARK  status: ('A' for Active; 'I' for Inactive)
REMARK    1  A    between atoms: C_1  and  O_2
REMARK    2  A    between atoms: O_2  and  C_3
REMARK    3  A    between atoms: C_3  and  C_4
REMARK    4  A    between atoms: C_4  and  N_5
REMARK    5  A    between atoms: N_5  and  C_6
REMARK    6  A    between atoms: C_6  and  C_7
REMARK    7  A    between atoms: C_13  and  C_15
REMARK    8  A    between atoms: C_17  and  C_18
REMARK    9  A    between atoms: C_18  and  C_19
REMARK   10  A    between atoms: C_18  and  C_20
REMARK                            x       y       z     vdW  Elec       q    Type
REMARK                         _______ _______ _______ _____ _____    ______ ____
ROOT
ATOM      1  N   UNL     1       5.352   4.996  16.948  0.00  0.00    +0.000 N 
ATOM      2  C   UNL     1       5.850   5.632  15.777  0.00  0.00    +0.000 C 
ATOM      3  O   UNL     1       6.169   6.822  15.800  0.00  0.00    +0.000 OA
ENDROOT
BRANCH   2   4
ATOM      4  C   UNL     1       6.036   4.887  14.536  0.00  0.00    +0.000 A 
ATOM      5  N   UNL     1       5.141   4.134  13.936  0.00  0.00    +0.000 NA
ATOM      6  C   UNL     1       5.664   3.648  12.745  0.00  0.00    +0.000 A 
ATOM      7  C   UNL     1       6.955   4.052  12.464  0.00  0.00    +0.000 A 
ATOM      8  S   UNL     1       7.537   5.061  13.706  0.00  0.00    +0.000 S 
BRANCH   6   9
ATOM      9  C   UNL     1       4.816   2.753  11.892  0.00  0.00    +0.000 C 
ATOM     10  C   UNL     1       4.042   3.568  10.858  0.00  0.00    +0.000 C 
ATOM     11  C   UNL     1       5.658   1.671  11.216  0.00  0.00    +0.000 C 
ENDBRANCH   6   9
ENDBRANCH   2   4
BRANCH   1  12
ATOM     12  C   UNL     1       5.236   5.732  18.241  0.00  0.00    +0.000 C 
BRANCH  12  13
ATOM     13  C   UNL     1       5.946   5.108  19.448  0.00  0.00    +0.000 C 
BRANCH  13  15
ATOM     14  C   UNL     1       7.841   6.297  18.870  0.00  0.00    +0.000 C 
ATOM     15  O   UNL     1       7.368   5.030  19.350  0.00  0.00    +0.000 OA
ENDBRANCH  13  15
ENDBRANCH  12  13
ENDBRANCH   1  12
BRANCH   1  16
ATOM     16  C   UNL     1       5.022   3.567  16.996  0.00  0.00    +0.000 C 
BRANCH  16  17
ATOM     17  C   UNL     1       3.668   3.231  17.577  0.00  0.00    +0.000 A 
ATOM     18  C   UNL     1       2.498   3.936  17.302  0.00  0.00    +0.000 A 
ATOM     19  C   UNL     1       1.308   3.592  17.944  0.00  0.00    +0.000 A 
ATOM     20  C   UNL     1       1.319   2.518  18.817  0.00  0.00    +0.000 A 
ATOM     21  N   UNL     1       2.413   1.771  19.066  0.00  0.00    +0.000 NA
ATOM     22  C   UNL     1       3.556   2.142  18.440  0.00  0.00    +0.000 A 
ENDBRANCH  16  17
ENDBRANCH   1  16
TORSDOF 7
ENDMDL
MODEL 3
REMARK VINA RESULT:      -6.5      2.694      5.924
REMARK  Name = 
REMARK  10 active torsions:
REMARK  status: ('A' for Active; 'I' for Inactive)
REMARK    1  A    between atoms: C_1  and  O_2
REMARK    2  A    between atoms: O_2  and  C_3
REMARK    3  A    between atoms: C_3  and  C_4
REMARK    4  A    between atoms: C_4  and  N_5
REMARK    5  A    between atoms: N_5  and  C_6
REMARK    6  A    between atoms: C_6  and  C_7
REMARK    7  A    between atoms: C_13  and  C_15
REMARK    8  A    between atoms: C_17  and  C_18
REMARK    9  A    between atoms: C_18  and  C_19
REMARK   10  A    between atoms: C_18  and  C_20
REMARK                            x       y       z     vdW  Elec       q    Type
REMARK                         _______ _______ _______ _____ _____    ______ ____
ROOT
ATOM      1  N   UNL     1       3.477   5.291  17.454  0.00  0.00    +0.000 N 
ATOM      2  C   UNL     1       3.740   6.644  17.804  0.00  0.00    +0.000 C 
ATOM      3  O   UNL     1       4.787   7.189  17.450  0.00  0.00    +0.000 OA
ENDROOT
BRANCH   2   4
ATOM      4  C   UNL     1       2.764   7.433  18.549  0.00  0.00    +0.000 A 
ATOM      5  N   UNL     1       2.400   7.247  19.799  0.00  0.00    +0.000 NA
ATOM      6  C   UNL     1       1.506   8.239  20.177  0.00  0.00    +0.000 A 
ATOM      7  C   UNL     1       1.215   9.169  19.197  0.00  0.00    +0.000 A 
ATOM      8  S   UNL     1       2.070   8.806  17.770  0.00  0.00    +0.000 S 
BRANCH   6   9
ATOM      9  C   UNL     1       0.948   8.221  21.568  0.00  0.00    +0.000 C 
ATOM     10  C   UNL     1       1.607   9.297  22.429  0.00  0.00    +0.000 C 
ATOM     11  C   UNL     1      -0.572   8.385  21.557  0.00  0.00    +0.000 C 
ENDBRANCH   6   9
ENDBRANCH   2   4
BRANCH   1  12
ATOM     12  C   UNL     1       4.434   4.505  16.622  0.00  0.00    +0.000 C 
BRANCH  12  13
ATOM     13  C   UNL     1       5.841   4.311  17.199  0.00  0.00    +0.000 C 
BRANCH  13  15
ATOM     14  C   UNL     1       6.539   4.990  15.104  0.00  0.00    +0.000 C 
ATOM     15  O   UNL     1       6.886   4.179  16.236  0.00  0.00    +0.000 OA
ENDBRANCH  13  15
ENDBRANCH  12  13
ENDBRANCH   1  12
BRANCH   1  16
ATOM     16  C   UNL     1       2.219   4.614  17.789  0.00  0.00    +0.000 C 
BRANCH  16  17
ATOM     17  C   UNL     1       2.196   3.908  19.124  0.00  0.00    +0.000 A 
ATOM     18  C   UNL     1       1.092   3.870  19.975  0.00  0.00    +0.000 A 
ATOM     19  C   UNL     1       1.191   3.252  21.221  0.00  0.00    +0.000 A 
ATOM     20  C   UNL     1       2.389   2.648  21.562  0.00  0.00    +0.000 A 
ATOM     21  N   UNL     1       3.462   2.608  20.746  0.00  0.00    +0.000 NA
ATOM     22  C   UNL     1       3.339   3.233  19.551  0.00  0.00    +0.000 A 
ENDBRANCH  16  17
ENDBRANCH   1  16
TORSDOF 7
ENDMDL
MODEL 4
REMARK VINA RESULT:      -6.4      3.169      5.324
REMARK  Name = 
REMARK  10 active torsions:
REMARK  status: ('A' for Active; 'I' for Inactive)
REMARK    1  A    between atoms: C_1  and  O_2
REMARK    2  A    between atoms: O_2  and  C_3
REMARK    3  A    between atoms: C_3  and  C_4
REMARK    4  A    between atoms: C_4  and  N_5
REMARK    5  A    between atoms: N_5  and  C_6
REMARK    6  A    between atoms: C_6  and  C_7
REMARK    7  A    between atoms: C_13  and  C_15
REMARK    8  A    between atoms: C_17  and  C_18
REMARK    9  A    between atoms: C_18  and  C_19
REMARK   10  A    between atoms: C_18  and  C_20
REMARK                            x       y       z     vdW  Elec       q    Type
REMARK                         _______ _______ _______ _____ _____    ______ ____
ROOT
ATOM      1  N   UNL     1       4.750   5.076  16.966  0.00  0.00    +0.000 N 
ATOM      2  C   UNL     1       5.256   5.689  15.786  0.00  0.00    +0.000 C 
ATOM      3  O   UNL     1       5.362   6.914  15.715  0.00  0.00    +0.000 OA
ENDROOT
BRANCH   2   4
ATOM      4  C   UNL     1       5.702   4.887  14.651  0.00  0.00    +0.000 A 
ATOM      5  N   UNL     1       4.955   4.098  13.911  0.00  0.00    +0.000 NA
ATOM      6  C   UNL     1       5.719   3.560  12.885  0.00  0.00    +0.000 A 
ATOM      7  C   UNL     1       7.041   3.962  12.866  0.00  0.00    +0.000 A 
ATOM      8  S   UNL     1       7.347   5.034  14.154  0.00  0.00    +0.000 S 
BRANCH   6   9
ATOM      9  C   UNL     1       5.072   2.618  11.915  0.00  0.00    +0.000 C 
ATOM     10  C   UNL     1       4.160   3.376  10.953  0.00  0.00    +0.000 C 
ATOM     11  C   UNL     1       6.116   1.804  11.151  0.00  0.00    +0.000 C 
ENDBRANCH   6   9
ENDBRANCH   2   4
BRANCH   1  12
ATOM     12  C   UNL     1       4.370   5.887  18.159  0.00  0.00    +0.000 C 
BRANCH  12  13
ATOM     13  C   UNL     1       3.009   6.590  18.102  0.00  0.00    +0.000 C 
BRANCH  13  15
ATOM     14  C   UNL     1       2.142   6.093  20.185  0.00  0.00    +0.000 C 
ATOM     15  O   UNL     1       2.564   7.166  19.330  0.00  0.00    +0.000 OA
ENDBRANCH  13  15
ENDBRANCH  12  13
ENDBRANCH   1  12
BRANCH   1  16
ATOM     16  C   UNL     1       4.668   3.620  17.131  0.00  0.00    +0.000 C 
BRANCH  16  17
ATOM     17  C   UNL     1       3.590   3.132  18.070  0.00  0.00    +0.000 A 
ATOM     18  C   UNL     1       2.269   2.892  17.694  0.00  0.00    +0.000 A 
ATOM     19  C   UNL     1       1.329   2.511  18.650  0.00  0.00    +0.000 A 
ATOM     20  C   UNL     1       1.752   2.339  19.956  0.00  0.00    +0.000 A 
ATOM     21  N   UNL     1       3.031   2.501  20.353  0.00  0.00    +0.000 NA
ATOM     22  C   UNL     1       3.915   2.889  19.403  0.00  0.00    +0.000 A 
ENDBRANCH  16  17
ENDBRANCH   1  16
TORSDOF 7
ENDMDL
MODEL 5
REMARK VINA RESULT:      -6.4      3.373      5.774
REMARK  Name = 
REMARK  10 active torsions:
REMARK  status: ('A' for Active; 'I' for Inactive)
REMARK    1  A    between atoms: C_1  and  O_2
REMARK    2  A    between atoms: O_2  and  C_3
REMARK    3  A    between atoms: C_3  and  C_4
REMARK    4  A    between atoms: C_4  and  N_5
REMARK    5  A    between atoms: N_5  and  C_6
REMARK    6  A    between atoms: C_6  and  C_7
REMARK    7  A    between atoms: C_13  and  C_15
REMARK    8  A    between atoms: C_17  and  C_18
REMARK    9  A    between atoms: C_18  and  C_19
REMARK   10  A    between atoms: C_18  and  C_20
REMARK                            x       y       z     vdW  Elec       q    Type
REMARK                         _______ _______ _______ _____ _____    ______ ____
ROOT
ATOM      1  N   UNL     1       5.827   4.654  17.066  0.00  0.00    +0.000 N 
ATOM      2  C   UNL     1       6.938   4.367  16.226  0.00  0.00    +0.000 C 
ATOM      3  O   UNL     1       8.067   4.241  16.703  0.00  0.00    +0.000 OA
ENDROOT
BRANCH   2   4
ATOM      4  C   UNL     1       6.766   4.174  14.789  0.00  0.00    +0.000 A 
ATOM      5  N   UNL     1       5.961   3.313  14.208  0.00  0.00    +0.000 NA
ATOM      6  C   UNL     1       6.022   3.473  12.831  0.00  0.00    +0.000 A 
ATOM      7  C   UNL     1       6.876   4.468  12.394  0.00  0.00    +0.000 A 
ATOM      8  S   UNL     1       7.625   5.224  13.724  0.00  0.00    +0.000 S 
BRANCH   6   9
ATOM      9  C   UNL     1       5.186   2.585  11.959  0.00  0.00    +0.000 C 
ATOM     10  C   UNL     1       4.234   3.414  11.098  0.00  0.00    +0.000 C 
ATOM     11  C   UNL     1       6.059   1.679  11.091  0.00  0.00    +0.000 C 
ENDBRANCH   6   9
ENDBRANCH   2   4
BRANCH   1  12
ATOM     12  C   UNL     1       5.984   4.771  18.545  0.00  0.00    +0.000 C 
BRANCH  12  13
ATOM     13  C   UNL     1       6.441   6.134  19.078  0.00  0.00    +0.000 C 
BRANCH  13  15
ATOM     14  C   UNL     1       7.875   7.551  17.948  0.00  0.00    +0.000 C 
ATOM     15  O   UNL     1       7.818   6.446  18.863  0.00  0.00    +0.000 OA
ENDBRANCH  13  15
ENDBRANCH  12  13
ENDBRANCH   1  12
BRANCH   1  16
ATOM     16  C   UNL     1       4.453   4.746  16.561  0.00  0.00    +0.000 C 
BRANCH  16  17
ATOM     17  C   UNL     1       3.424   3.943  17.322  0.00  0.00    +0.000 A 
ATOM     18  C   UNL     1       2.220   4.457  17.799  0.00  0.00    +0.000 A 
ATOM     19  C   UNL     1       1.367   3.653  18.554  0.00  0.00    +0.000 A 
ATOM     20  C   UNL     1       1.729   2.335  18.773  0.00  0.00    +0.000 A 
ATOM     21  N   UNL     1       2.853   1.779  18.280  0.00  0.00    +0.000 NA
ATOM     22  C   UNL     1       3.669   2.592  17.566  0.00  0.00    +0.000 A 
ENDBRANCH  16  17
ENDBRANCH   1  16
TORSDOF 7
ENDMDL
MODEL 6
REMARK VINA RESULT:      -6.3      2.595      4.788
REMARK  Name = 
REMARK  10 active torsions:
REMARK  status: ('A' for Active; 'I' for Inactive)
REMARK    1  A    between atoms: C_1  and  O_2
REMARK    2  A    between atoms: O_2  and  C_3
REMARK    3  A    between atoms: C_3  and  C_4
REMARK    4  A    between atoms: C_4  and  N_5
REMARK    5  A    between atoms: N_5  and  C_6
REMARK    6  A    between atoms: C_6  and  C_7
REMARK    7  A    between atoms: C_13  and  C_15
REMARK    8  A    between atoms: C_17  and  C_18
REMARK    9  A    between atoms: C_18  and  C_19
REMARK   10  A    between atoms: C_18  and  C_20
REMARK                            x       y       z     vdW  Elec       q    Type
REMARK                         _______ _______ _______ _____ _____    ______ ____
ROOT
ATOM      1  N   UNL     1       3.310   6.242  17.812  0.00  0.00    +0.000 N 
ATOM      2  C   UNL     1       4.599   6.600  17.326  0.00  0.00    +0.000 C 
ATOM      3  O   UNL     1       5.054   7.726  17.531  0.00  0.00    +0.000 OA
ENDROOT
BRANCH   2   4
ATOM      4  C   UNL     1       5.430   5.634  16.613  0.00  0.00    +0.000 A 
ATOM      5  N   UNL     1       5.392   5.372  15.326  0.00  0.00    +0.000 NA
ATOM      6  C   UNL     1       6.380   4.449  15.009  0.00  0.00    +0.000 A 
ATOM      7  C   UNL     1       7.156   4.033  16.073  0.00  0.00    +0.000 A 
ATOM      8  S   UNL     1       6.650   4.804  17.505  0.00  0.00    +0.000 S 
BRANCH   6   9
ATOM      9  C   UNL     1       6.518   3.994  13.587  0.00  0.00    +0.000 C 
ATOM     10  C   UNL     1       5.146   3.804  12.944  0.00  0.00    +0.000 C 
ATOM     11  C   UNL     1       7.373   4.966  12.774  0.00  0.00    +0.000 C 
ENDBRANCH   6   9
ENDBRANCH   2   4
BRANCH   1  12
ATOM     12  C   UNL     1       2.491   7.199  18.612  0.00  0.00    +0.000 C 
BRANCH  12  13
ATOM     13  C   UNL     1       1.814   8.334  17.835  0.00  0.00    +0.000 C 
BRANCH  13  15
ATOM     14  C   UNL     1       0.938   9.544  19.597  0.00  0.00    +0.000 C 
ATOM     15  O   UNL     1       1.830   9.610  18.475  0.00  0.00    +0.000 OA
ENDBRANCH  13  15
ENDBRANCH  12  13
ENDBRANCH   1  12
BRANCH   1  16
ATOM     16  C   UNL     1       2.748   4.896  17.656  0.00  0.00    +0.000 C 
BRANCH  16  17
ATOM     17  C   UNL     1       2.533   4.129  18.939  0.00  0.00    +0.000 A 
ATOM     18  C   UNL     1       1.315   4.050  19.613  0.00  0.00    +0.000 A 
ATOM     19  C   UNL     1       1.233   3.376  20.831  0.00  0.00    +0.000 A 
ATOM     20  C   UNL     1       2.372   2.760  21.319  0.00  0.00    +0.000 A 
ATOM     21  N   UNL     1       3.555   2.759  20.672  0.00  0.00    +0.000 NA
ATOM     22  C   UNL     1       3.605   3.438  19.501  0.00  0.00    +0.000 A 
ENDBRANCH  16  17
ENDBRANCH   1  16
TORSDOF 7
ENDMDL
MODEL 7
REMARK VINA RESULT:      -6.3      2.997      6.728
REMARK  Name = 
REMARK  10 active torsions:
REMARK  status: ('A' for Active; 'I' for Inactive)
REMARK    1  A    between atoms: C_1  and  O_2
REMARK    2  A    between atoms: O_2  and  C_3
REMARK    3  A    between atoms: C_3  and  C_4
REMARK    4  A    between atoms: C_4  and  N_5
REMARK    5  A    between atoms: N_5  and  C_6
REMARK    6  A    between atoms: C_6  and  C_7
REMARK    7  A    between atoms: C_13  and  C_15
REMARK    8  A    between atoms: C_17  and  C_18
REMARK    9  A    between atoms: C_18  and  C_19
REMARK   10  A    between atoms: C_18  and  C_20
REMARK                            x       y       z     vdW  Elec       q    Type
REMARK                         _______ _______ _______ _____ _____    ______ ____
ROOT
ATOM      1  N   UNL     1       6.378   6.135  17.864  0.00  0.00    +0.000 N 
ATOM      2  C   UNL     1       5.878   5.502  19.036  0.00  0.00    +0.000 C 
ATOM      3  O   UNL     1       6.598   5.362  20.026  0.00  0.00    +0.000 OA
ENDROOT
BRANCH   2   4
ATOM      4  C   UNL     1       4.495   5.043  19.113  0.00  0.00    +0.000 A 
ATOM      5  N   UNL     1       4.089   3.838  19.445  0.00  0.00    +0.000 NA
ATOM      6  C   UNL     1       2.702   3.804  19.474  0.00  0.00    +0.000 A 
ATOM      7  C   UNL     1       2.080   4.999  19.167  0.00  0.00    +0.000 A 
ATOM      8  S   UNL     1       3.244   6.196  18.831  0.00  0.00    +0.000 S 
BRANCH   6   9
ATOM      9  C   UNL     1       2.014   2.519  19.824  0.00  0.00    +0.000 C 
ATOM     10  C   UNL     1       1.615   2.503  21.298  0.00  0.00    +0.000 C 
ATOM     11  C   UNL     1       0.801   2.276  18.926  0.00  0.00    +0.000 C 
ENDBRANCH   6   9
ENDBRANCH   2   4
BRANCH   1  12
ATOM     12  C   UNL     1       7.766   6.679  17.810  0.00  0.00    +0.000 C 
BRANCH  12  13
ATOM     13  C   UNL     1       7.899   8.205  17.728  0.00  0.00    +0.000 C 
BRANCH  13  15
ATOM     14  C   UNL     1       8.910  10.177  18.380  0.00  0.00    +0.000 C 
ATOM     15  O   UNL     1       8.700   8.805  18.746  0.00  0.00    +0.000 OA
ENDBRANCH  13  15
ENDBRANCH  12  13
ENDBRANCH   1  12
BRANCH   1  16
ATOM     16  C   UNL     1       5.546   6.390  16.683  0.00  0.00    +0.000 C 
BRANCH  16  17
ATOM     17  C   UNL     1       5.828   5.511  15.487  0.00  0.00    +0.000 A 
ATOM     18  C   UNL     1       5.032   4.436  15.096  0.00  0.00    +0.000 A 
ATOM     19  C   UNL     1       5.415   3.639  14.018  0.00  0.00    +0.000 A 
ATOM     20  C   UNL     1       6.570   3.971  13.332  0.00  0.00    +0.000 A 
ATOM     21  N   UNL     1       7.338   5.037  13.637  0.00  0.00    +0.000 NA
ATOM     22  C   UNL     1       6.948   5.780  14.701  0.00  0.00    +0.000 A 
ENDBRANCH  16  17
ENDBRANCH   1  16
TORSDOF 7
ENDMDL
MODEL 8
REMARK VINA RESULT:      -6.2      2.071      5.118
REMARK  Name = 
REMARK  10 active torsions:
REMARK  status: ('A' for Active; 'I' for Inactive)
REMARK    1  A    between atoms: C_1  and  O_2
REMARK    2  A    between atoms: O_2  and  C_3
REMARK    3  A    between atoms: C_3  and  C_4
REMARK    4  A    between atoms: C_4  and  N_5
REMARK    5  A    between atoms: N_5  and  C_6
REMARK    6  A    between atoms: C_6  and  C_7
REMARK    7  A    between atoms: C_13  and  C_15
REMARK    8  A    between atoms: C_17  and  C_18
REMARK    9  A    between atoms: C_18  and  C_19
REMARK   10  A    between atoms: C_18  and  C_20
REMARK                            x       y       z     vdW  Elec       q    Type
REMARK                         _______ _______ _______ _____ _____    ______ ____
ROOT
ATOM      1  N   UNL     1       5.219   5.808  17.837  0.00  0.00    +0.000 N 
ATOM      2  C   UNL     1       5.412   4.628  18.608  0.00  0.00    +0.000 C 
ATOM      3  O   UNL     1       6.506   4.387  19.119  0.00  0.00    +0.000 OA
ENDROOT
BRANCH   2   4
ATOM      4  C   UNL     1       4.313   3.697  18.850  0.00  0.00    +0.000 A 
ATOM      5  N   UNL     1       3.342   3.846  19.723  0.00  0.00    +0.000 NA
ATOM      6  C   UNL     1       2.448   2.790  19.611  0.00  0.00    +0.000 A 
ATOM      7  C   UNL     1       2.761   1.858  18.640  0.00  0.00    +0.000 A 
ATOM      8  S   UNL     1       4.201   2.301  17.845  0.00  0.00    +0.000 S 
BRANCH   6   9
ATOM      9  C   UNL     1       1.258   2.746  20.521  0.00  0.00    +0.000 C 
ATOM     10  C   UNL     1       1.682   2.413  21.950  0.00  0.00    +0.000 C 
ATOM     11  C   UNL     1       0.476   4.059  20.475  0.00  0.00    +0.000 C 
ENDBRANCH   6   9
ENDBRANCH   2   4
BRANCH   1  12
ATOM     12  C   UNL     1       6.316   6.803  17.656  0.00  0.00    +0.000 C 
BRANCH  12  13
ATOM     13  C   UNL     1       7.209   6.617  16.424  0.00  0.00    +0.000 C 
BRANCH  13  15
ATOM     14  C   UNL     1       7.008   4.864  14.933  0.00  0.00    +0.000 C 
ATOM     15  O   UNL     1       7.623   5.276  16.162  0.00  0.00    +0.000 OA
ENDBRANCH  13  15
ENDBRANCH  12  13
ENDBRANCH   1  12
BRANCH   1  16
ATOM     16  C   UNL     1       3.920   6.178  17.264  0.00  0.00    +0.000 C 
BRANCH  16  17
ATOM     17  C   UNL     1       3.094   7.136  18.089  0.00  0.00    +0.000 A 
ATOM     18  C   UNL     1       2.690   6.897  19.402  0.00  0.00    +0.000 A 
ATOM     19  C   UNL     1       1.867   7.813  20.057  0.00  0.00    +0.000 A 
ATOM     20  C   UNL     1       1.507   8.969  19.388  0.00  0.00    +0.000 A 
ATOM     21  N   UNL     1       1.923   9.270  18.141  0.00  0.00    +0.000 NA
ATOM     22  C   UNL     1       2.706   8.351  17.526  0.00  0.00    +0.000 A 
ENDBRANCH  16  17
ENDBRANCH   1  16
TORSDOF 7
ENDMDL
MODEL 9
REMARK VINA RESULT:      -6.2      3.126      5.337
REMARK  Name = 
REMARK  10 active torsions:
REMARK  status: ('A' for Active; 'I' for Inactive)
REMARK    1  A    between atoms: C_1  and  O_2
REMARK    2  A    between atoms: O_2  and  C_3
REMARK    3  A    between atoms: C_3  and  C_4
REMARK    4  A    between atoms: C_4  and  N_5
REMARK    5  A    between atoms: N_5  and  C_6
REMARK    6  A    between atoms: C_6  and  C_7
REMARK    7  A    between atoms: C_13  and  C_15
REMARK    8  A    between atoms: C_17  and  C_18
REMARK    9  A    between atoms: C_18  and  C_19
REMARK   10  A    between atoms: C_18  and  C_20
REMARK                            x       y       z     vdW  Elec       q    Type
REMARK                         _______ _______ _______ _____ _____    ______ ____
ROOT
ATOM      1  N   UNL     1       4.784   5.325  16.996  0.00  0.00    +0.000 N 
ATOM      2  C   UNL     1       5.155   5.864  15.733  0.00  0.00    +0.000 C 
ATOM      3  O   UNL     1       5.074   7.075  15.522  0.00  0.00    +0.000 OA
ENDROOT
BRANCH   2   4
ATOM      4  C   UNL     1       5.681   5.009  14.673  0.00  0.00    +0.000 A 
ATOM      5  N   UNL     1       4.989   4.179  13.924  0.00  0.00    +0.000 NA
ATOM      6  C   UNL     1       5.824   3.595  12.982  0.00  0.00    +0.000 A 
ATOM      7  C   UNL     1       7.142   4.004  13.033  0.00  0.00    +0.000 A 
ATOM      8  S   UNL     1       7.355   5.142  14.283  0.00  0.00    +0.000 S 
BRANCH   6   9
ATOM      9  C   UNL     1       5.247   2.602  12.018  0.00  0.00    +0.000 C 
ATOM     10  C   UNL     1       4.182   3.256  11.140  0.00  0.00    +0.000 C 
ATOM     11  C   UNL     1       6.340   1.959  11.164  0.00  0.00    +0.000 C 
ENDBRANCH   6   9
ENDBRANCH   2   4
BRANCH   1  12
ATOM     12  C   UNL     1       4.324   6.205  18.110  0.00  0.00    +0.000 C 
BRANCH  12  13
ATOM     13  C   UNL     1       2.849   6.622  18.086  0.00  0.00    +0.000 C 
BRANCH  13  15
ATOM     14  C   UNL     1       2.002   7.577  20.012  0.00  0.00    +0.000 C 
ATOM     15  O   UNL     1       2.554   7.867  18.719  0.00  0.00    +0.000 OA
ENDBRANCH  13  15
ENDBRANCH  12  13
ENDBRANCH   1  12
BRANCH   1  16
ATOM     16  C   UNL     1       4.925   3.902  17.324  0.00  0.00    +0.000 C 
BRANCH  16  17
ATOM     17  C   UNL     1       3.786   3.299  18.111  0.00  0.00    +0.000 A 
ATOM     18  C   UNL     1       3.835   3.017  19.476  0.00  0.00    +0.000 A 
ATOM     19  C   UNL     1       2.755   2.393  20.100  0.00  0.00    +0.000 A 
ATOM     20  C   UNL     1       1.633   2.107  19.341  0.00  0.00    +0.000 A 
ATOM     21  N   UNL     1       1.518   2.417  18.034  0.00  0.00    +0.000 NA
ATOM     22  C   UNL     1       2.592   3.005  17.454  0.00  0.00    +0.000 A 
ENDBRANCH  16  17
ENDBRANCH   1  16
TORSDOF 7
ENDMDL
