MODEL 1
REMARK VINA RESULT:      -7.6      0.000      0.000
REMARK  Name = 
REMARK  6 active torsions:
REMARK  status: ('A' for Active; 'I' for Inactive)
REMARK    1  A    between atoms: C_4  and  O_5
REMARK    2  A    between atoms: C_6  and  C_7
REMARK    3  A    between atoms: C_7  and  C_8
REMARK    4  A    between atoms: C_11  and  O_12
REMARK    5  A    between atoms: O_12  and  C_13
REMARK    6  A    between atoms: C_13  and  C_14
REMARK                            x       y       z     vdW  Elec       q    Type
REMARK                         _______ _______ _______ _____ _____    ______ ____
ROOT
ATOM      1  C   UNL     1       6.350   5.687  16.864  0.00  0.00    +0.000 A 
ATOM      2  C   UNL     1       5.353   6.593  16.509  0.00  0.00    +0.000 A 
ATOM      3  C   UNL     1       4.275   6.813  17.353  0.00  0.00    +0.000 A 
ATOM      4  C   UNL     1       4.141   6.135  18.573  0.00  0.00    +0.000 A 
ATOM      5  C   UNL     1       5.153   5.249  18.952  0.00  0.00    +0.000 A 
ATOM      6  C   UNL     1       6.255   5.032  18.105  0.00  0.00    +0.000 A 
ENDROOT
BRANCH   1   7
ATOM      7  C   UNL     1       7.478   5.431  15.894  0.00  0.00    +0.000 C 
BRANCH   7  12
ATOM      8  O   UNL     1       5.508   2.813  11.891  0.00  0.00    +0.000 OA
ATOM      9  C   UNL     1       6.098   3.549  12.656  0.00  0.00    +0.000 A 
ATOM     10  N   UNL     1       7.135   4.392  12.350  0.00  0.00    +0.000 N 
ATOM     11  C   UNL     1       7.649   5.099  13.395  0.00  0.00    +0.000 A 
ATOM     12  C   UNL     1       7.059   4.874  14.571  0.00  0.00    +0.000 A 
ATOM     13  S   UNL     1       5.773   3.690  14.391  0.00  0.00    +0.000 S 
ATOM     14  H   UNL     1       7.478   4.416  11.406  0.00  0.00    +0.000 HD
BRANCH  11  15
ATOM     15  O   UNL     1       8.709   5.926  13.186  0.00  0.00    +0.000 OA
ATOM     16  H   UNL     1       8.523   6.441  12.387  0.00  0.00    +0.000 HD
ENDBRANCH  11  15
ENDBRANCH   7  12
ENDBRANCH   1   7
BRANCH   4  17
ATOM     17  O   UNL     1       3.056   6.277  19.430  0.00  0.00    +0.000 OA
BRANCH  17  18
ATOM     18  C   UNL     1       2.618   5.006  19.916  0.00  0.00    +0.000 C 
BRANCH  18  19
ATOM     19  C   UNL     1       1.324   4.405  19.350  0.00  0.00    +0.000 C 
ATOM     20  C   UNL     1       1.472   4.358  17.810  0.00  0.00    +0.000 C 
ATOM     21  C   UNL     1       2.567   3.381  17.367  0.00  0.00    +0.000 C 
ATOM     22  C   UNL     1       2.310   1.978  17.909  0.00  0.00    +0.000 C 
ATOM     23  C   UNL     1       2.015   1.943  19.411  0.00  0.00    +0.000 C 
ATOM     24  C   UNL     1       1.000   2.997  19.859  0.00  0.00    +0.000 C 
ENDBRANCH  18  19
ENDBRANCH  17  18
ENDBRANCH   4  17
TORSDOF 6
ENDMDL
MODEL 2
REMARK VINA RESULT:      -7.4      5.526      7.674
REMARK  Name = 
REMARK  6 active torsions:
REMARK  status: ('A' for Active; 'I' for Inactive)
REMARK    1  A    between atoms: C_4  and  O_5
REMARK    2  A    between atoms: C_6  and  C_7
REMARK    3  A    between atoms: C_7  and  C_8
REMARK    4  A    between atoms: C_11  and  O_12
REMARK    5  A    between atoms: O_12  and  C_13
REMARK    6  A    between atoms: C_13  and  C_14
REMARK                            x       y       z     vdW  Elec       q    Type
REMARK                         _______ _______ _______ _____ _____    ______ ____
ROOT
ATOM      1  C   UNL     1       1.167   9.286  19.413  0.00  0.00    +0.000 A 
ATOM      2  C   UNL     1       1.442   8.207  20.250  0.00  0.00    +0.000 A 
ATOM      3  C   UNL     1       2.260   7.176  19.815  0.00  0.00    +0.000 A 
ATOM      4  C   UNL     1       2.824   7.170  18.532  0.00  0.00    +0.000 A 
ATOM      5  C   UNL     1       2.580   8.265  17.698  0.00  0.00    +0.000 A 
ATOM      6  C   UNL     1       1.762   9.320  18.140  0.00  0.00    +0.000 A 
ENDROOT
BRANCH   1   7
ATOM      7  C   UNL     1       0.226  10.362  19.900  0.00  0.00    +0.000 C 
BRANCH   7  12
ATOM      8  O   UNL     1      -3.193  11.266  16.126  0.00  0.00    +0.000 OA
ATOM      9  C   UNL     1      -2.348  11.297  16.997  0.00  0.00    +0.000 A 
ATOM     10  N   UNL     1      -1.541  12.357  17.322  0.00  0.00    +0.000 N 
ATOM     11  C   UNL     1      -0.649  12.135  18.327  0.00  0.00    +0.000 A 
ATOM     12  C   UNL     1      -0.697  10.912  18.860  0.00  0.00    +0.000 A 
ATOM     13  S   UNL     1      -1.927   9.946  18.060  0.00  0.00    +0.000 S 
ATOM     14  H   UNL     1      -1.621  13.207  16.791  0.00  0.00    +0.000 HD
BRANCH  11  15
ATOM     15  O   UNL     1       0.219  13.121  18.682  0.00  0.00    +0.000 OA
ATOM     16  H   UNL     1       0.550  12.912  19.567  0.00  0.00    +0.000 HD
ENDBRANCH  11  15
ENDBRANCH   7  12
ENDBRANCH   1   7
BRANCH   4  17
ATOM     17  O   UNL     1       3.606   6.138  18.026  0.00  0.00    +0.000 OA
BRANCH  17  18
ATOM     18  C   UNL     1       3.943   5.202  19.051  0.00  0.00    +0.000 C 
BRANCH  18  19
ATOM     19  C   UNL     1       3.737   3.705  18.783  0.00  0.00    +0.000 C 
ATOM     20  C   UNL     1       3.425   3.032  20.141  0.00  0.00    +0.000 C 
ATOM     21  C   UNL     1       2.085   3.500  20.721  0.00  0.00    +0.000 C 
ATOM     22  C   UNL     1       0.941   3.251  19.742  0.00  0.00    +0.000 C 
ATOM     23  C   UNL     1       1.220   3.765  18.327  0.00  0.00    +0.000 C 
ATOM     24  C   UNL     1       2.606   3.384  17.801  0.00  0.00    +0.000 C 
ENDBRANCH  18  19
ENDBRANCH  17  18
ENDBRANCH   4  17
TORSDOF 6
ENDMDL
MODEL 3
REMARK VINA RESULT:      -7.3      5.568      7.654
REMARK  Name = 
REMARK  6 active torsions:
REMARK  status: ('A' for Active; 'I' for Inactive)
REMARK    1  A    between atoms: C_4  and  O_5
REMARK    2  A    between atoms: C_6  and  C_7
REMARK    3  A    between atoms: C_7  and  C_8
REMARK    4  A    between atoms: C_11  and  O_12
REMARK    5  A    between atoms: O_12  and  C_13
REMARK    6  A    between atoms: C_13  and  C_14
REMARK                            x       y       z     vdW  Elec       q    Type
REMARK                         _______ _______ _______ _____ _____    ______ ____
ROOT
ATOM      1  C   UNL     1       1.195   9.406  19.524  0.00  0.00    +0.000 A 
ATOM      2  C   UNL     1       1.791   9.311  18.267  0.00  0.00    +0.000 A 
ATOM      3  C   UNL     1       2.512   8.179  17.919  0.00  0.00    +0.000 A 
ATOM      4  C   UNL     1       2.678   7.106  18.806  0.00  0.00    +0.000 A 
ATOM      5  C   UNL     1       2.057   7.179  20.055  0.00  0.00    +0.000 A 
ATOM      6  C   UNL     1       1.313   8.320  20.408  0.00  0.00    +0.000 A 
ENDROOT
BRANCH   1   7
ATOM      7  C   UNL     1       0.467  10.677  19.889  0.00  0.00    +0.000 C 
BRANCH   7  12
ATOM      8  O   UNL     1      -3.232  11.245  16.317  0.00  0.00    +0.000 OA
ATOM      9  C   UNL     1      -2.331  11.355  17.125  0.00  0.00    +0.000 A 
ATOM     10  N   UNL     1      -1.549  12.461  17.338  0.00  0.00    +0.000 N 
ATOM     11  C   UNL     1      -0.583  12.327  18.289  0.00  0.00    +0.000 A 
ATOM     12  C   UNL     1      -0.545  11.134  18.887  0.00  0.00    +0.000 A 
ATOM     13  S   UNL     1      -1.785  10.081  18.226  0.00  0.00    +0.000 S 
ATOM     14  H   UNL     1      -1.698  13.276  16.770  0.00  0.00    +0.000 HD
BRANCH  11  15
ATOM     15  O   UNL     1       0.266  13.363  18.531  0.00  0.00    +0.000 OA
ATOM     16  H   UNL     1       1.050  13.000  18.967  0.00  0.00    +0.000 HD
ENDBRANCH  11  15
ENDBRANCH   7  12
ENDBRANCH   1   7
BRANCH   4  17
ATOM     17  O   UNL     1       3.435   5.973  18.528  0.00  0.00    +0.000 OA
BRANCH  17  18
ATOM     18  C   UNL     1       3.607   5.174  19.700  0.00  0.00    +0.000 C 
BRANCH  18  19
ATOM     19  C   UNL     1       3.567   3.646  19.566  0.00  0.00    +0.000 C 
ATOM     20  C   UNL     1       2.817   3.095  20.803  0.00  0.00    +0.000 C 
ATOM     21  C   UNL     1       1.342   3.512  20.814  0.00  0.00    +0.000 C 
ATOM     22  C   UNL     1       0.632   3.074  19.537  0.00  0.00    +0.000 C 
ATOM     23  C   UNL     1       1.378   3.459  18.256  0.00  0.00    +0.000 C 
ATOM     24  C   UNL     1       2.873   3.136  18.299  0.00  0.00    +0.000 C 
ENDBRANCH  18  19
ENDBRANCH  17  18
ENDBRANCH   4  17
TORSDOF 6
ENDMDL
MODEL 4
REMARK VINA RESULT:      -7.3      0.758      1.263
REMARK  Name = 
REMARK  6 active torsions:
REMARK  status: ('A' for Active; 'I' for Inactive)
REMARK    1  A    between atoms: C_4  and  O_5
REMARK    2  A    between atoms: C_6  and  C_7
REMARK    3  A    between atoms: C_7  and  C_8
REMARK    4  A    between atoms: C_11  and  O_12
REMARK    5  A    between atoms: O_12  and  C_13
REMARK    6  A    between atoms: C_13  and  C_14
REMARK                            x       y       z     vdW  Elec       q    Type
REMARK                         _______ _______ _______ _____ _____    ______ ____
ROOT
ATOM      1  C   UNL     1       6.299   5.559  16.921  0.00  0.00    +0.000 A 
ATOM      2  C   UNL     1       6.570   4.855  18.093  0.00  0.00    +0.000 A 
ATOM      3  C   UNL     1       5.633   4.809  19.113  0.00  0.00    +0.000 A 
ATOM      4  C   UNL     1       4.399   5.469  19.015  0.00  0.00    +0.000 A 
ATOM      5  C   UNL     1       4.106   6.150  17.831  0.00  0.00    +0.000 A 
ATOM      6  C   UNL     1       5.048   6.187  16.786  0.00  0.00    +0.000 A 
ENDROOT
BRANCH   1   7
ATOM      7  C   UNL     1       7.366   5.634  15.855  0.00  0.00    +0.000 C 
BRANCH   7  12
ATOM      8  O   UNL     1       5.578   2.746  11.953  0.00  0.00    +0.000 OA
ATOM      9  C   UNL     1       6.133   3.534  12.693  0.00  0.00    +0.000 A 
ATOM     10  N   UNL     1       7.180   4.360  12.377  0.00  0.00    +0.000 N 
ATOM     11  C   UNL     1       7.647   5.138  13.394  0.00  0.00    +0.000 A 
ATOM     12  C   UNL     1       7.006   4.989  14.555  0.00  0.00    +0.000 A 
ATOM     13  S   UNL     1       5.732   3.788  14.399  0.00  0.00    +0.000 S 
ATOM     14  H   UNL     1       7.564   4.323  11.449  0.00  0.00    +0.000 HD
BRANCH  11  15
ATOM     15  O   UNL     1       8.713   5.955  13.176  0.00  0.00    +0.000 OA
ATOM     16  H   UNL     1       8.436   6.858  13.390  0.00  0.00    +0.000 HD
ENDBRANCH  11  15
ENDBRANCH   7  12
ENDBRANCH   1   7
BRANCH   4  17
ATOM     17  O   UNL     1       3.447   5.501  20.028  0.00  0.00    +0.000 OA
BRANCH  17  18
ATOM     18  C   UNL     1       2.131   5.342  19.497  0.00  0.00    +0.000 C 
BRANCH  18  19
ATOM     19  C   UNL     1       1.324   4.094  19.884  0.00  0.00    +0.000 C 
ATOM     20  C   UNL     1       0.988   3.340  18.574  0.00  0.00    +0.000 C 
ATOM     21  C   UNL     1       2.244   2.782  17.894  0.00  0.00    +0.000 C 
ATOM     22  C   UNL     1       3.025   1.870  18.835  0.00  0.00    +0.000 C 
ATOM     23  C   UNL     1       3.285   2.486  20.213  0.00  0.00    +0.000 C 
ATOM     24  C   UNL     1       2.048   3.137  20.835  0.00  0.00    +0.000 C 
ENDBRANCH  18  19
ENDBRANCH  17  18
ENDBRANCH   4  17
TORSDOF 6
ENDMDL
MODEL 5
REMARK VINA RESULT:      -7.3      5.834      7.870
REMARK  Name = 
REMARK  6 active torsions:
REMARK  status: ('A' for Active; 'I' for Inactive)
REMARK    1  A    between atoms: C_4  and  O_5
REMARK    2  A    between atoms: C_6  and  C_7
REMARK    3  A    between atoms: C_7  and  C_8
REMARK    4  A    between atoms: C_11  and  O_12
REMARK    5  A    between atoms: O_12  and  C_13
REMARK    6  A    between atoms: C_13  and  C_14
REMARK                            x       y       z     vdW  Elec       q    Type
REMARK                         _______ _______ _______ _____ _____    ______ ____
ROOT
ATOM      1  C   UNL     1       0.426   9.714  19.307  0.00  0.00    +0.000 A 
ATOM      2  C   UNL     1       0.825   8.926  20.385  0.00  0.00    +0.000 A 
ATOM      3  C   UNL     1       1.792   7.947  20.215  0.00  0.00    +0.000 A 
ATOM      4  C   UNL     1       2.390   7.705  18.970  0.00  0.00    +0.000 A 
ATOM      5  C   UNL     1       2.019   8.513  17.892  0.00  0.00    +0.000 A 
ATOM      6  C   UNL     1       1.048   9.517  18.062  0.00  0.00    +0.000 A 
ENDROOT
BRANCH   1   7
ATOM      7  C   UNL     1      -0.670  10.731  19.516  0.00  0.00    +0.000 C 
BRANCH   7  12
ATOM      8  O   UNL     1      -3.959  10.408  15.537  0.00  0.00    +0.000 OA
ATOM      9  C   UNL     1      -3.158  10.718  16.396  0.00  0.00    +0.000 A 
ATOM     10  N   UNL     1      -2.434  11.880  16.464  0.00  0.00    +0.000 N 
ATOM     11  C   UNL     1      -1.578  11.983  17.519  0.00  0.00    +0.000 A 
ATOM     12  C   UNL     1      -1.576  10.933  18.344  0.00  0.00    +0.000 A 
ATOM     13  S   UNL     1      -2.705   9.711  17.780  0.00  0.00    +0.000 S 
ATOM     14  H   UNL     1      -2.541  12.561  15.732  0.00  0.00    +0.000 HD
BRANCH  11  15
ATOM     15  O   UNL     1      -0.790  13.086  17.636  0.00  0.00    +0.000 OA
ATOM     16  H   UNL     1      -0.206  13.109  16.865  0.00  0.00    +0.000 HD
ENDBRANCH  11  15
ENDBRANCH   7  12
ENDBRANCH   1   7
BRANCH   4  17
ATOM     17  O   UNL     1       3.323   6.703  18.733  0.00  0.00    +0.000 OA
BRANCH  17  18
ATOM     18  C   UNL     1       2.716   5.411  18.809  0.00  0.00    +0.000 C 
BRANCH  18  19
ATOM     19  C   UNL     1       3.017   4.525  20.026  0.00  0.00    +0.000 C 
ATOM     20  C   UNL     1       1.660   4.162  20.677  0.00  0.00    +0.000 C 
ATOM     21  C   UNL     1       0.803   3.275  19.766  0.00  0.00    +0.000 C 
ATOM     22  C   UNL     1       1.548   2.004  19.371  0.00  0.00    +0.000 C 
ATOM     23  C   UNL     1       2.961   2.258  18.841  0.00  0.00    +0.000 C 
ATOM     24  C   UNL     1       3.771   3.232  19.701  0.00  0.00    +0.000 C 
ENDBRANCH  18  19
ENDBRANCH  17  18
ENDBRANCH   4  17
TORSDOF 6
ENDMDL
MODEL 6
REMARK VINA RESULT:      -7.2      3.972      5.569
REMARK  Name = 
REMARK  6 active torsions:
REMARK  status: ('A' for Active; 'I' for Inactive)
REMARK    1  A    between atoms: C_4  and  O_5
REMARK    2  A    between atoms: C_6  and  C_7
REMARK    3  A    between atoms: C_7  and  C_8
REMARK    4  A    between atoms: C_11  and  O_12
REMARK    5  A    between atoms: O_12  and  C_13
REMARK    6  A    between atoms: C_13  and  C_14
REMARK                            x       y       z     vdW  Elec       q    Type
REMARK                         _______ _______ _______ _____ _____    ______ ____
ROOT
ATOM      1  C   UNL     1       3.245   5.029  18.266  0.00  0.00    +0.000 A 
ATOM      2  C   UNL     1       2.716   4.636  19.493  0.00  0.00    +0.000 A 
ATOM      3  C   UNL     1       2.137   5.572  20.337  0.00  0.00    +0.000 A 
ATOM      4  C   UNL     1       2.072   6.931  20.001  0.00  0.00    +0.000 A 
ATOM      5  C   UNL     1       2.571   7.329  18.757  0.00  0.00    +0.000 A 
ATOM      6  C   UNL     1       3.147   6.381  17.892  0.00  0.00    +0.000 A 
ENDROOT
BRANCH   1   7
ATOM      7  C   UNL     1       3.919   3.992  17.399  0.00  0.00    +0.000 C 
BRANCH   7  12
ATOM      8  O   UNL     1       7.858   5.375  14.345  0.00  0.00    +0.000 OA
ATOM      9  C   UNL     1       7.101   5.067  15.244  0.00  0.00    +0.000 A 
ATOM     10  N   UNL     1       7.438   4.791  16.544  0.00  0.00    +0.000 N 
ATOM     11  C   UNL     1       6.404   4.443  17.361  0.00  0.00    +0.000 A 
ATOM     12  C   UNL     1       5.205   4.431  16.775  0.00  0.00    +0.000 A 
ATOM     13  S   UNL     1       5.350   4.870  15.080  0.00  0.00    +0.000 S 
ATOM     14  H   UNL     1       8.406   4.821  16.810  0.00  0.00    +0.000 HD
BRANCH  11  15
ATOM     15  O   UNL     1       6.658   4.111  18.656  0.00  0.00    +0.000 OA
ATOM     16  H   UNL     1       5.850   4.278  19.162  0.00  0.00    +0.000 HD
ENDBRANCH  11  15
ENDBRANCH   7  12
ENDBRANCH   1   7
BRANCH   4  17
ATOM     17  O   UNL     1       1.552   7.918  20.831  0.00  0.00    +0.000 OA
BRANCH  17  18
ATOM     18  C   UNL     1       1.112   9.045  20.071  0.00  0.00    +0.000 C 
BRANCH  18  19
ATOM     19  C   UNL     1      -0.231   9.697  20.428  0.00  0.00    +0.000 C 
ATOM     20  C   UNL     1       0.056  10.798  21.477  0.00  0.00    +0.000 C 
ATOM     21  C   UNL     1       0.890  11.945  20.893  0.00  0.00    +0.000 C 
ATOM     22  C   UNL     1       0.213  12.555  19.670  0.00  0.00    +0.000 C 
ATOM     23  C   UNL     1      -0.232  11.520  18.633  0.00  0.00    +0.000 C 
ATOM     24  C   UNL     1      -0.969  10.324  19.241  0.00  0.00    +0.000 C 
ENDBRANCH  18  19
ENDBRANCH  17  18
ENDBRANCH   4  17
TORSDOF 6
ENDMDL
MODEL 7
REMARK VINA RESULT:      -7.1      5.699      7.700
REMARK  Name = 
REMARK  6 active torsions:
REMARK  status: ('A' for Active; 'I' for Inactive)
REMARK    1  A    between atoms: C_4  and  O_5
REMARK    2  A    between atoms: C_6  and  C_7
REMARK    3  A    between atoms: C_7  and  C_8
REMARK    4  A    between atoms: C_11  and  O_12
REMARK    5  A    between atoms: O_12  and  C_13
REMARK    6  A    between atoms: C_13  and  C_14
REMARK                            x       y       z     vdW  Elec       q    Type
REMARK                         _______ _______ _______ _____ _____    ______ ____
ROOT
ATOM      1  C   UNL     1       2.231   7.719  19.032  0.00  0.00    +0.000 A 
ATOM      2  C   UNL     1       2.013   8.499  17.898  0.00  0.00    +0.000 A 
ATOM      3  C   UNL     1       1.179   9.604  17.960  0.00  0.00    +0.000 A 
ATOM      4  C   UNL     1       0.523   9.971  19.144  0.00  0.00    +0.000 A 
ATOM      5  C   UNL     1       0.763   9.214  20.294  0.00  0.00    +0.000 A 
ATOM      6  C   UNL     1       1.619   8.098  20.239  0.00  0.00    +0.000 A 
ENDROOT
BRANCH   1   7
ATOM      7  C   UNL     1       3.100   6.489  18.912  0.00  0.00    +0.000 C 
BRANCH   7  12
ATOM      8  O   UNL     1       0.304   2.156  18.507  0.00  0.00    +0.000 OA
ATOM      9  C   UNL     1       0.981   3.108  18.840  0.00  0.00    +0.000 A 
ATOM     10  N   UNL     1       1.324   3.465  20.118  0.00  0.00    +0.000 N 
ATOM     11  C   UNL     1       2.076   4.596  20.234  0.00  0.00    +0.000 A 
ATOM     12  C   UNL     1       2.379   5.189  19.078  0.00  0.00    +0.000 A 
ATOM     13  S   UNL     1       1.679   4.301  17.734  0.00  0.00    +0.000 S 
ATOM     14  H   UNL     1       0.982   2.913  20.884  0.00  0.00    +0.000 HD
BRANCH  11  15
ATOM     15  O   UNL     1       2.423   5.044  21.471  0.00  0.00    +0.000 OA
ATOM     16  H   UNL     1       3.273   4.641  21.699  0.00  0.00    +0.000 HD
ENDBRANCH  11  15
ENDBRANCH   7  12
ENDBRANCH   1   7
BRANCH   4  17
ATOM     17  O   UNL     1      -0.364  11.036  19.249  0.00  0.00    +0.000 OA
BRANCH  17  18
ATOM     18  C   UNL     1      -1.190  11.129  18.087  0.00  0.00    +0.000 C 
BRANCH  18  19
ATOM     19  C   UNL     1      -2.144   9.970  17.763  0.00  0.00    +0.000 C 
ATOM     20  C   UNL     1      -3.544  10.365  18.292  0.00  0.00    +0.000 C 
ATOM     21  C   UNL     1      -4.130  11.560  17.531  0.00  0.00    +0.000 C 
ATOM     22  C   UNL     1      -4.198  11.283  16.032  0.00  0.00    +0.000 C 
ATOM     23  C   UNL     1      -2.887  10.753  15.444  0.00  0.00    +0.000 C 
ATOM     24  C   UNL     1      -2.255   9.633  16.273  0.00  0.00    +0.000 C 
ENDBRANCH  18  19
ENDBRANCH  17  18
ENDBRANCH   4  17
TORSDOF 6
ENDMDL
MODEL 8
REMARK VINA RESULT:      -7.1      6.142      8.376
REMARK  Name = 
REMARK  6 active torsions:
REMARK  status: ('A' for Active; 'I' for Inactive)
REMARK    1  A    between atoms: C_4  and  O_5
REMARK    2  A    between atoms: C_6  and  C_7
REMARK    3  A    between atoms: C_7  and  C_8
REMARK    4  A    between atoms: C_11  and  O_12
REMARK    5  A    between atoms: O_12  and  C_13
REMARK    6  A    between atoms: C_13  and  C_14
REMARK                            x       y       z     vdW  Elec       q    Type
REMARK                         _______ _______ _______ _____ _____    ______ ____
ROOT
ATOM      1  C   UNL     1       0.368   9.743  19.503  0.00  0.00    +0.000 A 
ATOM      2  C   UNL     1       0.811   8.956  20.564  0.00  0.00    +0.000 A 
ATOM      3  C   UNL     1       1.752   7.961  20.351  0.00  0.00    +0.000 A 
ATOM      4  C   UNL     1       2.278   7.700  19.077  0.00  0.00    +0.000 A 
ATOM      5  C   UNL     1       1.863   8.506  18.014  0.00  0.00    +0.000 A 
ATOM      6  C   UNL     1       0.919   9.527  18.228  0.00  0.00    +0.000 A 
ENDROOT
BRANCH   1   7
ATOM      7  C   UNL     1      -0.699  10.780  19.763  0.00  0.00    +0.000 C 
BRANCH   7  12
ATOM      8  O   UNL     1       0.915  15.690  19.548  0.00  0.00    +0.000 OA
ATOM      9  C   UNL     1       0.456  14.579  19.368  0.00  0.00    +0.000 A 
ATOM     10  N   UNL     1      -0.316  14.171  18.312  0.00  0.00    +0.000 N 
ATOM     11  C   UNL     1      -0.732  12.874  18.350  0.00  0.00    +0.000 A 
ATOM     12  C   UNL     1      -0.315  12.182  19.413  0.00  0.00    +0.000 A 
ATOM     13  S   UNL     1       0.656  13.202  20.462  0.00  0.00    +0.000 S 
ATOM     14  H   UNL     1      -0.561  14.840  17.603  0.00  0.00    +0.000 HD
BRANCH  11  15
ATOM     15  O   UNL     1      -1.538  12.400  17.362  0.00  0.00    +0.000 OA
ATOM     16  H   UNL     1      -1.463  11.435  17.362  0.00  0.00    +0.000 HD
ENDBRANCH  11  15
ENDBRANCH   7  12
ENDBRANCH   1   7
BRANCH   4  17
ATOM     17  O   UNL     1       3.181   6.681  18.798  0.00  0.00    +0.000 OA
BRANCH  17  18
ATOM     18  C   UNL     1       2.844   5.490  19.512  0.00  0.00    +0.000 C 
BRANCH  18  19
ATOM     19  C   UNL     1       1.541   4.759  19.158  0.00  0.00    +0.000 C 
ATOM     20  C   UNL     1       1.599   4.422  17.648  0.00  0.00    +0.000 C 
ATOM     21  C   UNL     1       2.701   3.406  17.327  0.00  0.00    +0.000 C 
ATOM     22  C   UNL     1       2.529   2.127  18.141  0.00  0.00    +0.000 C 
ATOM     23  C   UNL     1       2.326   2.372  19.638  0.00  0.00    +0.000 C 
ATOM     24  C   UNL     1       1.301   3.467  19.944  0.00  0.00    +0.000 C 
ENDBRANCH  18  19
ENDBRANCH  17  18
ENDBRANCH   4  17
TORSDOF 6
ENDMDL
MODEL 9
REMARK VINA RESULT:      -7.0      5.658      8.008
REMARK  Name = 
REMARK  6 active torsions:
REMARK  status: ('A' for Active; 'I' for Inactive)
REMARK    1  A    between atoms: C_4  and  O_5
REMARK    2  A    between atoms: C_6  and  C_7
REMARK    3  A    between atoms: C_7  and  C_8
REMARK    4  A    between atoms: C_11  and  O_12
REMARK    5  A    between atoms: O_12  and  C_13
REMARK    6  A    between atoms: C_13  and  C_14
REMARK                            x       y       z     vdW  Elec       q    Type
REMARK                         _______ _______ _______ _____ _____    ______ ____
ROOT
ATOM      1  C   UNL     1       1.117   9.120  19.536  0.00  0.00    +0.000 A 
ATOM      2  C   UNL     1       1.531   8.008  20.266  0.00  0.00    +0.000 A 
ATOM      3  C   UNL     1       2.394   7.082  19.700  0.00  0.00    +0.000 A 
ATOM      4  C   UNL     1       2.869   7.218  18.388  0.00  0.00    +0.000 A 
ATOM      5  C   UNL     1       2.485   8.348  17.661  0.00  0.00    +0.000 A 
ATOM      6  C   UNL     1       1.620   9.297  18.235  0.00  0.00    +0.000 A 
ENDROOT
BRANCH   1   7
ATOM      7  C   UNL     1       0.131  10.076  20.164  0.00  0.00    +0.000 C 
BRANCH   7  12
ATOM      8  O   UNL     1      -0.192  14.907  18.341  0.00  0.00    +0.000 OA
ATOM      9  C   UNL     1      -0.254  13.716  18.571  0.00  0.00    +0.000 A 
ATOM     10  N   UNL     1      -1.040  12.794  17.929  0.00  0.00    +0.000 N 
ATOM     11  C   UNL     1      -0.948  11.515  18.390  0.00  0.00    +0.000 A 
ATOM     12  C   UNL     1      -0.094  11.343  19.401  0.00  0.00    +0.000 A 
ATOM     13  S   UNL     1       0.654  12.872  19.835  0.00  0.00    +0.000 S 
ATOM     14  H   UNL     1      -1.654  13.107  17.197  0.00  0.00    +0.000 HD
BRANCH  11  15
ATOM     15  O   UNL     1      -1.727  10.547  17.836  0.00  0.00    +0.000 OA
ATOM     16  H   UNL     1      -2.318  10.218  18.528  0.00  0.00    +0.000 HD
ENDBRANCH  11  15
ENDBRANCH   7  12
ENDBRANCH   1   7
BRANCH   4  17
ATOM     17  O   UNL     1       3.691   6.294  17.755  0.00  0.00    +0.000 OA
BRANCH  17  18
ATOM     18  C   UNL     1       4.081   5.255  18.655  0.00  0.00    +0.000 C 
BRANCH  18  19
ATOM     19  C   UNL     1       3.854   3.795  18.241  0.00  0.00    +0.000 C 
ATOM     20  C   UNL     1       3.721   2.963  19.540  0.00  0.00    +0.000 C 
ATOM     21  C   UNL     1       2.460   3.331  20.331  0.00  0.00    +0.000 C 
ATOM     22  C   UNL     1       1.205   3.172  19.478  0.00  0.00    +0.000 C 
ATOM     23  C   UNL     1       1.300   3.850  18.109  0.00  0.00    +0.000 C 
ATOM     24  C   UNL     1       2.612   3.563  17.375  0.00  0.00    +0.000 C 
ENDBRANCH  18  19
ENDBRANCH  17  18
ENDBRANCH   4  17
TORSDOF 6
ENDMDL
