MODEL 1
REMARK VINA RESULT:      -8.2      0.000      0.000
REMARK  Name = 
REMARK  9 active torsions:
REMARK  status: ('A' for Active; 'I' for Inactive)
REMARK    1  A    between atoms: C_1  and  C_2
REMARK    2  A    between atoms: C_2  and  C_3
REMARK    3  A    between atoms: C_2  and  N_4
REMARK    4  A    between atoms: N_7  and  C_8
REMARK    5  A    between atoms: C_10  and  C_11
REMARK    6  A    between atoms: C_11  and  C_12
REMARK    7  A    between atoms: C_14  and  C_15
REMARK    8  A    between atoms: C_23  and  C_24
REMARK    9  A    between atoms: C_23  and  C_25
REMARK                            x       y       z     vdW  Elec       q    Type
REMARK                         _______ _______ _______ _____ _____    ______ ____
ROOT
ATOM      1  C   UNL     1       6.464   5.272  16.308  0.00  0.00    +0.000 C 
ATOM      2  C   UNL     1       5.739   6.629  16.158  0.00  0.00    +0.000 C 
ATOM      3  C   UNL     1       5.077   6.451  17.549  0.00  0.00    +0.000 C 
ATOM      4  C   UNL     1       6.101   5.288  17.833  0.00  0.00    +0.000 C 
ATOM      5  C   UNL     1       7.294   5.810  18.663  0.00  0.00    +0.000 C 
ATOM      6  C   UNL     1       5.552   4.026  18.491  0.00  0.00    +0.000 C 
ENDROOT
BRANCH   1  10
ATOM      7  N   UNL     1       5.415   3.272  13.382  0.00  0.00    +0.000 N 
ATOM      8  C   UNL     1       6.191   4.170  14.082  0.00  0.00    +0.000 C 
ATOM      9  O   UNL     1       7.080   4.843  13.571  0.00  0.00    +0.000 OA
ATOM     10  N   UNL     1       5.890   4.208  15.427  0.00  0.00    +0.000 N 
ATOM     11  H   UNL     1       4.557   2.950  13.805  0.00  0.00    +0.000 HD
ATOM     12  H   UNL     1       4.962   3.876  15.643  0.00  0.00    +0.000 HD
BRANCH   7  14
ATOM     13  C   UNL     1       6.127   1.735  11.592  0.00  0.00    +0.000 C 
ATOM     14  C   UNL     1       5.556   3.111  11.933  0.00  0.00    +0.000 C 
ATOM     15  C   UNL     1       4.226   3.318  11.206  0.00  0.00    +0.000 C 
ENDBRANCH   7  14
ENDBRANCH   1  10
BRANCH   3  16
ATOM     16  C   UNL     1       3.566   6.185  17.574  0.00  0.00    +0.000 C 
BRANCH  16  17
ATOM     17  C   UNL     1       2.828   7.318  18.212  0.00  0.00    +0.000 A 
ATOM     18  C   UNL     1       2.292   7.362  19.514  0.00  0.00    +0.000 A 
ATOM     19  C   UNL     1       1.639   8.568  19.598  0.00  0.00    +0.000 A 
ATOM     20  O   UNL     1       1.816   9.236  18.422  0.00  0.00    +0.000 OA
ATOM     21  N   UNL     1       2.569   8.455  17.549  0.00  0.00    +0.000 NA
BRANCH  19  22
ATOM     22  C   UNL     1       0.826   9.199  20.632  0.00  0.00    +0.000 A 
ATOM     23  C   UNL     1       0.014  10.295  20.300  0.00  0.00    +0.000 A 
ATOM     24  C   UNL     1      -0.711  10.980  21.279  0.00  0.00    +0.000 A 
ATOM     25  C   UNL     1      -0.638  10.572  22.607  0.00  0.00    +0.000 A 
ATOM     26  C   UNL     1       0.145   9.470  22.951  0.00  0.00    +0.000 A 
ATOM     27  C   UNL     1       0.869   8.783  21.970  0.00  0.00    +0.000 A 
ENDBRANCH  19  22
ENDBRANCH  16  17
ENDBRANCH   3  16
TORSDOF 5
ENDMDL
MODEL 2
REMARK VINA RESULT:      -8.0      1.325      1.896
REMARK  Name = 
REMARK  9 active torsions:
REMARK  status: ('A' for Active; 'I' for Inactive)
REMARK    1  A    between atoms: C_1  and  C_2
REMARK    2  A    between atoms: C_2  and  C_3
REMARK    3  A    between atoms: C_2  and  N_4
REMARK    4  A    between atoms: N_7  and  C_8
REMARK    5  A    between atoms: C_10  and  C_11
REMARK    6  A    between atoms: C_11  and  C_12
REMARK    7  A    between atoms: C_14  and  C_15
REMARK    8  A    between atoms: C_23  and  C_24
REMARK    9  A    between atoms: C_23  and  C_25
REMARK                            x       y       z     vdW  Elec       q    Type
REMARK                         _______ _______ _______ _____ _____    ______ ____
ROOT
ATOM      1  C   UNL     1       4.765   4.847  17.472  0.00  0.00    +0.000 C 
ATOM      2  C   UNL     1       5.222   6.302  17.724  0.00  0.00    +0.000 C 
ATOM      3  C   UNL     1       3.808   6.678  18.237  0.00  0.00    +0.000 C 
ATOM      4  C   UNL     1       3.487   5.139  18.332  0.00  0.00    +0.000 C 
ATOM      5  C   UNL     1       3.685   4.633  19.777  0.00  0.00    +0.000 C 
ATOM      6  C   UNL     1       2.120   4.684  17.830  0.00  0.00    +0.000 C 
ENDROOT
BRANCH   1  10
ATOM      7  N   UNL     1       5.441   4.045  13.928  0.00  0.00    +0.000 N 
ATOM      8  C   UNL     1       5.692   4.078  15.282  0.00  0.00    +0.000 C 
ATOM      9  O   UNL     1       6.747   3.713  15.787  0.00  0.00    +0.000 OA
ATOM     10  N   UNL     1       4.616   4.529  16.018  0.00  0.00    +0.000 N 
ATOM     11  H   UNL     1       4.666   4.585  13.571  0.00  0.00    +0.000 HD
ATOM     12  H   UNL     1       3.967   5.088  15.484  0.00  0.00    +0.000 HD
BRANCH   7  14
ATOM     13  C   UNL     1       5.852   2.857  11.808  0.00  0.00    +0.000 C 
ATOM     14  C   UNL     1       6.471   3.630  12.973  0.00  0.00    +0.000 C 
ATOM     15  C   UNL     1       7.268   4.823  12.441  0.00  0.00    +0.000 C 
ENDBRANCH   7  14
ENDBRANCH   1  10
BRANCH   3  16
ATOM     16  C   UNL     1       2.964   7.599  17.347  0.00  0.00    +0.000 C 
BRANCH  16  17
ATOM     17  C   UNL     1       2.203   8.593  18.165  0.00  0.00    +0.000 A 
ATOM     18  C   UNL     1       1.696   8.416  19.468  0.00  0.00    +0.000 A 
ATOM     19  C   UNL     1       1.005   9.570  19.748  0.00  0.00    +0.000 A 
ATOM     20  O   UNL     1       1.132  10.417  18.686  0.00  0.00    +0.000 OA
ATOM     21  N   UNL     1       1.890   9.808  17.690  0.00  0.00    +0.000 NA
BRANCH  19  22
ATOM     22  C   UNL     1       0.196  10.004  20.882  0.00  0.00    +0.000 A 
ATOM     23  C   UNL     1      -0.472  11.238  20.823  0.00  0.00    +0.000 A 
ATOM     24  C   UNL     1      -1.184  11.726  21.920  0.00  0.00    +0.000 A 
ATOM     25  C   UNL     1      -1.244  10.983  23.095  0.00  0.00    +0.000 A 
ATOM     26  C   UNL     1      -0.606   9.745  23.164  0.00  0.00    +0.000 A 
ATOM     27  C   UNL     1       0.105   9.254  22.063  0.00  0.00    +0.000 A 
ENDBRANCH  19  22
ENDBRANCH  16  17
ENDBRANCH   3  16
TORSDOF 5
ENDMDL
MODEL 3
REMARK VINA RESULT:      -7.7      1.249      1.670
REMARK  Name = 
REMARK  9 active torsions:
REMARK  status: ('A' for Active; 'I' for Inactive)
REMARK    1  A    between atoms: C_1  and  C_2
REMARK    2  A    between atoms: C_2  and  C_3
REMARK    3  A    between atoms: C_2  and  N_4
REMARK    4  A    between atoms: N_7  and  C_8
REMARK    5  A    between atoms: C_10  and  C_11
REMARK    6  A    between atoms: C_11  and  C_12
REMARK    7  A    between atoms: C_14  and  C_15
REMARK    8  A    between atoms: C_23  and  C_24
REMARK    9  A    between atoms: C_23  and  C_25
REMARK                            x       y       z     vdW  Elec       q    Type
REMARK                         _______ _______ _______ _____ _____    ______ ____
ROOT
ATOM      1  C   UNL     1       6.793   5.835  16.072  0.00  0.00    +0.000 C 
ATOM      2  C   UNL     1       5.580   6.793  16.084  0.00  0.00    +0.000 C 
ATOM      3  C   UNL     1       5.321   6.477  17.580  0.00  0.00    +0.000 C 
ATOM      4  C   UNL     1       6.753   5.823  17.639  0.00  0.00    +0.000 C 
ATOM      5  C   UNL     1       7.781   6.824  18.210  0.00  0.00    +0.000 C 
ATOM      6  C   UNL     1       6.880   4.500  18.387  0.00  0.00    +0.000 C 
ENDROOT
BRANCH   1  10
ATOM      7  N   UNL     1       6.104   3.370  13.405  0.00  0.00    +0.000 N 
ATOM      8  C   UNL     1       6.588   4.542  13.943  0.00  0.00    +0.000 C 
ATOM      9  O   UNL     1       7.057   5.455  13.272  0.00  0.00    +0.000 OA
ATOM     10  N   UNL     1       6.525   4.569  15.320  0.00  0.00    +0.000 N 
ATOM     11  H   UNL     1       5.515   2.787  13.982  0.00  0.00    +0.000 HD
ATOM     12  H   UNL     1       5.842   3.935  15.706  0.00  0.00    +0.000 HD
BRANCH   7  14
ATOM     13  C   UNL     1       6.840   1.916  11.557  0.00  0.00    +0.000 C 
ATOM     14  C   UNL     1       6.049   3.161  11.957  0.00  0.00    +0.000 C 
ATOM     15  C   UNL     1       4.610   3.048  11.451  0.00  0.00    +0.000 C 
ENDBRANCH   7  14
ENDBRANCH   1  10
BRANCH   3  16
ATOM     16  C   UNL     1       4.071   5.652  17.914  0.00  0.00    +0.000 C 
BRANCH  16  17
ATOM     17  C   UNL     1       3.085   6.457  18.697  0.00  0.00    +0.000 A 
ATOM     18  C   UNL     1       2.541   7.711  18.352  0.00  0.00    +0.000 A 
ATOM     19  C   UNL     1       1.760   8.075  19.422  0.00  0.00    +0.000 A 
ATOM     20  O   UNL     1       1.794   7.069  20.342  0.00  0.00    +0.000 OA
ATOM     21  N   UNL     1       2.622   6.046  19.886  0.00  0.00    +0.000 NA
BRANCH  19  22
ATOM     22  C   UNL     1       0.985   9.270  19.737  0.00  0.00    +0.000 A 
ATOM     23  C   UNL     1       0.809   9.645  21.078  0.00  0.00    +0.000 A 
ATOM     24  C   UNL     1       0.002  10.732  21.424  0.00  0.00    +0.000 A 
ATOM     25  C   UNL     1      -0.638  11.465  20.429  0.00  0.00    +0.000 A 
ATOM     26  C   UNL     1      -0.454  11.121  19.090  0.00  0.00    +0.000 A 
ATOM     27  C   UNL     1       0.356  10.034  18.744  0.00  0.00    +0.000 A 
ENDBRANCH  19  22
ENDBRANCH  16  17
ENDBRANCH   3  16
TORSDOF 5
ENDMDL
MODEL 4
REMARK VINA RESULT:      -7.7      0.909      1.055
REMARK  Name = 
REMARK  9 active torsions:
REMARK  status: ('A' for Active; 'I' for Inactive)
REMARK    1  A    between atoms: C_1  and  C_2
REMARK    2  A    between atoms: C_2  and  C_3
REMARK    3  A    between atoms: C_2  and  N_4
REMARK    4  A    between atoms: N_7  and  C_8
REMARK    5  A    between atoms: C_10  and  C_11
REMARK    6  A    between atoms: C_11  and  C_12
REMARK    7  A    between atoms: C_14  and  C_15
REMARK    8  A    between atoms: C_23  and  C_24
REMARK    9  A    between atoms: C_23  and  C_25
REMARK                            x       y       z     vdW  Elec       q    Type
REMARK                         _______ _______ _______ _____ _____    ______ ____
ROOT
ATOM      1  C   UNL     1       6.023   5.627  16.902  0.00  0.00    +0.000 C 
ATOM      2  C   UNL     1       5.380   7.027  17.030  0.00  0.00    +0.000 C 
ATOM      3  C   UNL     1       4.577   6.566  18.274  0.00  0.00    +0.000 C 
ATOM      4  C   UNL     1       5.513   5.301  18.348  0.00  0.00    +0.000 C 
ATOM      5  C   UNL     1       6.642   5.525  19.378  0.00  0.00    +0.000 C 
ATOM      6  C   UNL     1       4.844   3.959  18.628  0.00  0.00    +0.000 C 
ENDROOT
BRANCH   1  10
ATOM      7  N   UNL     1       5.664   3.890  13.659  0.00  0.00    +0.000 N 
ATOM      8  C   UNL     1       6.336   4.390  14.753  0.00  0.00    +0.000 C 
ATOM      9  O   UNL     1       7.557   4.399  14.855  0.00  0.00    +0.000 OA
ATOM     10  N   UNL     1       5.490   4.848  15.741  0.00  0.00    +0.000 N 
ATOM     11  H   UNL     1       4.694   4.142  13.538  0.00  0.00    +0.000 HD
ATOM     12  H   UNL     1       4.568   5.085  15.407  0.00  0.00    +0.000 HD
BRANCH   7  14
ATOM     13  C   UNL     1       5.428   2.687  11.522  0.00  0.00    +0.000 C 
ATOM     14  C   UNL     1       6.383   3.389  12.486  0.00  0.00    +0.000 C 
ATOM     15  C   UNL     1       7.132   4.506  11.757  0.00  0.00    +0.000 C 
ENDBRANCH   7  14
ENDBRANCH   1  10
BRANCH   3  16
ATOM     16  C   UNL     1       3.060   6.406  18.106  0.00  0.00    +0.000 C 
BRANCH  16  17
ATOM     17  C   UNL     1       2.328   7.583  18.665  0.00  0.00    +0.000 A 
ATOM     18  C   UNL     1       1.835   7.738  19.976  0.00  0.00    +0.000 A 
ATOM     19  C   UNL     1       1.168   8.939  19.974  0.00  0.00    +0.000 A 
ATOM     20  O   UNL     1       1.295   9.501  18.737  0.00  0.00    +0.000 OA
ATOM     21  N   UNL     1       2.030   8.653  17.912  0.00  0.00    +0.000 NA
BRANCH  19  22
ATOM     22  C   UNL     1       0.381   9.651  20.975  0.00  0.00    +0.000 A 
ATOM     23  C   UNL     1      -0.116  10.931  20.682  0.00  0.00    +0.000 A 
ATOM     24  C   UNL     1      -0.799  11.678  21.644  0.00  0.00    +0.000 A 
ATOM     25  C   UNL     1      -0.999  11.153  22.917  0.00  0.00    +0.000 A 
ATOM     26  C   UNL     1      -0.532   9.874  23.219  0.00  0.00    +0.000 A 
ATOM     27  C   UNL     1       0.150   9.124  22.254  0.00  0.00    +0.000 A 
ENDBRANCH  19  22
ENDBRANCH  16  17
ENDBRANCH   3  16
TORSDOF 5
ENDMDL
MODEL 5
REMARK VINA RESULT:      -7.6      1.159      1.455
REMARK  Name = 
REMARK  9 active torsions:
REMARK  status: ('A' for Active; 'I' for Inactive)
REMARK    1  A    between atoms: C_1  and  C_2
REMARK    2  A    between atoms: C_2  and  C_3
REMARK    3  A    between atoms: C_2  and  N_4
REMARK    4  A    between atoms: N_7  and  C_8
REMARK    5  A    between atoms: C_10  and  C_11
REMARK    6  A    between atoms: C_11  and  C_12
REMARK    7  A    between atoms: C_14  and  C_15
REMARK    8  A    between atoms: C_23  and  C_24
REMARK    9  A    between atoms: C_23  and  C_25
REMARK                            x       y       z     vdW  Elec       q    Type
REMARK                         _______ _______ _______ _____ _____    ______ ____
ROOT
ATOM      1  C   UNL     1       6.400   5.385  16.600  0.00  0.00    +0.000 C 
ATOM      2  C   UNL     1       5.629   6.715  16.449  0.00  0.00    +0.000 C 
ATOM      3  C   UNL     1       4.892   6.463  17.790  0.00  0.00    +0.000 C 
ATOM      4  C   UNL     1       5.946   5.334  18.100  0.00  0.00    +0.000 C 
ATOM      5  C   UNL     1       7.064   5.874  19.017  0.00  0.00    +0.000 C 
ATOM      6  C   UNL     1       5.413   4.028  18.682  0.00  0.00    +0.000 C 
ENDROOT
BRANCH   1  10
ATOM      7  N   UNL     1       5.600   3.453  13.552  0.00  0.00    +0.000 N 
ATOM      8  C   UNL     1       6.293   4.361  14.323  0.00  0.00    +0.000 C 
ATOM      9  O   UNL     1       7.168   5.098  13.883  0.00  0.00    +0.000 OA
ATOM     10  N   UNL     1       5.927   4.329  15.652  0.00  0.00    +0.000 N 
ATOM     11  H   UNL     1       4.741   3.071  13.919  0.00  0.00    +0.000 HD
ATOM     12  H   UNL     1       5.008   3.941  15.809  0.00  0.00    +0.000 HD
BRANCH   7  14
ATOM     13  C   UNL     1       6.757   2.199  11.774  0.00  0.00    +0.000 C 
ATOM     14  C   UNL     1       5.818   3.357  12.107  0.00  0.00    +0.000 C 
ATOM     15  C   UNL     1       4.502   3.198  11.342  0.00  0.00    +0.000 C 
ENDBRANCH   7  14
ENDBRANCH   1  10
BRANCH   3  16
ATOM     16  C   UNL     1       3.395   6.134  17.714  0.00  0.00    +0.000 C 
BRANCH  16  17
ATOM     17  C   UNL     1       2.595   7.058  18.575  0.00  0.00    +0.000 A 
ATOM     18  C   UNL     1       2.110   8.337  18.234  0.00  0.00    +0.000 A 
ATOM     19  C   UNL     1       1.517   8.816  19.377  0.00  0.00    +0.000 A 
ATOM     20  O   UNL     1       1.598   7.855  20.341  0.00  0.00    +0.000 OA
ATOM     21  N   UNL     1       2.270   6.744  19.838  0.00  0.00    +0.000 NA
BRANCH  19  22
ATOM     22  C   UNL     1       0.891  10.088  19.724  0.00  0.00    +0.000 A 
ATOM     23  C   UNL     1       1.101  11.208  18.904  0.00  0.00    +0.000 A 
ATOM     24  C   UNL     1       0.590  12.462  19.250  0.00  0.00    +0.000 A 
ATOM     25  C   UNL     1      -0.144  12.612  20.422  0.00  0.00    +0.000 A 
ATOM     26  C   UNL     1      -0.382  11.505  21.237  0.00  0.00    +0.000 A 
ATOM     27  C   UNL     1       0.127  10.249  20.889  0.00  0.00    +0.000 A 
ENDBRANCH  19  22
ENDBRANCH  16  17
ENDBRANCH   3  16
TORSDOF 5
ENDMDL
MODEL 6
REMARK VINA RESULT:      -7.5      1.288      1.925
REMARK  Name = 
REMARK  9 active torsions:
REMARK  status: ('A' for Active; 'I' for Inactive)
REMARK    1  A    between atoms: C_1  and  C_2
REMARK    2  A    between atoms: C_2  and  C_3
REMARK    3  A    between atoms: C_2  and  N_4
REMARK    4  A    between atoms: N_7  and  C_8
REMARK    5  A    between atoms: C_10  and  C_11
REMARK    6  A    between atoms: C_11  and  C_12
REMARK    7  A    between atoms: C_14  and  C_15
REMARK    8  A    between atoms: C_23  and  C_24
REMARK    9  A    between atoms: C_23  and  C_25
REMARK                            x       y       z     vdW  Elec       q    Type
REMARK                         _______ _______ _______ _____ _____    ______ ____
ROOT
ATOM      1  C   UNL     1       5.279   5.486  17.050  0.00  0.00    +0.000 C 
ATOM      2  C   UNL     1       5.150   6.941  17.556  0.00  0.00    +0.000 C 
ATOM      3  C   UNL     1       3.758   6.627  18.162  0.00  0.00    +0.000 C 
ATOM      4  C   UNL     1       4.077   5.096  17.977  0.00  0.00    +0.000 C 
ATOM      5  C   UNL     1       4.594   4.488  19.299  0.00  0.00    +0.000 C 
ATOM      6  C   UNL     1       2.957   4.215  17.430  0.00  0.00    +0.000 C 
ENDROOT
BRANCH   1  10
ATOM      7  N   UNL     1       5.619   4.453  13.517  0.00  0.00    +0.000 N 
ATOM      8  C   UNL     1       5.651   4.293  14.885  0.00  0.00    +0.000 C 
ATOM      9  O   UNL     1       6.068   3.284  15.442  0.00  0.00    +0.000 OA
ATOM     10  N   UNL     1       5.129   5.373  15.565  0.00  0.00    +0.000 N 
ATOM     11  H   UNL     1       5.504   5.384  13.146  0.00  0.00    +0.000 HD
ATOM     12  H   UNL     1       5.137   6.230  15.031  0.00  0.00    +0.000 HD
BRANCH   7  14
ATOM     13  C   UNL     1       5.054   2.815  11.764  0.00  0.00    +0.000 C 
ATOM     14  C   UNL     1       6.162   3.432  12.618  0.00  0.00    +0.000 C 
ATOM     15  C   UNL     1       7.263   3.994  11.716  0.00  0.00    +0.000 C 
ENDBRANCH   7  14
ENDBRANCH   1  10
BRANCH   3  16
ATOM     16  C   UNL     1       2.539   7.260  17.477  0.00  0.00    +0.000 C 
BRANCH  16  17
ATOM     17  C   UNL     1       2.007   8.407  18.273  0.00  0.00    +0.000 A 
ATOM     18  C   UNL     1       1.498   8.371  19.587  0.00  0.00    +0.000 A 
ATOM     19  C   UNL     1       1.056   9.646  19.841  0.00  0.00    +0.000 A 
ATOM     20  O   UNL     1       1.330  10.422  18.753  0.00  0.00    +0.000 OA
ATOM     21  N   UNL     1       1.935   9.647  17.766  0.00  0.00    +0.000 NA
BRANCH  19  22
ATOM     22  C   UNL     1       0.369  10.264  20.970  0.00  0.00    +0.000 A 
ATOM     23  C   UNL     1      -0.031   9.468  22.055  0.00  0.00    +0.000 A 
ATOM     24  C   UNL     1      -0.766  10.006  23.114  0.00  0.00    +0.000 A 
ATOM     25  C   UNL     1      -1.109  11.355  23.105  0.00  0.00    +0.000 A 
ATOM     26  C   UNL     1      -0.700  12.166  22.046  0.00  0.00    +0.000 A 
ATOM     27  C   UNL     1       0.040  11.627  20.987  0.00  0.00    +0.000 A 
ENDBRANCH  19  22
ENDBRANCH  16  17
ENDBRANCH   3  16
TORSDOF 5
ENDMDL
MODEL 7
REMARK VINA RESULT:      -7.5      5.189      7.595
REMARK  Name = 
REMARK  9 active torsions:
REMARK  status: ('A' for Active; 'I' for Inactive)
REMARK    1  A    between atoms: C_1  and  C_2
REMARK    2  A    between atoms: C_2  and  C_3
REMARK    3  A    between atoms: C_2  and  N_4
REMARK    4  A    between atoms: N_7  and  C_8
REMARK    5  A    between atoms: C_10  and  C_11
REMARK    6  A    between atoms: C_11  and  C_12
REMARK    7  A    between atoms: C_14  and  C_15
REMARK    8  A    between atoms: C_23  and  C_24
REMARK    9  A    between atoms: C_23  and  C_25
REMARK                            x       y       z     vdW  Elec       q    Type
REMARK                         _______ _______ _______ _____ _____    ______ ____
ROOT
ATOM      1  C   UNL     1       5.383   5.637  17.173  0.00  0.00    +0.000 C 
ATOM      2  C   UNL     1       5.635   7.157  17.046  0.00  0.00    +0.000 C 
ATOM      3  C   UNL     1       7.168   6.927  17.107  0.00  0.00    +0.000 C 
ATOM      4  C   UNL     1       6.899   5.396  16.854  0.00  0.00    +0.000 C 
ATOM      5  C   UNL     1       7.084   5.054  15.359  0.00  0.00    +0.000 C 
ATOM      6  C   UNL     1       7.698   4.404  17.693  0.00  0.00    +0.000 C 
ENDROOT
BRANCH   1  10
ATOM      7  N   UNL     1       3.358   4.167  19.893  0.00  0.00    +0.000 N 
ATOM      8  C   UNL     1       3.905   4.246  18.632  0.00  0.00    +0.000 C 
ATOM      9  O   UNL     1       3.615   3.484  17.716  0.00  0.00    +0.000 OA
ATOM     10  N   UNL     1       4.843   5.249  18.514  0.00  0.00    +0.000 N 
ATOM     11  H   UNL     1       3.451   4.964  20.506  0.00  0.00    +0.000 HD
ATOM     12  H   UNL     1       4.744   5.979  19.204  0.00  0.00    +0.000 HD
BRANCH   7  14
ATOM     13  C   UNL     1       2.464   2.682  21.646  0.00  0.00    +0.000 C 
ATOM     14  C   UNL     1       2.314   3.190  20.212  0.00  0.00    +0.000 C 
ATOM     15  C   UNL     1       0.912   3.766  20.007  0.00  0.00    +0.000 C 
ENDBRANCH   7  14
ENDBRANCH   1  10
BRANCH   3  16
ATOM     16  C   UNL     1       7.894   7.393  18.375  0.00  0.00    +0.000 C 
BRANCH  16  17
ATOM     17  C   UNL     1       8.309   8.825  18.265  0.00  0.00    +0.000 A 
ATOM     18  C   UNL     1       9.295   9.489  19.023  0.00  0.00    +0.000 A 
ATOM     19  C   UNL     1       9.245  10.800  18.615  0.00  0.00    +0.000 A 
ATOM     20  O   UNL     1       8.310  10.909  17.627  0.00  0.00    +0.000 OA
ATOM     21  N   UNL     1       7.724   9.666  17.400  0.00  0.00    +0.000 NA
BRANCH  19  22
ATOM     22  C   UNL     1       9.940  12.010  19.041  0.00  0.00    +0.000 A 
ATOM     23  C   UNL     1       9.287  13.249  18.953  0.00  0.00    +0.000 A 
ATOM     24  C   UNL     1       9.949  14.438  19.269  0.00  0.00    +0.000 A 
ATOM     25  C   UNL     1      11.276  14.404  19.684  0.00  0.00    +0.000 A 
ATOM     26  C   UNL     1      11.933  13.179  19.800  0.00  0.00    +0.000 A 
ATOM     27  C   UNL     1      11.269  11.987  19.486  0.00  0.00    +0.000 A 
ENDBRANCH  19  22
ENDBRANCH  16  17
ENDBRANCH   3  16
TORSDOF 5
ENDMDL
MODEL 8
REMARK VINA RESULT:      -7.4      1.831      2.806
REMARK  Name = 
REMARK  9 active torsions:
REMARK  status: ('A' for Active; 'I' for Inactive)
REMARK    1  A    between atoms: C_1  and  C_2
REMARK    2  A    between atoms: C_2  and  C_3
REMARK    3  A    between atoms: C_2  and  N_4
REMARK    4  A    between atoms: N_7  and  C_8
REMARK    5  A    between atoms: C_10  and  C_11
REMARK    6  A    between atoms: C_11  and  C_12
REMARK    7  A    between atoms: C_14  and  C_15
REMARK    8  A    between atoms: C_23  and  C_24
REMARK    9  A    between atoms: C_23  and  C_25
REMARK                            x       y       z     vdW  Elec       q    Type
REMARK                         _______ _______ _______ _____ _____    ______ ____
ROOT
ATOM      1  C   UNL     1       4.515   4.599  17.723  0.00  0.00    +0.000 C 
ATOM      2  C   UNL     1       5.086   5.952  18.206  0.00  0.00    +0.000 C 
ATOM      3  C   UNL     1       3.670   6.418  18.636  0.00  0.00    +0.000 C 
ATOM      4  C   UNL     1       3.190   4.924  18.495  0.00  0.00    +0.000 C 
ATOM      5  C   UNL     1       3.187   4.226  19.872  0.00  0.00    +0.000 C 
ATOM      6  C   UNL     1       1.844   4.690  17.816  0.00  0.00    +0.000 C 
ENDROOT
BRANCH   1  10
ATOM      7  N   UNL     1       5.480   4.233  14.174  0.00  0.00    +0.000 N 
ATOM      8  C   UNL     1       5.607   4.077  15.536  0.00  0.00    +0.000 C 
ATOM      9  O   UNL     1       6.598   3.598  16.076  0.00  0.00    +0.000 OA
ATOM     10  N   UNL     1       4.487   4.481  16.231  0.00  0.00    +0.000 N 
ATOM     11  H   UNL     1       4.761   4.852  13.828  0.00  0.00    +0.000 HD
ATOM     12  H   UNL     1       3.911   5.137  15.724  0.00  0.00    +0.000 HD
BRANCH   7  14
ATOM     13  C   UNL     1       6.042   3.227  11.995  0.00  0.00    +0.000 C 
ATOM     14  C   UNL     1       6.575   3.896  13.262  0.00  0.00    +0.000 C 
ATOM     15  C   UNL     1       7.408   5.125  12.892  0.00  0.00    +0.000 C 
ENDBRANCH   7  14
ENDBRANCH   1  10
BRANCH   3  16
ATOM     16  C   UNL     1       3.018   7.530  17.804  0.00  0.00    +0.000 C 
BRANCH  16  17
ATOM     17  C   UNL     1       2.010   8.286  18.607  0.00  0.00    +0.000 A 
ATOM     18  C   UNL     1       1.132   9.289  18.150  0.00  0.00    +0.000 A 
ATOM     19  C   UNL     1       0.473   9.734  19.270  0.00  0.00    +0.000 A 
ATOM     20  O   UNL     1       0.897   9.001  20.339  0.00  0.00    +0.000 OA
ATOM     21  N   UNL     1       1.860   8.084  19.925  0.00  0.00    +0.000 NA
BRANCH  19  22
ATOM     22  C   UNL     1      -0.503  10.792  19.505  0.00  0.00    +0.000 A 
ATOM     23  C   UNL     1      -0.412  11.570  20.670  0.00  0.00    +0.000 A 
ATOM     24  C   UNL     1      -1.378  12.533  20.973  0.00  0.00    +0.000 A 
ATOM     25  C   UNL     1      -2.449  12.736  20.109  0.00  0.00    +0.000 A 
ATOM     26  C   UNL     1      -2.543  11.988  18.935  0.00  0.00    +0.000 A 
ATOM     27  C   UNL     1      -1.574  11.025  18.631  0.00  0.00    +0.000 A 
ENDBRANCH  19  22
ENDBRANCH  16  17
ENDBRANCH   3  16
TORSDOF 5
ENDMDL
MODEL 9
REMARK VINA RESULT:      -7.4      1.671      2.443
REMARK  Name = 
REMARK  9 active torsions:
REMARK  status: ('A' for Active; 'I' for Inactive)
REMARK    1  A    between atoms: C_1  and  C_2
REMARK    2  A    between atoms: C_2  and  C_3
REMARK    3  A    between atoms: C_2  and  N_4
REMARK    4  A    between atoms: N_7  and  C_8
REMARK    5  A    between atoms: C_10  and  C_11
REMARK    6  A    between atoms: C_11  and  C_12
REMARK    7  A    between atoms: C_14  and  C_15
REMARK    8  A    between atoms: C_23  and  C_24
REMARK    9  A    between atoms: C_23  and  C_25
REMARK                            x       y       z     vdW  Elec       q    Type
REMARK                         _______ _______ _______ _____ _____    ______ ____
ROOT
ATOM      1  C   UNL     1       5.147   4.680  17.659  0.00  0.00    +0.000 C 
ATOM      2  C   UNL     1       5.360   5.914  18.565  0.00  0.00    +0.000 C 
ATOM      3  C   UNL     1       3.852   5.930  18.929  0.00  0.00    +0.000 C 
ATOM      4  C   UNL     1       3.740   4.482  18.320  0.00  0.00    +0.000 C 
ATOM      5  C   UNL     1       3.818   3.419  19.437  0.00  0.00    +0.000 C 
ATOM      6  C   UNL     1       2.527   4.192  17.442  0.00  0.00    +0.000 C 
ENDROOT
BRANCH   1  10
ATOM      7  N   UNL     1       5.894   4.595  14.039  0.00  0.00    +0.000 N 
ATOM      8  C   UNL     1       5.664   4.068  15.291  0.00  0.00    +0.000 C 
ATOM      9  O   UNL     1       5.793   2.880  15.562  0.00  0.00    +0.000 OA
ATOM     10  N   UNL     1       5.235   5.010  16.201  0.00  0.00    +0.000 N 
ATOM     11  H   UNL     1       6.011   5.595  13.955  0.00  0.00    +0.000 HD
ATOM     12  H   UNL     1       5.485   5.956  15.953  0.00  0.00    +0.000 HD
BRANCH   7  14
ATOM     13  C   UNL     1       5.235   3.240  12.089  0.00  0.00    +0.000 C 
ATOM     14  C   UNL     1       6.391   3.763  12.941  0.00  0.00    +0.000 C 
ATOM     15  C   UNL     1       7.388   4.519  12.061  0.00  0.00    +0.000 C 
ENDBRANCH   7  14
ENDBRANCH   1  10
BRANCH   3  16
ATOM     16  C   UNL     1       3.011   7.082  18.365  0.00  0.00    +0.000 C 
BRANCH  16  17
ATOM     17  C   UNL     1       2.099   7.647  19.407  0.00  0.00    +0.000 A 
ATOM     18  C   UNL     1       1.423   8.883  19.371  0.00  0.00    +0.000 A 
ATOM     19  C   UNL     1       0.789   8.985  20.585  0.00  0.00    +0.000 A 
ATOM     20  O   UNL     1       1.031   7.846  21.296  0.00  0.00    +0.000 OA
ATOM     21  N   UNL     1       1.850   6.999  20.555  0.00  0.00    +0.000 NA
BRANCH  19  22
ATOM     22  C   UNL     1      -0.012  10.031  21.213  0.00  0.00    +0.000 A 
ATOM     23  C   UNL     1      -0.369   9.910  22.566  0.00  0.00    +0.000 A 
ATOM     24  C   UNL     1      -1.206  10.845  23.178  0.00  0.00    +0.000 A 
ATOM     25  C   UNL     1      -1.696  11.922  22.445  0.00  0.00    +0.000 A 
ATOM     26  C   UNL     1      -1.333  12.070  21.107  0.00  0.00    +0.000 A 
ATOM     27  C   UNL     1      -0.492  11.135  20.494  0.00  0.00    +0.000 A 
ENDBRANCH  19  22
ENDBRANCH  16  17
ENDBRANCH   3  16
TORSDOF 5
ENDMDL
