MODEL 1
REMARK VINA RESULT:      -7.2      0.000      0.000
REMARK  Name = 
REMARK  11 active torsions:
REMARK  status: ('A' for Active; 'I' for Inactive)
REMARK    1  A    between atoms: C_1  and  O_2
REMARK    2  A    between atoms: O_2  and  C_3
REMARK    3  A    between atoms: C_3  and  C_5
REMARK    4  A    between atoms: C_5  and  O_6
REMARK    5  A    between atoms: O_6  and  C_7
REMARK    6  A    between atoms: C_10  and  N_11
REMARK    7  A    between atoms: C_12  and  C_14
REMARK    8  A    between atoms: C_14  and  O_15
REMARK    9  A    between atoms: O_15  and  C_16
REMARK   10  A    between atoms: C_19  and  C_20
REMARK   11  A    between atoms: C_22  and  C_23
REMARK                            x       y       z     vdW  Elec       q    Type
REMARK                         _______ _______ _______ _____ _____    ______ ____
ROOT
ATOM      1  N   UNL     1       2.434   4.202  18.240  0.00  0.00    +0.000 N 
ATOM      2  C   UNL     1       3.567   3.431  18.199  0.00  0.00    +0.000 C 
ATOM      3  O   UNL     1       3.557   2.414  17.496  0.00  0.00    +0.000 OA
ATOM      4  H   UNL     1       1.826   4.022  17.448  0.00  0.00    +0.000 HD
ENDROOT
BRANCH   1   8
ATOM      5  C   UNL     1       1.862   7.742  20.390  0.00  0.00    +0.000 A 
ATOM      6  C   UNL     1       1.661   6.500  20.998  0.00  0.00    +0.000 A 
ATOM      7  C   UNL     1       1.893   5.321  20.293  0.00  0.00    +0.000 A 
ATOM      8  C   UNL     1       2.267   5.388  18.955  0.00  0.00    +0.000 A 
ATOM      9  C   UNL     1       2.496   6.626  18.351  0.00  0.00    +0.000 A 
ATOM     10  C   UNL     1       2.276   7.804  19.061  0.00  0.00    +0.000 A 
BRANCH   5  11
ATOM     11  O   UNL     1       1.613   8.827  21.179  0.00  0.00    +0.000 OA
BRANCH  11  12
ATOM     12  C   UNL     1       0.237   9.159  21.353  0.00  0.00    +0.000 C 
BRANCH  12  13
ATOM     13  C   UNL     1       0.081  10.035  22.583  0.00  0.00    +0.000 C 
ATOM     14  O   UNL     1       0.207   9.674  23.743  0.00  0.00    +0.000 OA
BRANCH  13  16
ATOM     15  C   UNL     1      -0.920  11.386  20.960  0.00  0.00    +0.000 C 
ATOM     16  O   UNL     1      -0.198  11.315  22.193  0.00  0.00    +0.000 OA
ENDBRANCH  13  16
ENDBRANCH  12  13
ENDBRANCH  11  12
ENDBRANCH   5  11
ENDBRANCH   1   8
BRANCH   2  17
ATOM     17  C   UNL     1       4.842   3.876  18.921  0.00  0.00    +0.000 C 
BRANCH  17  18
ATOM     18  O   UNL     1       5.879   4.033  17.960  0.00  0.00    +0.000 OA
BRANCH  18  19
ATOM     19  C   UNL     1       6.469   5.261  17.823  0.00  0.00    +0.000 A 
ATOM     20  C   UNL     1       7.456   5.504  18.792  0.00  0.00    +0.000 A 
ATOM     21  C   UNL     1       8.116   6.734  18.872  0.00  0.00    +0.000 A 
ATOM     22  C   UNL     1       7.795   7.755  17.981  0.00  0.00    +0.000 A 
ATOM     23  C   UNL     1       8.464   9.096  18.050  0.00  0.00    +0.000 C 
ATOM     24  C   UNL     1       6.812   7.518  17.015  0.00  0.00    +0.000 A 
ATOM     25  C   UNL     1       6.130   6.285  16.924  0.00  0.00    +0.000 A 
ATOM     26  C   UNL     1       5.054   6.186  15.883  0.00  0.00    +0.000 C 
ENDBRANCH  18  19
ENDBRANCH  17  18
ENDBRANCH   2  17
TORSDOF 8
ENDMDL
MODEL 2
REMARK VINA RESULT:      -7.2      2.786      7.102
REMARK  Name = 
REMARK  11 active torsions:
REMARK  status: ('A' for Active; 'I' for Inactive)
REMARK    1  A    between atoms: C_1  and  O_2
REMARK    2  A    between atoms: O_2  and  C_3
REMARK    3  A    between atoms: C_3  and  C_5
REMARK    4  A    between atoms: C_5  and  O_6
REMARK    5  A    between atoms: O_6  and  C_7
REMARK    6  A    between atoms: C_10  and  N_11
REMARK    7  A    between atoms: C_12  and  C_14
REMARK    8  A    between atoms: C_14  and  O_15
REMARK    9  A    between atoms: O_15  and  C_16
REMARK   10  A    between atoms: C_19  and  C_20
REMARK   11  A    between atoms: C_22  and  C_23
REMARK                            x       y       z     vdW  Elec       q    Type
REMARK                         _______ _______ _______ _____ _____    ______ ____
ROOT
ATOM      1  N   UNL     1       2.659   2.598  20.593  0.00  0.00    +0.000 N 
ATOM      2  C   UNL     1       1.674   3.299  21.240  0.00  0.00    +0.000 C 
ATOM      3  O   UNL     1       1.288   2.886  22.339  0.00  0.00    +0.000 OA
ATOM      4  H   UNL     1       3.177   2.002  21.229  0.00  0.00    +0.000 HD
ENDROOT
BRANCH   1   8
ATOM      5  C   UNL     1       4.384   3.640  16.930  0.00  0.00    +0.000 A 
ATOM      6  C   UNL     1       5.114   3.748  18.116  0.00  0.00    +0.000 A 
ATOM      7  C   UNL     1       4.552   3.360  19.331  0.00  0.00    +0.000 A 
ATOM      8  C   UNL     1       3.232   2.923  19.364  0.00  0.00    +0.000 A 
ATOM      9  C   UNL     1       2.508   2.788  18.177  0.00  0.00    +0.000 A 
ATOM     10  C   UNL     1       3.074   3.164  16.962  0.00  0.00    +0.000 A 
BRANCH   5  11
ATOM     11  O   UNL     1       5.038   4.041  15.802  0.00  0.00    +0.000 OA
BRANCH  11  12
ATOM     12  C   UNL     1       5.733   5.282  15.899  0.00  0.00    +0.000 C 
BRANCH  12  13
ATOM     13  C   UNL     1       7.224   5.038  15.754  0.00  0.00    +0.000 C 
ATOM     14  O   UNL     1       7.935   4.437  16.544  0.00  0.00    +0.000 OA
BRANCH  13  16
ATOM     15  C   UNL     1       7.249   4.824  13.426  0.00  0.00    +0.000 C 
ATOM     16  O   UNL     1       7.656   5.576  14.574  0.00  0.00    +0.000 OA
ENDBRANCH  13  16
ENDBRANCH  12  13
ENDBRANCH  11  12
ENDBRANCH   5  11
ENDBRANCH   1   8
BRANCH   2  17
ATOM     17  C   UNL     1       1.143   4.616  20.664  0.00  0.00    +0.000 C 
BRANCH  17  18
ATOM     18  O   UNL     1       2.170   5.596  20.746  0.00  0.00    +0.000 OA
BRANCH  18  19
ATOM     19  C   UNL     1       1.897   6.871  20.326  0.00  0.00    +0.000 A 
ATOM     20  C   UNL     1       1.061   7.570  21.211  0.00  0.00    +0.000 A 
ATOM     21  C   UNL     1       0.601   8.858  20.920  0.00  0.00    +0.000 A 
ATOM     22  C   UNL     1       0.967   9.474  19.726  0.00  0.00    +0.000 A 
ATOM     23  C   UNL     1       0.475  10.845  19.366  0.00  0.00    +0.000 C 
ATOM     24  C   UNL     1       1.800   8.781  18.840  0.00  0.00    +0.000 A 
ATOM     25  C   UNL     1       2.267   7.477  19.115  0.00  0.00    +0.000 A 
ATOM     26  C   UNL     1       3.101   6.824  18.052  0.00  0.00    +0.000 C 
ENDBRANCH  18  19
ENDBRANCH  17  18
ENDBRANCH   2  17
TORSDOF 8
ENDMDL
MODEL 3
REMARK VINA RESULT:      -7.2      0.624      1.146
REMARK  Name = 
REMARK  11 active torsions:
REMARK  status: ('A' for Active; 'I' for Inactive)
REMARK    1  A    between atoms: C_1  and  O_2
REMARK    2  A    between atoms: O_2  and  C_3
REMARK    3  A    between atoms: C_3  and  C_5
REMARK    4  A    between atoms: C_5  and  O_6
REMARK    5  A    between atoms: O_6  and  C_7
REMARK    6  A    between atoms: C_10  and  N_11
REMARK    7  A    between atoms: C_12  and  C_14
REMARK    8  A    between atoms: C_14  and  O_15
REMARK    9  A    between atoms: O_15  and  C_16
REMARK   10  A    between atoms: C_19  and  C_20
REMARK   11  A    between atoms: C_22  and  C_23
REMARK                            x       y       z     vdW  Elec       q    Type
REMARK                         _______ _______ _______ _____ _____    ______ ____
ROOT
ATOM      1  N   UNL     1       2.559   3.790  18.517  0.00  0.00    +0.000 N 
ATOM      2  C   UNL     1       3.763   3.136  18.554  0.00  0.00    +0.000 C 
ATOM      3  O   UNL     1       3.848   2.035  17.999  0.00  0.00    +0.000 OA
ATOM      4  H   UNL     1       1.964   3.443  17.773  0.00  0.00    +0.000 HD
ENDROOT
BRANCH   1   8
ATOM      5  C   UNL     1       1.798   7.561  20.153  0.00  0.00    +0.000 A 
ATOM      6  C   UNL     1       2.244   7.435  18.836  0.00  0.00    +0.000 A 
ATOM      7  C   UNL     1       2.457   6.176  18.278  0.00  0.00    +0.000 A 
ATOM      8  C   UNL     1       2.281   5.042  19.065  0.00  0.00    +0.000 A 
ATOM      9  C   UNL     1       1.808   5.163  20.374  0.00  0.00    +0.000 A 
ATOM     10  C   UNL     1       1.585   6.421  20.926  0.00  0.00    +0.000 A 
BRANCH   5  11
ATOM     11  O   UNL     1       1.616   8.842  20.589  0.00  0.00    +0.000 OA
BRANCH  11  12
ATOM     12  C   UNL     1       1.313   8.983  21.975  0.00  0.00    +0.000 C 
BRANCH  12  13
ATOM     13  C   UNL     1       0.323  10.119  22.162  0.00  0.00    +0.000 C 
ATOM     14  O   UNL     1      -0.235  10.422  23.205  0.00  0.00    +0.000 OA
BRANCH  13  16
ATOM     15  C   UNL     1       0.473  12.176  21.062  0.00  0.00    +0.000 C 
ATOM     16  O   UNL     1       0.166  10.781  20.976  0.00  0.00    +0.000 OA
ENDBRANCH  13  16
ENDBRANCH  12  13
ENDBRANCH  11  12
ENDBRANCH   5  11
ENDBRANCH   1   8
BRANCH   2  17
ATOM     17  C   UNL     1       4.996   3.801  19.175  0.00  0.00    +0.000 C 
BRANCH  17  18
ATOM     18  O   UNL     1       5.992   3.942  18.171  0.00  0.00    +0.000 OA
BRANCH  18  19
ATOM     19  C   UNL     1       6.553   5.175  17.968  0.00  0.00    +0.000 A 
ATOM     20  C   UNL     1       7.499   5.513  18.949  0.00  0.00    +0.000 A 
ATOM     21  C   UNL     1       8.122   6.764  18.965  0.00  0.00    +0.000 A 
ATOM     22  C   UNL     1       7.804   7.712  17.995  0.00  0.00    +0.000 A 
ATOM     23  C   UNL     1       8.434   9.074  17.992  0.00  0.00    +0.000 C 
ATOM     24  C   UNL     1       6.861   7.380  17.016  0.00  0.00    +0.000 A 
ATOM     25  C   UNL     1       6.217   6.125  16.990  0.00  0.00    +0.000 A 
ATOM     26  C   UNL     1       5.181   5.922  15.924  0.00  0.00    +0.000 C 
ENDBRANCH  18  19
ENDBRANCH  17  18
ENDBRANCH   2  17
TORSDOF 8
ENDMDL
MODEL 4
REMARK VINA RESULT:      -7.1      2.430      6.624
REMARK  Name = 
REMARK  11 active torsions:
REMARK  status: ('A' for Active; 'I' for Inactive)
REMARK    1  A    between atoms: C_1  and  O_2
REMARK    2  A    between atoms: O_2  and  C_3
REMARK    3  A    between atoms: C_3  and  C_5
REMARK    4  A    between atoms: C_5  and  O_6
REMARK    5  A    between atoms: O_6  and  C_7
REMARK    6  A    between atoms: C_10  and  N_11
REMARK    7  A    between atoms: C_12  and  C_14
REMARK    8  A    between atoms: C_14  and  O_15
REMARK    9  A    between atoms: O_15  and  C_16
REMARK   10  A    between atoms: C_19  and  C_20
REMARK   11  A    between atoms: C_22  and  C_23
REMARK                            x       y       z     vdW  Elec       q    Type
REMARK                         _______ _______ _______ _____ _____    ______ ____
ROOT
ATOM      1  N   UNL     1       2.718   2.475  20.579  0.00  0.00    +0.000 N 
ATOM      2  C   UNL     1       1.666   3.055  21.240  0.00  0.00    +0.000 C 
ATOM      3  O   UNL     1       1.294   2.550  22.305  0.00  0.00    +0.000 OA
ATOM      4  H   UNL     1       3.271   1.887  21.194  0.00  0.00    +0.000 HD
ENDROOT
BRANCH   1   8
ATOM      5  C   UNL     1       4.424   3.859  17.023  0.00  0.00    +0.000 A 
ATOM      6  C   UNL     1       5.135   3.921  18.224  0.00  0.00    +0.000 A 
ATOM      7  C   UNL     1       4.581   3.421  19.400  0.00  0.00    +0.000 A 
ATOM      8  C   UNL     1       3.286   2.914  19.384  0.00  0.00    +0.000 A 
ATOM      9  C   UNL     1       2.583   2.824  18.181  0.00  0.00    +0.000 A 
ATOM     10  C   UNL     1       3.142   3.314  17.003  0.00  0.00    +0.000 A 
BRANCH   5  11
ATOM     11  O   UNL     1       5.068   4.371  15.934  0.00  0.00    +0.000 OA
BRANCH  11  12
ATOM     12  C   UNL     1       5.435   5.746  16.025  0.00  0.00    +0.000 C 
BRANCH  12  13
ATOM     13  C   UNL     1       6.947   5.863  16.086  0.00  0.00    +0.000 C 
ATOM     14  O   UNL     1       7.719   5.691  15.156  0.00  0.00    +0.000 OA
BRANCH  13  16
ATOM     15  C   UNL     1       7.603   7.618  17.483  0.00  0.00    +0.000 C 
ATOM     16  O   UNL     1       7.321   6.222  17.350  0.00  0.00    +0.000 OA
ENDBRANCH  13  16
ENDBRANCH  12  13
ENDBRANCH  11  12
ENDBRANCH   5  11
ENDBRANCH   1   8
BRANCH   2  17
ATOM     17  C   UNL     1       1.040   4.355  20.725  0.00  0.00    +0.000 C 
BRANCH  17  18
ATOM     18  O   UNL     1       1.916   5.434  21.027  0.00  0.00    +0.000 OA
BRANCH  18  19
ATOM     19  C   UNL     1       1.837   6.576  20.275  0.00  0.00    +0.000 A 
ATOM     20  C   UNL     1       2.519   6.473  19.052  0.00  0.00    +0.000 A 
ATOM     21  C   UNL     1       2.625   7.561  18.179  0.00  0.00    +0.000 A 
ATOM     22  C   UNL     1       2.050   8.783  18.518  0.00  0.00    +0.000 A 
ATOM     23  C   UNL     1       2.162   9.980  17.620  0.00  0.00    +0.000 C 
ATOM     24  C   UNL     1       1.370   8.890  19.736  0.00  0.00    +0.000 A 
ATOM     25  C   UNL     1       1.260   7.805  20.632  0.00  0.00    +0.000 A 
ATOM     26  C   UNL     1       0.558   8.073  21.931  0.00  0.00    +0.000 C 
ENDBRANCH  18  19
ENDBRANCH  17  18
ENDBRANCH   2  17
TORSDOF 8
ENDMDL
MODEL 5
REMARK VINA RESULT:      -7.1      0.726      1.140
REMARK  Name = 
REMARK  11 active torsions:
REMARK  status: ('A' for Active; 'I' for Inactive)
REMARK    1  A    between atoms: C_1  and  O_2
REMARK    2  A    between atoms: O_2  and  C_3
REMARK    3  A    between atoms: C_3  and  C_5
REMARK    4  A    between atoms: C_5  and  O_6
REMARK    5  A    between atoms: O_6  and  C_7
REMARK    6  A    between atoms: C_10  and  N_11
REMARK    7  A    between atoms: C_12  and  C_14
REMARK    8  A    between atoms: C_14  and  O_15
REMARK    9  A    between atoms: O_15  and  C_16
REMARK   10  A    between atoms: C_19  and  C_20
REMARK   11  A    between atoms: C_22  and  C_23
REMARK                            x       y       z     vdW  Elec       q    Type
REMARK                         _______ _______ _______ _____ _____    ______ ____
ROOT
ATOM      1  N   UNL     1       2.550   3.825  18.730  0.00  0.00    +0.000 N 
ATOM      2  C   UNL     1       3.714   3.116  18.878  0.00  0.00    +0.000 C 
ATOM      3  O   UNL     1       3.718   1.925  18.547  0.00  0.00    +0.000 OA
ATOM      4  H   UNL     1       1.916   3.378  18.077  0.00  0.00    +0.000 HD
ENDROOT
BRANCH   1   8
ATOM      5  C   UNL     1       1.914   7.858  19.632  0.00  0.00    +0.000 A 
ATOM      6  C   UNL     1       1.725   6.873  20.605  0.00  0.00    +0.000 A 
ATOM      7  C   UNL     1       1.979   5.534  20.315  0.00  0.00    +0.000 A 
ATOM      8  C   UNL     1       2.361   5.175  19.027  0.00  0.00    +0.000 A 
ATOM      9  C   UNL     1       2.578   6.158  18.059  0.00  0.00    +0.000 A 
ATOM     10  C   UNL     1       2.336   7.498  18.354  0.00  0.00    +0.000 A 
BRANCH   5  11
ATOM     11  O   UNL     1       1.643   9.134  20.031  0.00  0.00    +0.000 OA
BRANCH  11  12
ATOM     12  C   UNL     1       0.600   9.272  20.992  0.00  0.00    +0.000 C 
BRANCH  12  13
ATOM     13  C   UNL     1       0.537  10.712  21.467  0.00  0.00    +0.000 C 
ATOM     14  O   UNL     1       0.846  11.698  20.817  0.00  0.00    +0.000 OA
BRANCH  13  16
ATOM     15  C   UNL     1      -0.044   9.452  23.348  0.00  0.00    +0.000 C 
ATOM     16  O   UNL     1       0.049  10.746  22.744  0.00  0.00    +0.000 OA
ENDBRANCH  13  16
ENDBRANCH  12  13
ENDBRANCH  11  12
ENDBRANCH   5  11
ENDBRANCH   1   8
BRANCH   2  17
ATOM     17  C   UNL     1       4.999   3.810  19.340  0.00  0.00    +0.000 C 
BRANCH  17  18
ATOM     18  O   UNL     1       5.873   3.938  18.225  0.00  0.00    +0.000 OA
BRANCH  18  19
ATOM     19  C   UNL     1       6.470   5.149  17.993  0.00  0.00    +0.000 A 
ATOM     20  C   UNL     1       7.380   5.512  18.999  0.00  0.00    +0.000 A 
ATOM     21  C   UNL     1       8.029   6.750  18.988  0.00  0.00    +0.000 A 
ATOM     22  C   UNL     1       7.776   7.658  17.963  0.00  0.00    +0.000 A 
ATOM     23  C   UNL     1       8.435   9.006  17.927  0.00  0.00    +0.000 C 
ATOM     24  C   UNL     1       6.870   7.302  16.958  0.00  0.00    +0.000 A 
ATOM     25  C   UNL     1       6.199   6.059  16.959  0.00  0.00    +0.000 A 
ATOM     26  C   UNL     1       5.206   5.830  15.858  0.00  0.00    +0.000 C 
ENDBRANCH  18  19
ENDBRANCH  17  18
ENDBRANCH   2  17
TORSDOF 8
ENDMDL
MODEL 6
REMARK VINA RESULT:      -7.1      2.974      7.371
REMARK  Name = 
REMARK  11 active torsions:
REMARK  status: ('A' for Active; 'I' for Inactive)
REMARK    1  A    between atoms: C_1  and  O_2
REMARK    2  A    between atoms: O_2  and  C_3
REMARK    3  A    between atoms: C_3  and  C_5
REMARK    4  A    between atoms: C_5  and  O_6
REMARK    5  A    between atoms: O_6  and  C_7
REMARK    6  A    between atoms: C_10  and  N_11
REMARK    7  A    between atoms: C_12  and  C_14
REMARK    8  A    between atoms: C_14  and  O_15
REMARK    9  A    between atoms: O_15  and  C_16
REMARK   10  A    between atoms: C_19  and  C_20
REMARK   11  A    between atoms: C_22  and  C_23
REMARK                            x       y       z     vdW  Elec       q    Type
REMARK                         _______ _______ _______ _____ _____    ______ ____
ROOT
ATOM      1  N   UNL     1       3.012   2.704  20.521  0.00  0.00    +0.000 N 
ATOM      2  C   UNL     1       1.909   3.199  21.169  0.00  0.00    +0.000 C 
ATOM      3  O   UNL     1       1.547   2.643  22.212  0.00  0.00    +0.000 OA
ATOM      4  H   UNL     1       3.588   2.138  21.134  0.00  0.00    +0.000 HD
ENDROOT
BRANCH   1   8
ATOM      5  C   UNL     1       4.716   4.152  16.989  0.00  0.00    +0.000 A 
ATOM      6  C   UNL     1       3.490   3.484  16.964  0.00  0.00    +0.000 A 
ATOM      7  C   UNL     1       2.902   3.040  18.147  0.00  0.00    +0.000 A 
ATOM      8  C   UNL     1       3.578   3.210  19.351  0.00  0.00    +0.000 A 
ATOM      9  C   UNL     1       4.791   3.901  19.383  0.00  0.00    +0.000 A 
ATOM     10  C   UNL     1       5.372   4.356  18.202  0.00  0.00    +0.000 A 
BRANCH   5  11
ATOM     11  O   UNL     1       5.191   4.549  15.772  0.00  0.00    +0.000 OA
BRANCH  11  12
ATOM     12  C   UNL     1       6.469   4.032  15.411  0.00  0.00    +0.000 C 
BRANCH  12  13
ATOM     13  C   UNL     1       6.757   4.366  13.958  0.00  0.00    +0.000 C 
ATOM     14  O   UNL     1       7.273   5.393  13.546  0.00  0.00    +0.000 OA
BRANCH  13  16
ATOM     15  C   UNL     1       5.223   3.607  12.367  0.00  0.00    +0.000 C 
ATOM     16  O   UNL     1       6.372   3.319  13.169  0.00  0.00    +0.000 OA
ENDBRANCH  13  16
ENDBRANCH  12  13
ENDBRANCH  11  12
ENDBRANCH   5  11
ENDBRANCH   1   8
BRANCH   2  17
ATOM     17  C   UNL     1       1.212   4.468  20.670  0.00  0.00    +0.000 C 
BRANCH  17  18
ATOM     18  O   UNL     1       2.032   5.589  20.978  0.00  0.00    +0.000 OA
BRANCH  18  19
ATOM     19  C   UNL     1       1.873   6.739  20.252  0.00  0.00    +0.000 A 
ATOM     20  C   UNL     1       2.486   6.677  18.990  0.00  0.00    +0.000 A 
ATOM     21  C   UNL     1       2.508   7.780  18.131  0.00  0.00    +0.000 A 
ATOM     22  C   UNL     1       1.916   8.978  18.523  0.00  0.00    +0.000 A 
ATOM     23  C   UNL     1       1.938  10.191  17.640  0.00  0.00    +0.000 C 
ATOM     24  C   UNL     1       1.304   9.045  19.780  0.00  0.00    +0.000 A 
ATOM     25  C   UNL     1       1.280   7.944  20.662  0.00  0.00    +0.000 A 
ATOM     26  C   UNL     1       0.647   8.170  22.004  0.00  0.00    +0.000 C 
ENDBRANCH  18  19
ENDBRANCH  17  18
ENDBRANCH   2  17
TORSDOF 8
ENDMDL
MODEL 7
REMARK VINA RESULT:      -7.0      3.488      5.872
REMARK  Name = 
REMARK  11 active torsions:
REMARK  status: ('A' for Active; 'I' for Inactive)
REMARK    1  A    between atoms: C_1  and  O_2
REMARK    2  A    between atoms: O_2  and  C_3
REMARK    3  A    between atoms: C_3  and  C_5
REMARK    4  A    between atoms: C_5  and  O_6
REMARK    5  A    between atoms: O_6  and  C_7
REMARK    6  A    between atoms: C_10  and  N_11
REMARK    7  A    between atoms: C_12  and  C_14
REMARK    8  A    between atoms: C_14  and  O_15
REMARK    9  A    between atoms: O_15  and  C_16
REMARK   10  A    between atoms: C_19  and  C_20
REMARK   11  A    between atoms: C_22  and  C_23
REMARK                            x       y       z     vdW  Elec       q    Type
REMARK                         _______ _______ _______ _____ _____    ______ ____
ROOT
ATOM      1  N   UNL     1       5.986   6.394  18.308  0.00  0.00    +0.000 N 
ATOM      2  C   UNL     1       7.049   6.543  17.454  0.00  0.00    +0.000 C 
ATOM      3  O   UNL     1       7.798   7.512  17.616  0.00  0.00    +0.000 OA
ATOM      4  H   UNL     1       6.116   6.919  19.166  0.00  0.00    +0.000 HD
ENDROOT
BRANCH   1   8
ATOM      5  C   UNL     1       3.239   3.243  18.238  0.00  0.00    +0.000 A 
ATOM      6  C   UNL     1       4.348   3.201  19.086  0.00  0.00    +0.000 A 
ATOM      7  C   UNL     1       5.240   4.270  19.139  0.00  0.00    +0.000 A 
ATOM      8  C   UNL     1       5.052   5.358  18.293  0.00  0.00    +0.000 A 
ATOM      9  C   UNL     1       3.930   5.417  17.464  0.00  0.00    +0.000 A 
ATOM     10  C   UNL     1       3.033   4.353  17.420  0.00  0.00    +0.000 A 
BRANCH   5  11
ATOM     11  O   UNL     1       2.431   2.144  18.276  0.00  0.00    +0.000 OA
BRANCH  11  12
ATOM     12  C   UNL     1       1.101   2.373  18.737  0.00  0.00    +0.000 C 
BRANCH  12  13
ATOM     13  C   UNL     1       1.142   2.884  20.165  0.00  0.00    +0.000 C 
ATOM     14  O   UNL     1       1.581   2.281  21.132  0.00  0.00    +0.000 OA
BRANCH  13  16
ATOM     15  C   UNL     1       1.555   5.117  20.721  0.00  0.00    +0.000 C 
ATOM     16  O   UNL     1       0.632   4.151  20.206  0.00  0.00    +0.000 OA
ENDBRANCH  13  16
ENDBRANCH  12  13
ENDBRANCH  11  12
ENDBRANCH   5  11
ENDBRANCH   1   8
BRANCH   2  17
ATOM     17  C   UNL     1       7.356   5.478  16.396  0.00  0.00    +0.000 C 
BRANCH  17  18
ATOM     18  O   UNL     1       7.046   6.009  15.113  0.00  0.00    +0.000 OA
BRANCH  18  19
ATOM     19  C   UNL     1       6.773   5.139  14.090  0.00  0.00    +0.000 A 
ATOM     20  C   UNL     1       5.750   4.230  14.405  0.00  0.00    +0.000 A 
ATOM     21  C   UNL     1       5.382   3.208  13.523  0.00  0.00    +0.000 A 
ATOM     22  C   UNL     1       6.038   3.074  12.302  0.00  0.00    +0.000 A 
ATOM     23  C   UNL     1       5.688   1.978  11.339  0.00  0.00    +0.000 C 
ATOM     24  C   UNL     1       7.058   3.978  11.984  0.00  0.00    +0.000 A 
ATOM     25  C   UNL     1       7.448   5.009  12.866  0.00  0.00    +0.000 A 
ATOM     26  C   UNL     1       8.597   5.869  12.429  0.00  0.00    +0.000 C 
ENDBRANCH  18  19
ENDBRANCH  17  18
ENDBRANCH   2  17
TORSDOF 8
ENDMDL
MODEL 8
REMARK VINA RESULT:      -7.0      2.815      7.465
REMARK  Name = 
REMARK  11 active torsions:
REMARK  status: ('A' for Active; 'I' for Inactive)
REMARK    1  A    between atoms: C_1  and  O_2
REMARK    2  A    between atoms: O_2  and  C_3
REMARK    3  A    between atoms: C_3  and  C_5
REMARK    4  A    between atoms: C_5  and  O_6
REMARK    5  A    between atoms: O_6  and  C_7
REMARK    6  A    between atoms: C_10  and  N_11
REMARK    7  A    between atoms: C_12  and  C_14
REMARK    8  A    between atoms: C_14  and  O_15
REMARK    9  A    between atoms: O_15  and  C_16
REMARK   10  A    between atoms: C_19  and  C_20
REMARK   11  A    between atoms: C_22  and  C_23
REMARK                            x       y       z     vdW  Elec       q    Type
REMARK                         _______ _______ _______ _____ _____    ______ ____
ROOT
ATOM      1  N   UNL     1       3.189   3.098  20.456  0.00  0.00    +0.000 N 
ATOM      2  C   UNL     1       2.215   3.745  21.172  0.00  0.00    +0.000 C 
ATOM      3  O   UNL     1       1.990   3.366  22.327  0.00  0.00    +0.000 OA
ATOM      4  H   UNL     1       3.827   2.592  21.059  0.00  0.00    +0.000 HD
ENDROOT
BRANCH   1   8
ATOM      5  C   UNL     1       4.402   4.067  16.574  0.00  0.00    +0.000 A 
ATOM      6  C   UNL     1       5.201   4.396  17.671  0.00  0.00    +0.000 A 
ATOM      7  C   UNL     1       4.816   4.035  18.961  0.00  0.00    +0.000 A 
ATOM      8  C   UNL     1       3.595   3.398  19.155  0.00  0.00    +0.000 A 
ATOM      9  C   UNL     1       2.806   3.042  18.059  0.00  0.00    +0.000 A 
ATOM     10  C   UNL     1       3.198   3.393  16.769  0.00  0.00    +0.000 A 
BRANCH   5  11
ATOM     11  O   UNL     1       4.883   4.463  15.360  0.00  0.00    +0.000 OA
BRANCH  11  12
ATOM     12  C   UNL     1       6.192   5.029  15.370  0.00  0.00    +0.000 C 
BRANCH  12  13
ATOM     13  C   UNL     1       6.903   4.680  14.075  0.00  0.00    +0.000 C 
ATOM     14  O   UNL     1       6.506   3.897  13.225  0.00  0.00    +0.000 OA
BRANCH  13  16
ATOM     15  C   UNL     1       8.354   5.836  12.653  0.00  0.00    +0.000 C 
ATOM     16  O   UNL     1       8.058   5.404  13.985  0.00  0.00    +0.000 OA
ENDBRANCH  13  16
ENDBRANCH  12  13
ENDBRANCH  11  12
ENDBRANCH   5  11
ENDBRANCH   1   8
BRANCH   2  17
ATOM     17  C   UNL     1       1.501   4.970  20.592  0.00  0.00    +0.000 C 
BRANCH  17  18
ATOM     18  O   UNL     1       2.348   6.102  20.737  0.00  0.00    +0.000 OA
BRANCH  18  19
ATOM     19  C   UNL     1       1.917   7.312  20.262  0.00  0.00    +0.000 A 
ATOM     20  C   UNL     1       1.061   7.977  21.155  0.00  0.00    +0.000 A 
ATOM     21  C   UNL     1       0.448   9.188  20.818  0.00  0.00    +0.000 A 
ATOM     22  C   UNL     1       0.679   9.760  19.570  0.00  0.00    +0.000 A 
ATOM     23  C   UNL     1       0.023  11.047  19.163  0.00  0.00    +0.000 C 
ATOM     24  C   UNL     1       1.531   9.102  18.677  0.00  0.00    +0.000 A 
ATOM     25  C   UNL     1       2.151   7.875  18.997  0.00  0.00    +0.000 A 
ATOM     26  C   UNL     1       2.990   7.245  17.924  0.00  0.00    +0.000 C 
ENDBRANCH  18  19
ENDBRANCH  17  18
ENDBRANCH   2  17
TORSDOF 8
ENDMDL
MODEL 9
REMARK VINA RESULT:      -6.9      0.905      1.117
REMARK  Name = 
REMARK  11 active torsions:
REMARK  status: ('A' for Active; 'I' for Inactive)
REMARK    1  A    between atoms: C_1  and  O_2
REMARK    2  A    between atoms: O_2  and  C_3
REMARK    3  A    between atoms: C_3  and  C_5
REMARK    4  A    between atoms: C_5  and  O_6
REMARK    5  A    between atoms: O_6  and  C_7
REMARK    6  A    between atoms: C_10  and  N_11
REMARK    7  A    between atoms: C_12  and  C_14
REMARK    8  A    between atoms: C_14  and  O_15
REMARK    9  A    between atoms: O_15  and  C_16
REMARK   10  A    between atoms: C_19  and  C_20
REMARK   11  A    between atoms: C_22  and  C_23
REMARK                            x       y       z     vdW  Elec       q    Type
REMARK                         _______ _______ _______ _____ _____    ______ ____
ROOT
ATOM      1  N   UNL     1       2.593   4.481  17.835  0.00  0.00    +0.000 N 
ATOM      2  C   UNL     1       3.721   3.701  17.829  0.00  0.00    +0.000 C 
ATOM      3  O   UNL     1       3.788   2.775  17.013  0.00  0.00    +0.000 OA
ATOM      4  H   UNL     1       2.079   4.406  16.964  0.00  0.00    +0.000 HD
ENDROOT
BRANCH   1   8
ATOM      5  C   UNL     1       1.794   7.743  20.324  0.00  0.00    +0.000 A 
ATOM      6  C   UNL     1       1.683   6.437  20.807  0.00  0.00    +0.000 A 
ATOM      7  C   UNL     1       1.991   5.352  19.989  0.00  0.00    +0.000 A 
ATOM      8  C   UNL     1       2.350   5.576  18.663  0.00  0.00    +0.000 A 
ATOM      9  C   UNL     1       2.489   6.881  18.185  0.00  0.00    +0.000 A 
ATOM     10  C   UNL     1       2.192   7.965  19.007  0.00  0.00    +0.000 A 
BRANCH   5  11
ATOM     11  O   UNL     1       1.475   8.726  21.216  0.00  0.00    +0.000 OA
BRANCH  11  12
ATOM     12  C   UNL     1       0.232   9.385  20.989  0.00  0.00    +0.000 C 
BRANCH  12  13
ATOM     13  C   UNL     1       0.490  10.827  20.594  0.00  0.00    +0.000 C 
ATOM     14  O   UNL     1       0.872  11.719  21.335  0.00  0.00    +0.000 OA
BRANCH  13  16
ATOM     15  C   UNL     1      -1.080  10.627  18.873  0.00  0.00    +0.000 C 
ATOM     16  O   UNL     1       0.253  10.978  19.256  0.00  0.00    +0.000 OA
ENDBRANCH  13  16
ENDBRANCH  12  13
ENDBRANCH  11  12
ENDBRANCH   5  11
ENDBRANCH   1   8
BRANCH   2  17
ATOM     17  C   UNL     1       4.908   4.036  18.739  0.00  0.00    +0.000 C 
BRANCH  17  18
ATOM     18  O   UNL     1       6.069   4.192  17.932  0.00  0.00    +0.000 OA
BRANCH  18  19
ATOM     19  C   UNL     1       6.625   5.438  17.814  0.00  0.00    +0.000 A 
ATOM     20  C   UNL     1       7.594   5.700  18.796  0.00  0.00    +0.000 A 
ATOM     21  C   UNL     1       8.218   6.948  18.895  0.00  0.00    +0.000 A 
ATOM     22  C   UNL     1       7.878   7.967  18.010  0.00  0.00    +0.000 A 
ATOM     23  C   UNL     1       8.508   9.326  18.098  0.00  0.00    +0.000 C 
ATOM     24  C   UNL     1       6.913   7.712  17.030  0.00  0.00    +0.000 A 
ATOM     25  C   UNL     1       6.268   6.461  16.920  0.00  0.00    +0.000 A 
ATOM     26  C   UNL     1       5.207   6.341  15.866  0.00  0.00    +0.000 C 
ENDBRANCH  18  19
ENDBRANCH  17  18
ENDBRANCH   2  17
TORSDOF 8
ENDMDL
