MODEL 1
REMARK VINA RESULT:      -7.8      0.000      0.000
REMARK  Name = 
REMARK  13 active torsions:
REMARK  status: ('A' for Active; 'I' for Inactive)
REMARK    1  A    between atoms: N_8  and  C_9
REMARK    2  A    between atoms: C_12  and  C_14
REMARK    3  A    between atoms: C_14  and  C_15
REMARK    4  A    between atoms: C_15  and  P_16
REMARK    5  A    between atoms: P_16  and  O_18
REMARK    6  A    between atoms: P_16  and  O_19
REMARK    7  A    between atoms: C_21  and  O_22
REMARK    8  A    between atoms: O_22  and  C_23
REMARK    9  A    between atoms: C_23  and  C_24
REMARK   10  A    between atoms: C_24  and  O_25
REMARK   11  A    between atoms: C_24  and  P_26
REMARK   12  A    between atoms: P_26  and  O_28
REMARK   13  A    between atoms: P_26  and  O_29
REMARK                            x       y       z     vdW  Elec       q    Type
REMARK                         _______ _______ _______ _____ _____    ______ ____
ROOT
ATOM      1  C   UNL     1       2.815   7.100  18.175  0.00  0.00    +0.000 C 
ATOM      2  C   UNL     1       2.460   8.590  18.168  0.00  0.00    +0.000 C 
ATOM      3  N   UNL     1       1.507   8.725  19.250  0.00  0.00    +0.000 N 
ATOM      4  C   UNL     1       0.404   9.522  19.389  0.00  0.00    +0.000 C 
ATOM      5  O   UNL     1      -0.220   9.610  20.446  0.00  0.00    +0.000 OA
ATOM      6  C   UNL     1       1.779   7.757  20.260  0.00  0.00    +0.000 C 
ATOM      7  C   UNL     1       2.812   6.780  19.684  0.00  0.00    +0.000 C 
ENDROOT
BRANCH   1  15
ATOM      8  N   UNL     1       4.157   2.026  17.353  0.00  0.00    +0.000 N 
ATOM      9  C   UNL     1       4.627   3.273  17.112  0.00  0.00    +0.000 A 
ATOM     10  N   UNL     1       3.960   4.314  17.524  0.00  0.00    +0.000 NA
ATOM     11  C   UNL     1       4.519   5.502  17.202  0.00  0.00    +0.000 A 
ATOM     12  C   UNL     1       5.686   5.715  16.512  0.00  0.00    +0.000 A 
ATOM     13  N   UNL     1       5.926   7.051  16.328  0.00  0.00    +0.000 NA
ATOM     14  C   UNL     1       4.903   7.648  16.898  0.00  0.00    +0.000 A 
ATOM     15  N   UNL     1       4.037   6.755  17.487  0.00  0.00    +0.000 N 
ATOM     16  C   UNL     1       6.423   4.552  16.080  0.00  0.00    +0.000 A 
ATOM     17  O   UNL     1       7.486   4.571  15.456  0.00  0.00    +0.000 OA
ATOM     18  N   UNL     1       5.819   3.359  16.433  0.00  0.00    +0.000 N 
ATOM     19  H   UNL     1       3.387   2.013  18.016  0.00  0.00    +0.000 HD
ATOM     20  H   UNL     1       4.831   1.291  17.509  0.00  0.00    +0.000 HD
ATOM     21  H   UNL     1       6.279   2.528  16.109  0.00  0.00    +0.000 HD
ENDBRANCH   1  15
BRANCH   4  22
ATOM     22  C   UNL     1      -0.069  10.231  18.157  0.00  0.00    +0.000 C 
BRANCH  22  23
ATOM     23  C   UNL     1      -1.554  10.495  18.294  0.00  0.00    +0.000 C 
BRANCH  23  24
ATOM     24  P   UNL     1      -2.471  10.140  16.749  0.00  0.00    +0.000 P 
ATOM     25  O   UNL     1      -3.811  10.137  17.490  0.00  0.00    +0.000 OA
BRANCH  24  26
ATOM     26  O   UNL     1      -2.228  11.674  16.234  0.00  0.00    +0.000 OA
ATOM     27  H   UNL     1      -3.042  12.207  16.182  0.00  0.00    +0.000 HD
ENDBRANCH  24  26
BRANCH  24  28
ATOM     28  O   UNL     1      -3.338   9.806  15.290  0.00  0.00    +0.000 OA
ATOM     29  H   UNL     1      -2.624   9.719  14.625  0.00  0.00    +0.000 HD
ENDBRANCH  24  28
ENDBRANCH  23  24
ENDBRANCH  22  23
ENDBRANCH   4  22
BRANCH   7  30
ATOM     30  O   UNL     1       2.396   5.420  19.834  0.00  0.00    +0.000 OA
BRANCH  30  31
ATOM     31  C   UNL     1       2.238   5.008  21.182  0.00  0.00    +0.000 C 
BRANCH  31  32
ATOM     32  C   UNL     1       1.464   3.721  21.168  0.00  0.00    +0.000 C 
BRANCH  32  33
ATOM     33  O   UNL     1       2.161   2.718  21.951  0.00  0.00    +0.000 OA
ATOM     34  H   UNL     1       2.838   3.228  22.455  0.00  0.00    +0.000 HD
ENDBRANCH  32  33
BRANCH  32  35
ATOM     35  P   UNL     1       1.350   3.182  19.423  0.00  0.00    +0.000 P 
ATOM     36  O   UNL     1       2.312   2.007  19.673  0.00  0.00    +0.000 OA
BRANCH  35  37
ATOM     37  O   UNL     1      -0.131   2.537  19.694  0.00  0.00    +0.000 OA
ATOM     38  H   UNL     1      -0.501   2.110  18.898  0.00  0.00    +0.000 HD
ENDBRANCH  35  37
BRANCH  35  39
ATOM     39  O   UNL     1       1.243   2.674  17.773  0.00  0.00    +0.000 OA
ATOM     40  H   UNL     1       2.067   2.994  17.354  0.00  0.00    +0.000 HD
ENDBRANCH  35  39
ENDBRANCH  32  35
ENDBRANCH  31  32
ENDBRANCH  30  31
ENDBRANCH   7  30
TORSDOF 13
ENDMDL
MODEL 2
REMARK VINA RESULT:      -7.6      3.209      5.102
REMARK  Name = 
REMARK  13 active torsions:
REMARK  status: ('A' for Active; 'I' for Inactive)
REMARK    1  A    between atoms: N_8  and  C_9
REMARK    2  A    between atoms: C_12  and  C_14
REMARK    3  A    between atoms: C_14  and  C_15
REMARK    4  A    between atoms: C_15  and  P_16
REMARK    5  A    between atoms: P_16  and  O_18
REMARK    6  A    between atoms: P_16  and  O_19
REMARK    7  A    between atoms: C_21  and  O_22
REMARK    8  A    between atoms: O_22  and  C_23
REMARK    9  A    between atoms: C_23  and  C_24
REMARK   10  A    between atoms: C_24  and  O_25
REMARK   11  A    between atoms: C_24  and  P_26
REMARK   12  A    between atoms: P_26  and  O_28
REMARK   13  A    between atoms: P_26  and  O_29
REMARK                            x       y       z     vdW  Elec       q    Type
REMARK                         _______ _______ _______ _____ _____    ______ ____
ROOT
ATOM      1  C   UNL     1       3.678   6.496  19.117  0.00  0.00    +0.000 C 
ATOM      2  C   UNL     1       2.343   6.776  19.812  0.00  0.00    +0.000 C 
ATOM      3  N   UNL     1       1.918   8.041  19.250  0.00  0.00    +0.000 N 
ATOM      4  C   UNL     1       1.246   9.097  19.804  0.00  0.00    +0.000 C 
ATOM      5  O   UNL     1       0.839  10.046  19.135  0.00  0.00    +0.000 OA
ATOM      6  C   UNL     1       2.409   8.170  17.919  0.00  0.00    +0.000 C 
ATOM      7  C   UNL     1       3.416   7.035  17.696  0.00  0.00    +0.000 C 
ENDROOT
BRANCH   1  15
ATOM      8  N   UNL     1       0.237   2.478  18.623  0.00  0.00    +0.000 N 
ATOM      9  C   UNL     1       1.562   2.690  18.809  0.00  0.00    +0.000 A 
ATOM     10  N   UNL     1       2.024   3.905  18.901  0.00  0.00    +0.000 NA
ATOM     11  C   UNL     1       3.363   3.985  19.063  0.00  0.00    +0.000 A 
ATOM     12  C   UNL     1       4.258   2.947  19.144  0.00  0.00    +0.000 A 
ATOM     13  N   UNL     1       5.545   3.399  19.263  0.00  0.00    +0.000 NA
ATOM     14  C   UNL     1       5.434   4.709  19.245  0.00  0.00    +0.000 A 
ATOM     15  N   UNL     1       4.124   5.123  19.170  0.00  0.00    +0.000 N 
ATOM     16  C   UNL     1       3.728   1.608  19.061  0.00  0.00    +0.000 A 
ATOM     17  O   UNL     1       4.394   0.571  19.121  0.00  0.00    +0.000 OA
ATOM     18  N   UNL     1       2.355   1.571  18.901  0.00  0.00    +0.000 N 
ATOM     19  H   UNL     1      -0.321   3.317  18.755  0.00  0.00    +0.000 HD
ATOM     20  H   UNL     1      -0.172   1.656  19.041  0.00  0.00    +0.000 HD
ATOM     21  H   UNL     1       1.956   0.656  18.792  0.00  0.00    +0.000 HD
ENDBRANCH   1  15
BRANCH   4  22
ATOM     22  C   UNL     1       1.097   9.087  21.295  0.00  0.00    +0.000 C 
BRANCH  22  23
ATOM     23  C   UNL     1      -0.377   9.177  21.631  0.00  0.00    +0.000 C 
BRANCH  23  24
ATOM     24  P   UNL     1      -0.777  10.663  22.623  0.00  0.00    +0.000 P 
ATOM     25  O   UNL     1      -0.020  10.114  23.835  0.00  0.00    +0.000 OA
BRANCH  24  26
ATOM     26  O   UNL     1       0.298  11.546  21.763  0.00  0.00    +0.000 OA
ATOM     27  H   UNL     1       0.885  12.098  22.312  0.00  0.00    +0.000 HD
ENDBRANCH  24  26
BRANCH  24  28
ATOM     28  O   UNL     1      -1.154  12.066  23.561  0.00  0.00    +0.000 OA
ATOM     29  H   UNL     1      -0.737  11.871  24.426  0.00  0.00    +0.000 HD
ENDBRANCH  24  28
ENDBRANCH  23  24
ENDBRANCH  22  23
ENDBRANCH   4  22
BRANCH   7  30
ATOM     30  O   UNL     1       4.660   7.522  17.185  0.00  0.00    +0.000 OA
BRANCH  30  31
ATOM     31  C   UNL     1       5.081   6.889  15.987  0.00  0.00    +0.000 C 
BRANCH  31  32
ATOM     32  C   UNL     1       6.195   5.949  16.346  0.00  0.00    +0.000 C 
BRANCH  32  33
ATOM     33  O   UNL     1       7.452   6.672  16.401  0.00  0.00    +0.000 OA
ATOM     34  H   UNL     1       7.218   7.591  16.131  0.00  0.00    +0.000 HD
ENDBRANCH  32  33
BRANCH  32  35
ATOM     35  P   UNL     1       6.266   4.674  15.035  0.00  0.00    +0.000 P 
ATOM     36  O   UNL     1       7.697   5.084  14.646  0.00  0.00    +0.000 OA
BRANCH  35  37
ATOM     37  O   UNL     1       6.488   3.500  16.156  0.00  0.00    +0.000 OA
ATOM     38  H   UNL     1       5.809   2.800  16.101  0.00  0.00    +0.000 HD
ENDBRANCH  35  37
BRANCH  35  39
ATOM     39  O   UNL     1       6.331   3.469  13.796  0.00  0.00    +0.000 OA
ATOM     40  H   UNL     1       7.275   3.219  13.733  0.00  0.00    +0.000 HD
ENDBRANCH  35  39
ENDBRANCH  32  35
ENDBRANCH  31  32
ENDBRANCH  30  31
ENDBRANCH   7  30
TORSDOF 13
ENDMDL
MODEL 3
REMARK VINA RESULT:      -7.5      1.660      2.767
REMARK  Name = 
REMARK  13 active torsions:
REMARK  status: ('A' for Active; 'I' for Inactive)
REMARK    1  A    between atoms: N_8  and  C_9
REMARK    2  A    between atoms: C_12  and  C_14
REMARK    3  A    between atoms: C_14  and  C_15
REMARK    4  A    between atoms: C_15  and  P_16
REMARK    5  A    between atoms: P_16  and  O_18
REMARK    6  A    between atoms: P_16  and  O_19
REMARK    7  A    between atoms: C_21  and  O_22
REMARK    8  A    between atoms: O_22  and  C_23
REMARK    9  A    between atoms: C_23  and  C_24
REMARK   10  A    between atoms: C_24  and  O_25
REMARK   11  A    between atoms: C_24  and  P_26
REMARK   12  A    between atoms: P_26  and  O_28
REMARK   13  A    between atoms: P_26  and  O_29
REMARK                            x       y       z     vdW  Elec       q    Type
REMARK                         _______ _______ _______ _____ _____    ______ ____
ROOT
ATOM      1  C   UNL     1       2.729   6.238  18.077  0.00  0.00    +0.000 C 
ATOM      2  C   UNL     1       2.820   7.767  18.120  0.00  0.00    +0.000 C 
ATOM      3  N   UNL     1       1.993   8.132  19.251  0.00  0.00    +0.000 N 
ATOM      4  C   UNL     1       1.174   9.207  19.463  0.00  0.00    +0.000 C 
ATOM      5  O   UNL     1       0.648   9.433  20.552  0.00  0.00    +0.000 OA
ATOM      6  C   UNL     1       2.016   7.092  20.225  0.00  0.00    +0.000 C 
ATOM      7  C   UNL     1       2.697   5.880  19.576  0.00  0.00    +0.000 C 
ENDROOT
BRANCH   1  15
ATOM      8  N   UNL     1       7.545   8.422  17.568  0.00  0.00    +0.000 N 
ATOM      9  C   UNL     1       6.863   7.319  17.181  0.00  0.00    +0.000 A 
ATOM     10  N   UNL     1       5.615   7.167  17.524  0.00  0.00    +0.000 NA
ATOM     11  C   UNL     1       5.051   6.015  17.096  0.00  0.00    +0.000 A 
ATOM     12  C   UNL     1       5.641   5.023  16.354  0.00  0.00    +0.000 A 
ATOM     13  N   UNL     1       4.784   3.976  16.139  0.00  0.00    +0.000 NA
ATOM     14  C   UNL     1       3.678   4.328  16.757  0.00  0.00    +0.000 A 
ATOM     15  N   UNL     1       3.768   5.581  17.320  0.00  0.00    +0.000 N 
ATOM     16  C   UNL     1       7.017   5.215  15.964  0.00  0.00    +0.000 A 
ATOM     17  O   UNL     1       7.688   4.424  15.297  0.00  0.00    +0.000 OA
ATOM     18  N   UNL     1       7.553   6.406  16.418  0.00  0.00    +0.000 N 
ATOM     19  H   UNL     1       6.945   9.144  17.958  0.00  0.00    +0.000 HD
ATOM     20  H   UNL     1       8.251   8.783  16.944  0.00  0.00    +0.000 HD
ATOM     21  H   UNL     1       8.523   6.553  16.207  0.00  0.00    +0.000 HD
ENDBRANCH   1  15
BRANCH   4  22
ATOM     22  C   UNL     1       0.874  10.065  18.272  0.00  0.00    +0.000 C 
BRANCH  22  23
ATOM     23  C   UNL     1      -0.625  10.268  18.191  0.00  0.00    +0.000 C 
BRANCH  23  24
ATOM     24  P   UNL     1      -1.121  11.979  18.612  0.00  0.00    +0.000 P 
ATOM     25  O   UNL     1      -2.470  11.812  17.908  0.00  0.00    +0.000 OA
BRANCH  24  26
ATOM     26  O   UNL     1      -1.352  11.545  20.172  0.00  0.00    +0.000 OA
ATOM     27  H   UNL     1      -2.164  11.029  20.322  0.00  0.00    +0.000 HD
ENDBRANCH  24  26
BRANCH  24  28
ATOM     28  O   UNL     1      -1.590  13.596  19.011  0.00  0.00    +0.000 OA
ATOM     29  H   UNL     1      -0.984  13.826  19.745  0.00  0.00    +0.000 HD
ENDBRANCH  24  28
ENDBRANCH  23  24
ENDBRANCH  22  23
ENDBRANCH   4  22
BRANCH   7  30
ATOM     30  O   UNL     1       1.913   4.693  19.718  0.00  0.00    +0.000 OA
BRANCH  30  31
ATOM     31  C   UNL     1       1.873   4.179  21.040  0.00  0.00    +0.000 C 
BRANCH  31  32
ATOM     32  C   UNL     1       2.431   2.786  20.995  0.00  0.00    +0.000 C 
BRANCH  32  33
ATOM     33  O   UNL     1       2.674   2.307  22.343  0.00  0.00    +0.000 OA
ATOM     34  H   UNL     1       2.020   1.579  22.465  0.00  0.00    +0.000 HD
ENDBRANCH  32  33
BRANCH  32  35
ATOM     35  P   UNL     1       4.007   2.868  20.069  0.00  0.00    +0.000 P 
ATOM     36  O   UNL     1       4.712   1.958  21.091  0.00  0.00    +0.000 OA
BRANCH  35  37
ATOM     37  O   UNL     1       3.431   1.822  18.947  0.00  0.00    +0.000 OA
ATOM     38  H   UNL     1       3.034   1.027  19.351  0.00  0.00    +0.000 HD
ENDBRANCH  35  37
BRANCH  35  39
ATOM     39  O   UNL     1       5.497   2.947  19.193  0.00  0.00    +0.000 OA
ATOM     40  H   UNL     1       5.240   3.160  18.273  0.00  0.00    +0.000 HD
ENDBRANCH  35  39
ENDBRANCH  32  35
ENDBRANCH  31  32
ENDBRANCH  30  31
ENDBRANCH   7  30
TORSDOF 13
ENDMDL
MODEL 4
REMARK VINA RESULT:      -7.5      1.233      2.336
REMARK  Name = 
REMARK  13 active torsions:
REMARK  status: ('A' for Active; 'I' for Inactive)
REMARK    1  A    between atoms: N_8  and  C_9
REMARK    2  A    between atoms: C_12  and  C_14
REMARK    3  A    between atoms: C_14  and  C_15
REMARK    4  A    between atoms: C_15  and  P_16
REMARK    5  A    between atoms: P_16  and  O_18
REMARK    6  A    between atoms: P_16  and  O_19
REMARK    7  A    between atoms: C_21  and  O_22
REMARK    8  A    between atoms: O_22  and  C_23
REMARK    9  A    between atoms: C_23  and  C_24
REMARK   10  A    between atoms: C_24  and  O_25
REMARK   11  A    between atoms: C_24  and  P_26
REMARK   12  A    between atoms: P_26  and  O_28
REMARK   13  A    between atoms: P_26  and  O_29
REMARK                            x       y       z     vdW  Elec       q    Type
REMARK                         _______ _______ _______ _____ _____    ______ ____
ROOT
ATOM      1  C   UNL     1       2.680   6.345  18.248  0.00  0.00    +0.000 C 
ATOM      2  C   UNL     1       2.442   7.813  17.882  0.00  0.00    +0.000 C 
ATOM      3  N   UNL     1       1.778   8.358  19.047  0.00  0.00    +0.000 N 
ATOM      4  C   UNL     1       0.797   9.304  19.170  0.00  0.00    +0.000 C 
ATOM      5  O   UNL     1       0.445   9.754  20.260  0.00  0.00    +0.000 OA
ATOM      6  C   UNL     1       2.207   7.667  20.218  0.00  0.00    +0.000 C 
ATOM      7  C   UNL     1       3.005   6.442  19.753  0.00  0.00    +0.000 C 
ENDROOT
BRANCH   1  15
ATOM      8  N   UNL     1       7.502   8.459  17.534  0.00  0.00    +0.000 N 
ATOM      9  C   UNL     1       6.790   7.362  17.182  0.00  0.00    +0.000 A 
ATOM     10  N   UNL     1       5.554   7.230  17.575  0.00  0.00    +0.000 NA
ATOM     11  C   UNL     1       4.959   6.082  17.179  0.00  0.00    +0.000 A 
ATOM     12  C   UNL     1       5.507   5.077  16.422  0.00  0.00    +0.000 A 
ATOM     13  N   UNL     1       4.627   4.040  16.250  0.00  0.00    +0.000 NA
ATOM     14  C   UNL     1       3.551   4.412  16.908  0.00  0.00    +0.000 A 
ATOM     15  N   UNL     1       3.681   5.668  17.456  0.00  0.00    +0.000 N 
ATOM     16  C   UNL     1       6.868   5.247  15.978  0.00  0.00    +0.000 A 
ATOM     17  O   UNL     1       7.502   4.442  15.291  0.00  0.00    +0.000 OA
ATOM     18  N   UNL     1       7.438   6.434  16.401  0.00  0.00    +0.000 N 
ATOM     19  H   UNL     1       6.927   9.191  17.941  0.00  0.00    +0.000 HD
ATOM     20  H   UNL     1       8.188   8.805  16.880  0.00  0.00    +0.000 HD
ATOM     21  H   UNL     1       8.400   6.566  16.150  0.00  0.00    +0.000 HD
ENDBRANCH   1  15
BRANCH   4  22
ATOM     22  C   UNL     1       0.103   9.716  17.908  0.00  0.00    +0.000 C 
BRANCH  22  23
ATOM     23  C   UNL     1      -1.331  10.071  18.242  0.00  0.00    +0.000 C 
BRANCH  23  24
ATOM     24  P   UNL     1      -2.215  10.811  16.820  0.00  0.00    +0.000 P 
ATOM     25  O   UNL     1      -3.540  10.180  17.256  0.00  0.00    +0.000 OA
BRANCH  24  26
ATOM     26  O   UNL     1      -2.147  12.286  17.524  0.00  0.00    +0.000 OA
ATOM     27  H   UNL     1      -2.095  12.257  18.496  0.00  0.00    +0.000 HD
ENDBRANCH  24  26
BRANCH  24  28
ATOM     28  O   UNL     1      -3.051  11.510  15.477  0.00  0.00    +0.000 OA
ATOM     29  H   UNL     1      -2.348  12.013  15.017  0.00  0.00    +0.000 HD
ENDBRANCH  24  28
ENDBRANCH  23  24
ENDBRANCH  22  23
ENDBRANCH   4  22
BRANCH   7  30
ATOM     30  O   UNL     1       2.538   5.240  20.371  0.00  0.00    +0.000 OA
BRANCH  30  31
ATOM     31  C   UNL     1       1.384   4.685  19.760  0.00  0.00    +0.000 C 
BRANCH  31  32
ATOM     32  C   UNL     1       1.438   3.199  19.972  0.00  0.00    +0.000 C 
BRANCH  32  33
ATOM     33  O   UNL     1       0.884   2.865  21.271  0.00  0.00    +0.000 OA
ATOM     34  H   UNL     1       0.101   2.301  21.066  0.00  0.00    +0.000 HD
ENDBRANCH  32  33
BRANCH  32  35
ATOM     35  P   UNL     1       3.200   2.710  19.901  0.00  0.00    +0.000 P 
ATOM     36  O   UNL     1       3.156   2.161  21.338  0.00  0.00    +0.000 OA
BRANCH  35  37
ATOM     37  O   UNL     1       2.827   1.411  18.976  0.00  0.00    +0.000 OA
ATOM     38  H   UNL     1       2.539   1.664  18.078  0.00  0.00    +0.000 HD
ENDBRANCH  35  37
BRANCH  35  39
ATOM     39  O   UNL     1       4.866   2.249  19.834  0.00  0.00    +0.000 OA
ATOM     40  H   UNL     1       5.041   2.064  18.889  0.00  0.00    +0.000 HD
ENDBRANCH  35  39
ENDBRANCH  32  35
ENDBRANCH  31  32
ENDBRANCH  30  31
ENDBRANCH   7  30
TORSDOF 13
ENDMDL
MODEL 5
REMARK VINA RESULT:      -7.4      1.199      1.604
REMARK  Name = 
REMARK  13 active torsions:
REMARK  status: ('A' for Active; 'I' for Inactive)
REMARK    1  A    between atoms: N_8  and  C_9
REMARK    2  A    between atoms: C_12  and  C_14
REMARK    3  A    between atoms: C_14  and  C_15
REMARK    4  A    between atoms: C_15  and  P_16
REMARK    5  A    between atoms: P_16  and  O_18
REMARK    6  A    between atoms: P_16  and  O_19
REMARK    7  A    between atoms: C_21  and  O_22
REMARK    8  A    between atoms: O_22  and  C_23
REMARK    9  A    between atoms: C_23  and  C_24
REMARK   10  A    between atoms: C_24  and  O_25
REMARK   11  A    between atoms: C_24  and  P_26
REMARK   12  A    between atoms: P_26  and  O_28
REMARK   13  A    between atoms: P_26  and  O_29
REMARK                            x       y       z     vdW  Elec       q    Type
REMARK                         _______ _______ _______ _____ _____    ______ ____
ROOT
ATOM      1  C   UNL     1       2.786   7.007  18.215  0.00  0.00    +0.000 C 
ATOM      2  C   UNL     1       2.405   8.490  18.226  0.00  0.00    +0.000 C 
ATOM      3  N   UNL     1       1.527   8.615  19.370  0.00  0.00    +0.000 N 
ATOM      4  C   UNL     1       0.421   9.394  19.582  0.00  0.00    +0.000 C 
ATOM      5  O   UNL     1      -0.130   9.476  20.678  0.00  0.00    +0.000 OA
ATOM      6  C   UNL     1       1.884   7.657  20.363  0.00  0.00    +0.000 C 
ATOM      7  C   UNL     1       2.891   6.695  19.722  0.00  0.00    +0.000 C 
ENDROOT
BRANCH   1  15
ATOM      8  N   UNL     1       4.246   1.955  17.460  0.00  0.00    +0.000 N 
ATOM      9  C   UNL     1       4.649   3.208  17.142  0.00  0.00    +0.000 A 
ATOM     10  N   UNL     1       3.979   4.240  17.570  0.00  0.00    +0.000 NA
ATOM     11  C   UNL     1       4.468   5.434  17.166  0.00  0.00    +0.000 A 
ATOM     12  C   UNL     1       5.570   5.661  16.381  0.00  0.00    +0.000 A 
ATOM     13  N   UNL     1       5.746   6.997  16.135  0.00  0.00    +0.000 NA
ATOM     14  C   UNL     1       4.748   7.579  16.763  0.00  0.00    +0.000 A 
ATOM     15  N   UNL     1       3.963   6.679  17.446  0.00  0.00    +0.000 N 
ATOM     16  C   UNL     1       6.314   4.510  15.932  0.00  0.00    +0.000 A 
ATOM     17  O   UNL     1       7.325   4.542  15.227  0.00  0.00    +0.000 OA
ATOM     18  N   UNL     1       5.783   3.310  16.370  0.00  0.00    +0.000 N 
ATOM     19  H   UNL     1       3.529   1.940  18.180  0.00  0.00    +0.000 HD
ATOM     20  H   UNL     1       4.956   1.249  17.587  0.00  0.00    +0.000 HD
ATOM     21  H   UNL     1       6.246   2.485  16.039  0.00  0.00    +0.000 HD
ENDBRANCH   1  15
BRANCH   4  22
ATOM     22  C   UNL     1      -0.147  10.088  18.382  0.00  0.00    +0.000 C 
BRANCH  22  23
ATOM     23  C   UNL     1      -1.321  10.935  18.828  0.00  0.00    +0.000 C 
BRANCH  23  24
ATOM     24  P   UNL     1      -0.982  12.728  18.684  0.00  0.00    +0.000 P 
ATOM     25  O   UNL     1       0.514  12.512  18.922  0.00  0.00    +0.000 OA
BRANCH  24  26
ATOM     26  O   UNL     1      -1.212  12.658  17.066  0.00  0.00    +0.000 OA
ATOM     27  H   UNL     1      -2.131  12.467  16.806  0.00  0.00    +0.000 HD
ENDBRANCH  24  26
BRANCH  24  28
ATOM     28  O   UNL     1      -0.662  14.422  18.548  0.00  0.00    +0.000 OA
ATOM     29  H   UNL     1      -1.457  14.760  18.086  0.00  0.00    +0.000 HD
ENDBRANCH  24  28
ENDBRANCH  23  24
ENDBRANCH  22  23
ENDBRANCH   4  22
BRANCH   7  30
ATOM     30  O   UNL     1       2.510   5.329  19.906  0.00  0.00    +0.000 OA
BRANCH  30  31
ATOM     31  C   UNL     1       2.218   4.986  21.251  0.00  0.00    +0.000 C 
BRANCH  31  32
ATOM     32  C   UNL     1       1.663   3.590  21.245  0.00  0.00    +0.000 C 
BRANCH  32  33
ATOM     33  O   UNL     1       2.590   2.688  21.903  0.00  0.00    +0.000 OA
ATOM     34  H   UNL     1       3.399   2.714  21.339  0.00  0.00    +0.000 HD
ENDBRANCH  32  33
BRANCH  32  35
ATOM     35  P   UNL     1       1.456   3.102  19.494  0.00  0.00    +0.000 P 
ATOM     36  O   UNL     1       2.306   1.835  19.695  0.00  0.00    +0.000 OA
BRANCH  35  37
ATOM     37  O   UNL     1      -0.073   2.596  19.791  0.00  0.00    +0.000 OA
ATOM     38  H   UNL     1      -0.708   3.337  19.834  0.00  0.00    +0.000 HD
ENDBRANCH  35  37
BRANCH  35  39
ATOM     39  O   UNL     1       1.260   2.642  17.838  0.00  0.00    +0.000 OA
ATOM     40  H   UNL     1       2.099   2.202  17.594  0.00  0.00    +0.000 HD
ENDBRANCH  35  39
ENDBRANCH  32  35
ENDBRANCH  31  32
ENDBRANCH  30  31
ENDBRANCH   7  30
TORSDOF 13
ENDMDL
MODEL 6
REMARK VINA RESULT:      -7.4      1.088      2.207
REMARK  Name = 
REMARK  13 active torsions:
REMARK  status: ('A' for Active; 'I' for Inactive)
REMARK    1  A    between atoms: N_8  and  C_9
REMARK    2  A    between atoms: C_12  and  C_14
REMARK    3  A    between atoms: C_14  and  C_15
REMARK    4  A    between atoms: C_15  and  P_16
REMARK    5  A    between atoms: P_16  and  O_18
REMARK    6  A    between atoms: P_16  and  O_19
REMARK    7  A    between atoms: C_21  and  O_22
REMARK    8  A    between atoms: O_22  and  C_23
REMARK    9  A    between atoms: C_23  and  C_24
REMARK   10  A    between atoms: C_24  and  O_25
REMARK   11  A    between atoms: C_24  and  P_26
REMARK   12  A    between atoms: P_26  and  O_28
REMARK   13  A    between atoms: P_26  and  O_29
REMARK                            x       y       z     vdW  Elec       q    Type
REMARK                         _______ _______ _______ _____ _____    ______ ____
ROOT
ATOM      1  C   UNL     1       2.788   6.336  18.306  0.00  0.00    +0.000 C 
ATOM      2  C   UNL     1       2.473   7.783  17.916  0.00  0.00    +0.000 C 
ATOM      3  N   UNL     1       1.851   8.334  19.101  0.00  0.00    +0.000 N 
ATOM      4  C   UNL     1       0.841   9.246  19.253  0.00  0.00    +0.000 C 
ATOM      5  O   UNL     1       0.528   9.710  20.348  0.00  0.00    +0.000 OA
ATOM      6  C   UNL     1       2.367   7.691  20.264  0.00  0.00    +0.000 C 
ATOM      7  C   UNL     1       3.186   6.486  19.788  0.00  0.00    +0.000 C 
ENDROOT
BRANCH   1  15
ATOM      8  N   UNL     1       7.592   8.469  17.532  0.00  0.00    +0.000 N 
ATOM      9  C   UNL     1       6.874   7.378  17.174  0.00  0.00    +0.000 A 
ATOM     10  N   UNL     1       5.647   7.237  17.590  0.00  0.00    +0.000 NA
ATOM     11  C   UNL     1       5.044   6.098  17.184  0.00  0.00    +0.000 A 
ATOM     12  C   UNL     1       5.575   5.108  16.395  0.00  0.00    +0.000 A 
ATOM     13  N   UNL     1       4.694   4.075  16.220  0.00  0.00    +0.000 NA
ATOM     14  C   UNL     1       3.631   4.432  16.908  0.00  0.00    +0.000 A 
ATOM     15  N   UNL     1       3.772   5.676  17.479  0.00  0.00    +0.000 N 
ATOM     16  C   UNL     1       6.927   5.289  15.925  0.00  0.00    +0.000 A 
ATOM     17  O   UNL     1       7.547   4.499  15.208  0.00  0.00    +0.000 OA
ATOM     18  N   UNL     1       7.505   6.467  16.360  0.00  0.00    +0.000 N 
ATOM     19  H   UNL     1       7.026   9.192  17.966  0.00  0.00    +0.000 HD
ATOM     20  H   UNL     1       8.264   8.829  16.871  0.00  0.00    +0.000 HD
ATOM     21  H   UNL     1       8.462   6.606  16.092  0.00  0.00    +0.000 HD
ENDBRANCH   1  15
BRANCH   4  22
ATOM     22  C   UNL     1       0.067   9.597  18.019  0.00  0.00    +0.000 C 
BRANCH  22  23
ATOM     23  C   UNL     1      -1.206  10.305  18.436  0.00  0.00    +0.000 C 
BRANCH  23  24
ATOM     24  P   UNL     1      -2.173  10.903  17.001  0.00  0.00    +0.000 P 
ATOM     25  O   UNL     1      -3.468  10.908  17.817  0.00  0.00    +0.000 OA
BRANCH  24  26
ATOM     26  O   UNL     1      -1.517  12.392  17.158  0.00  0.00    +0.000 OA
ATOM     27  H   UNL     1      -2.162  13.087  17.380  0.00  0.00    +0.000 HD
ENDBRANCH  24  26
BRANCH  24  28
ATOM     28  O   UNL     1      -3.088  11.467  15.646  0.00  0.00    +0.000 OA
ATOM     29  H   UNL     1      -3.869  11.882  16.065  0.00  0.00    +0.000 HD
ENDBRANCH  24  28
ENDBRANCH  23  24
ENDBRANCH  22  23
ENDBRANCH   4  22
BRANCH   7  30
ATOM     30  O   UNL     1       2.800   5.284  20.460  0.00  0.00    +0.000 OA
BRANCH  30  31
ATOM     31  C   UNL     1       1.409   5.010  20.403  0.00  0.00    +0.000 C 
BRANCH  31  32
ATOM     32  C   UNL     1       1.201   3.634  20.967  0.00  0.00    +0.000 C 
BRANCH  32  33
ATOM     33  O   UNL     1       2.137   3.398  22.051  0.00  0.00    +0.000 OA
ATOM     34  H   UNL     1       2.813   4.110  21.950  0.00  0.00    +0.000 HD
ENDBRANCH  32  33
BRANCH  32  35
ATOM     35  P   UNL     1       1.507   2.446  19.610  0.00  0.00    +0.000 P 
ATOM     36  O   UNL     1       1.024   3.455  18.552  0.00  0.00    +0.000 OA
BRANCH  35  37
ATOM     37  O   UNL     1       3.120   2.719  19.701  0.00  0.00    +0.000 OA
ATOM     38  H   UNL     1       3.348   3.361  20.400  0.00  0.00    +0.000 HD
ENDBRANCH  35  37
BRANCH  35  39
ATOM     39  O   UNL     1       1.796   1.321  18.327  0.00  0.00    +0.000 OA
ATOM     40  H   UNL     1       2.703   0.987  18.481  0.00  0.00    +0.000 HD
ENDBRANCH  35  39
ENDBRANCH  32  35
ENDBRANCH  31  32
ENDBRANCH  30  31
ENDBRANCH   7  30
TORSDOF 13
ENDMDL
MODEL 7
REMARK VINA RESULT:      -7.4      1.417      2.410
REMARK  Name = 
REMARK  13 active torsions:
REMARK  status: ('A' for Active; 'I' for Inactive)
REMARK    1  A    between atoms: N_8  and  C_9
REMARK    2  A    between atoms: C_12  and  C_14
REMARK    3  A    between atoms: C_14  and  C_15
REMARK    4  A    between atoms: C_15  and  P_16
REMARK    5  A    between atoms: P_16  and  O_18
REMARK    6  A    between atoms: P_16  and  O_19
REMARK    7  A    between atoms: C_21  and  O_22
REMARK    8  A    between atoms: O_22  and  C_23
REMARK    9  A    between atoms: C_23  and  C_24
REMARK   10  A    between atoms: C_24  and  O_25
REMARK   11  A    between atoms: C_24  and  P_26
REMARK   12  A    between atoms: P_26  and  O_28
REMARK   13  A    between atoms: P_26  and  O_29
REMARK                            x       y       z     vdW  Elec       q    Type
REMARK                         _______ _______ _______ _____ _____    ______ ____
ROOT
ATOM      1  C   UNL     1       2.950   6.206  18.120  0.00  0.00    +0.000 C 
ATOM      2  C   UNL     1       2.827   7.730  18.026  0.00  0.00    +0.000 C 
ATOM      3  N   UNL     1       2.089   8.093  19.217  0.00  0.00    +0.000 N 
ATOM      4  C   UNL     1       1.154   9.067  19.441  0.00  0.00    +0.000 C 
ATOM      5  O   UNL     1       0.726   9.328  20.564  0.00  0.00    +0.000 OA
ATOM      6  C   UNL     1       2.368   7.166  20.263  0.00  0.00    +0.000 C 
ATOM      7  C   UNL     1       3.138   5.996  19.636  0.00  0.00    +0.000 C 
ENDROOT
BRANCH   1  15
ATOM      8  N   UNL     1       7.743   8.463  17.712  0.00  0.00    +0.000 N 
ATOM      9  C   UNL     1       7.062   7.389  17.248  0.00  0.00    +0.000 A 
ATOM     10  N   UNL     1       5.820   7.200  17.597  0.00  0.00    +0.000 NA
ATOM     11  C   UNL     1       5.258   6.081  17.088  0.00  0.00    +0.000 A 
ATOM     12  C   UNL     1       5.842   5.157  16.259  0.00  0.00    +0.000 A 
ATOM     13  N   UNL     1       4.989   4.124  15.975  0.00  0.00    +0.000 NA
ATOM     14  C   UNL     1       3.891   4.416  16.637  0.00  0.00    +0.000 A 
ATOM     15  N   UNL     1       3.982   5.620  17.296  0.00  0.00    +0.000 N 
ATOM     16  C   UNL     1       7.210   5.390  15.864  0.00  0.00    +0.000 A 
ATOM     17  O   UNL     1       7.875   4.661  15.125  0.00  0.00    +0.000 OA
ATOM     18  N   UNL     1       7.745   6.546  16.404  0.00  0.00    +0.000 N 
ATOM     19  H   UNL     1       7.144   9.146  18.167  0.00  0.00    +0.000 HD
ATOM     20  H   UNL     1       8.436   8.879  17.107  0.00  0.00    +0.000 HD
ATOM     21  H   UNL     1       8.711   6.717  16.189  0.00  0.00    +0.000 HD
ENDBRANCH   1  15
BRANCH   4  22
ATOM     22  C   UNL     1       0.604   9.757  18.230  0.00  0.00    +0.000 C 
BRANCH  22  23
ATOM     23  C   UNL     1       0.138  11.140  18.635  0.00  0.00    +0.000 C 
BRANCH  23  24
ATOM     24  P   UNL     1      -1.589  11.471  18.127  0.00  0.00    +0.000 P 
ATOM     25  O   UNL     1      -1.980  11.874  19.551  0.00  0.00    +0.000 OA
BRANCH  24  26
ATOM     26  O   UNL     1      -1.120  12.841  17.366  0.00  0.00    +0.000 OA
ATOM     27  H   UNL     1      -1.818  13.517  17.304  0.00  0.00    +0.000 HD
ENDBRANCH  24  26
BRANCH  24  28
ATOM     28  O   UNL     1      -3.221  11.784  17.647  0.00  0.00    +0.000 OA
ATOM     29  H   UNL     1      -3.343  12.727  17.883  0.00  0.00    +0.000 HD
ENDBRANCH  24  28
ENDBRANCH  23  24
ENDBRANCH  22  23
ENDBRANCH   4  22
BRANCH   7  30
ATOM     30  O   UNL     1       2.551   4.736  19.971  0.00  0.00    +0.000 OA
BRANCH  30  31
ATOM     31  C   UNL     1       1.169   4.806  20.284  0.00  0.00    +0.000 C 
BRANCH  31  32
ATOM     32  C   UNL     1       0.634   3.403  20.260  0.00  0.00    +0.000 C 
BRANCH  32  33
ATOM     33  O   UNL     1       1.001   2.714  21.483  0.00  0.00    +0.000 OA
ATOM     34  H   UNL     1       0.290   2.955  22.123  0.00  0.00    +0.000 HD
ENDBRANCH  32  33
BRANCH  32  35
ATOM     35  P   UNL     1       1.391   2.564  18.821  0.00  0.00    +0.000 P 
ATOM     36  O   UNL     1       0.248   1.535  18.757  0.00  0.00    +0.000 OA
BRANCH  35  37
ATOM     37  O   UNL     1       0.888   3.765  17.827  0.00  0.00    +0.000 OA
ATOM     38  H   UNL     1       1.103   3.587  16.891  0.00  0.00    +0.000 HD
ENDBRANCH  35  37
BRANCH  35  39
ATOM     39  O   UNL     1       2.107   1.772  17.460  0.00  0.00    +0.000 OA
ATOM     40  H   UNL     1       1.416   1.165  17.126  0.00  0.00    +0.000 HD
ENDBRANCH  35  39
ENDBRANCH  32  35
ENDBRANCH  31  32
ENDBRANCH  30  31
ENDBRANCH   7  30
TORSDOF 13
ENDMDL
MODEL 8
REMARK VINA RESULT:      -7.4      1.815      2.997
REMARK  Name = 
REMARK  13 active torsions:
REMARK  status: ('A' for Active; 'I' for Inactive)
REMARK    1  A    between atoms: N_8  and  C_9
REMARK    2  A    between atoms: C_12  and  C_14
REMARK    3  A    between atoms: C_14  and  C_15
REMARK    4  A    between atoms: C_15  and  P_16
REMARK    5  A    between atoms: P_16  and  O_18
REMARK    6  A    between atoms: P_16  and  O_19
REMARK    7  A    between atoms: C_21  and  O_22
REMARK    8  A    between atoms: O_22  and  C_23
REMARK    9  A    between atoms: C_23  and  C_24
REMARK   10  A    between atoms: C_24  and  O_25
REMARK   11  A    between atoms: C_24  and  P_26
REMARK   12  A    between atoms: P_26  and  O_28
REMARK   13  A    between atoms: P_26  and  O_29
REMARK                            x       y       z     vdW  Elec       q    Type
REMARK                         _______ _______ _______ _____ _____    ______ ____
ROOT
ATOM      1  C   UNL     1       2.675   6.184  18.066  0.00  0.00    +0.000 C 
ATOM      2  C   UNL     1       2.898   7.679  18.313  0.00  0.00    +0.000 C 
ATOM      3  N   UNL     1       1.989   7.991  19.395  0.00  0.00    +0.000 N 
ATOM      4  C   UNL     1       1.252   9.113  19.663  0.00  0.00    +0.000 C 
ATOM      5  O   UNL     1       0.633   9.262  20.715  0.00  0.00    +0.000 OA
ATOM      6  C   UNL     1       1.811   6.847  20.226  0.00  0.00    +0.000 C 
ATOM      7  C   UNL     1       2.447   5.656  19.497  0.00  0.00    +0.000 C 
ENDROOT
BRANCH   1  15
ATOM      8  N   UNL     1       7.468   8.409  17.523  0.00  0.00    +0.000 N 
ATOM      9  C   UNL     1       6.802   7.286  17.164  0.00  0.00    +0.000 A 
ATOM     10  N   UNL     1       5.553   7.130  17.504  0.00  0.00    +0.000 NA
ATOM     11  C   UNL     1       5.006   5.959  17.108  0.00  0.00    +0.000 A 
ATOM     12  C   UNL     1       5.613   4.952  16.399  0.00  0.00    +0.000 A 
ATOM     13  N   UNL     1       4.769   3.889  16.210  0.00  0.00    +0.000 NA
ATOM     14  C   UNL     1       3.655   4.246  16.811  0.00  0.00    +0.000 A 
ATOM     15  N   UNL     1       3.727   5.516  17.335  0.00  0.00    +0.000 N 
ATOM     16  C   UNL     1       6.989   5.149  16.013  0.00  0.00    +0.000 A 
ATOM     17  O   UNL     1       7.674   4.346  15.374  0.00  0.00    +0.000 OA
ATOM     18  N   UNL     1       7.508   6.359  16.434  0.00  0.00    +0.000 N 
ATOM     19  H   UNL     1       6.857   9.134  17.886  0.00  0.00    +0.000 HD
ATOM     20  H   UNL     1       8.174   8.759  16.892  0.00  0.00    +0.000 HD
ATOM     21  H   UNL     1       8.477   6.512  16.225  0.00  0.00    +0.000 HD
ENDBRANCH   1  15
BRANCH   4  22
ATOM     22  C   UNL     1       1.164  10.131  18.568  0.00  0.00    +0.000 C 
BRANCH  22  23
ATOM     23  C   UNL     1      -0.284  10.251  18.138  0.00  0.00    +0.000 C 
BRANCH  23  24
ATOM     24  P   UNL     1      -1.037  11.837  18.657  0.00  0.00    +0.000 P 
ATOM     25  O   UNL     1       0.338  12.489  18.821  0.00  0.00    +0.000 OA
BRANCH  24  26
ATOM     26  O   UNL     1      -1.512  12.133  17.120  0.00  0.00    +0.000 OA
ATOM     27  H   UNL     1      -1.435  11.363  16.528  0.00  0.00    +0.000 HD
ENDBRANCH  24  26
BRANCH  24  28
ATOM     28  O   UNL     1      -1.748  13.336  19.146  0.00  0.00    +0.000 OA
ATOM     29  H   UNL     1      -1.857  13.222  20.113  0.00  0.00    +0.000 HD
ENDBRANCH  24  28
ENDBRANCH  23  24
ENDBRANCH  22  23
ENDBRANCH   4  22
BRANCH   7  30
ATOM     30  O   UNL     1       1.547   4.548  19.408  0.00  0.00    +0.000 OA
BRANCH  30  31
ATOM     31  C   UNL     1       1.924   3.432  20.199  0.00  0.00    +0.000 C 
BRANCH  31  32
ATOM     32  C   UNL     1       2.720   2.510  19.320  0.00  0.00    +0.000 C 
BRANCH  32  33
ATOM     33  O   UNL     1       1.905   1.377  18.926  0.00  0.00    +0.000 OA
ATOM     34  H   UNL     1       1.466   1.089  19.761  0.00  0.00    +0.000 HD
ENDBRANCH  32  33
BRANCH  32  35
ATOM     35  P   UNL     1       4.153   1.936  20.303  0.00  0.00    +0.000 P 
ATOM     36  O   UNL     1       4.991   3.158  19.885  0.00  0.00    +0.000 OA
BRANCH  35  37
ATOM     37  O   UNL     1       3.425   2.419  21.689  0.00  0.00    +0.000 OA
ATOM     38  H   UNL     1       3.347   3.391  21.749  0.00  0.00    +0.000 HD
ENDBRANCH  35  37
BRANCH  35  39
ATOM     39  O   UNL     1       5.507   1.393  21.233  0.00  0.00    +0.000 OA
ATOM     40  H   UNL     1       6.268   1.427  20.618  0.00  0.00    +0.000 HD
ENDBRANCH  35  39
ENDBRANCH  32  35
ENDBRANCH  31  32
ENDBRANCH  30  31
ENDBRANCH   7  30
TORSDOF 13
ENDMDL
MODEL 9
REMARK VINA RESULT:      -7.3      1.162      2.266
REMARK  Name = 
REMARK  13 active torsions:
REMARK  status: ('A' for Active; 'I' for Inactive)
REMARK    1  A    between atoms: N_8  and  C_9
REMARK    2  A    between atoms: C_12  and  C_14
REMARK    3  A    between atoms: C_14  and  C_15
REMARK    4  A    between atoms: C_15  and  P_16
REMARK    5  A    between atoms: P_16  and  O_18
REMARK    6  A    between atoms: P_16  and  O_19
REMARK    7  A    between atoms: C_21  and  O_22
REMARK    8  A    between atoms: O_22  and  C_23
REMARK    9  A    between atoms: C_23  and  C_24
REMARK   10  A    between atoms: C_24  and  O_25
REMARK   11  A    between atoms: C_24  and  P_26
REMARK   12  A    between atoms: P_26  and  O_28
REMARK   13  A    between atoms: P_26  and  O_29
REMARK                            x       y       z     vdW  Elec       q    Type
REMARK                         _______ _______ _______ _____ _____    ______ ____
ROOT
ATOM      1  C   UNL     1       2.692   6.434  18.138  0.00  0.00    +0.000 C 
ATOM      2  C   UNL     1       2.720   7.959  18.001  0.00  0.00    +0.000 C 
ATOM      3  N   UNL     1       1.923   8.422  19.118  0.00  0.00    +0.000 N 
ATOM      4  C   UNL     1       1.067   9.483  19.241  0.00  0.00    +0.000 C 
ATOM      5  O   UNL     1       0.574   9.814  20.319  0.00  0.00    +0.000 OA
ATOM      6  C   UNL     1       2.028   7.504  20.203  0.00  0.00    +0.000 C 
ATOM      7  C   UNL     1       2.734   6.251  19.668  0.00  0.00    +0.000 C 
ENDROOT
BRANCH   1  15
ATOM      8  N   UNL     1       7.539   8.537  17.573  0.00  0.00    +0.000 N 
ATOM      9  C   UNL     1       6.846   7.426  17.227  0.00  0.00    +0.000 A 
ATOM     10  N   UNL     1       5.593   7.304  17.567  0.00  0.00    +0.000 NA
ATOM     11  C   UNL     1       5.018   6.142  17.184  0.00  0.00    +0.000 A 
ATOM     12  C   UNL     1       5.601   5.113  16.488  0.00  0.00    +0.000 A 
ATOM     13  N   UNL     1       4.733   4.068  16.311  0.00  0.00    +0.000 NA
ATOM     14  C   UNL     1       3.627   4.459  16.906  0.00  0.00    +0.000 A 
ATOM     15  N   UNL     1       3.729   5.733  17.416  0.00  0.00    +0.000 N 
ATOM     16  C   UNL     1       6.982   5.272  16.101  0.00  0.00    +0.000 A 
ATOM     17  O   UNL     1       7.648   4.446  15.472  0.00  0.00    +0.000 OA
ATOM     18  N   UNL     1       7.529   6.474  16.509  0.00  0.00    +0.000 N 
ATOM     19  H   UNL     1       6.944   9.281  17.927  0.00  0.00    +0.000 HD
ATOM     20  H   UNL     1       8.253   8.863  16.939  0.00  0.00    +0.000 HD
ATOM     21  H   UNL     1       8.502   6.601  16.298  0.00  0.00    +0.000 HD
ENDBRANCH   1  15
BRANCH   4  22
ATOM     22  C   UNL     1       0.685  10.184  17.974  0.00  0.00    +0.000 C 
BRANCH  22  23
ATOM     23  C   UNL     1      -0.719   9.761  17.594  0.00  0.00    +0.000 C 
BRANCH  23  24
ATOM     24  P   UNL     1      -1.946  11.093  17.861  0.00  0.00    +0.000 P 
ATOM     25  O   UNL     1      -0.857  12.068  18.318  0.00  0.00    +0.000 OA
BRANCH  24  26
ATOM     26  O   UNL     1      -2.103  11.294  16.245  0.00  0.00    +0.000 OA
ATOM     27  H   UNL     1      -1.264  11.483  15.787  0.00  0.00    +0.000 HD
ENDBRANCH  24  26
BRANCH  24  28
ATOM     28  O   UNL     1      -3.104  12.352  18.113  0.00  0.00    +0.000 OA
ATOM     29  H   UNL     1      -3.927  11.858  18.308  0.00  0.00    +0.000 HD
ENDBRANCH  24  28
ENDBRANCH  23  24
ENDBRANCH  22  23
ENDBRANCH   4  22
BRANCH   7  30
ATOM     30  O   UNL     1       2.007   5.060  19.979  0.00  0.00    +0.000 OA
BRANCH  30  31
ATOM     31  C   UNL     1       2.203   4.591  21.304  0.00  0.00    +0.000 C 
BRANCH  31  32
ATOM     32  C   UNL     1       1.826   3.137  21.323  0.00  0.00    +0.000 C 
BRANCH  32  33
ATOM     33  O   UNL     1       2.876   2.364  21.959  0.00  0.00    +0.000 OA
ATOM     34  H   UNL     1       2.410   1.846  22.658  0.00  0.00    +0.000 HD
ENDBRANCH  32  33
BRANCH  32  35
ATOM     35  P   UNL     1       1.631   2.610  19.582  0.00  0.00    +0.000 P 
ATOM     36  O   UNL     1       1.933   1.144  19.941  0.00  0.00    +0.000 OA
BRANCH  35  37
ATOM     37  O   UNL     1       0.001   2.715  19.708  0.00  0.00    +0.000 OA
ATOM     38  H   UNL     1      -0.416   1.846  19.869  0.00  0.00    +0.000 HD
ENDBRANCH  35  37
BRANCH  35  39
ATOM     39  O   UNL     1       1.446   2.113  17.935  0.00  0.00    +0.000 OA
ATOM     40  H   UNL     1       0.962   2.844  17.501  0.00  0.00    +0.000 HD
ENDBRANCH  35  39
ENDBRANCH  32  35
ENDBRANCH  31  32
ENDBRANCH  30  31
ENDBRANCH   7  30
TORSDOF 13
ENDMDL
