MODEL 1
REMARK VINA RESULT:      -7.1      0.000      0.000
REMARK  Name = 
REMARK  6 active torsions:
REMARK  status: ('A' for Active; 'I' for Inactive)
REMARK    1  A    between atoms: C_1  and  C_2
REMARK    2  A    between atoms: C_4  and  C_5
REMARK    3  A    between atoms: C_5  and  C_7
REMARK    4  A    between atoms: C_7  and  N_8
REMARK    5  A    between atoms: C_19  and  C_20
REMARK    6  A    between atoms: N_21  and  C_22
REMARK                            x       y       z     vdW  Elec       q    Type
REMARK                         _______ _______ _______ _____ _____    ______ ____
ROOT
ATOM      1  C   UNL     1       2.076   4.659  19.752  0.00  0.00    +0.000 C 
ATOM      2  O   UNL     1       1.095   3.986  19.431  0.00  0.00    +0.000 OA
ENDROOT
BRANCH   1   6
ATOM      3  C   UNL     1       0.873   9.148  21.897  0.00  0.00    +0.000 C 
ATOM      4  C   UNL     1       1.360   8.108  20.953  0.00  0.00    +0.000 A 
ATOM      5  C   UNL     1       1.543   6.756  21.218  0.00  0.00    +0.000 A 
ATOM      6  C   UNL     1       1.935   6.101  20.018  0.00  0.00    +0.000 A 
ATOM      7  C   UNL     1       2.125   7.112  19.077  0.00  0.00    +0.000 A 
ATOM      8  C   UNL     1       2.611   7.004  17.666  0.00  0.00    +0.000 C 
ATOM      9  N   UNL     1       1.713   8.312  19.634  0.00  0.00    +0.000 N 
BRANCH   9  10
ATOM     10  C   UNL     1       1.627   9.534  18.836  0.00  0.00    +0.000 C 
ATOM     11  C   UNL     1       0.311   9.970  18.218  0.00  0.00    +0.000 C 
ATOM     12  C   UNL     1       0.993  10.855  19.205  0.00  0.00    +0.000 C 
ENDBRANCH   9  10
ENDBRANCH   1   6
BRANCH   1  13
ATOM     13  C   UNL     1       3.444   3.996  19.958  0.00  0.00    +0.000 C 
BRANCH  13  14
ATOM     14  N   UNL     1       4.377   4.398  18.905  0.00  0.00    +0.000 N 
ATOM     15  C   UNL     1       5.420   5.250  19.188  0.00  0.00    +0.000 A 
ATOM     16  N   UNL     1       6.315   5.643  18.346  0.00  0.00    +0.000 NA
ATOM     17  C   UNL     1       6.262   5.113  17.047  0.00  0.00    +0.000 A 
ATOM     18  C   UNL     1       7.247   5.482  16.126  0.00  0.00    +0.000 A 
ATOM     19  C   UNL     1       7.265   4.932  14.842  0.00  0.00    +0.000 A 
ATOM     20  C   UNL     1       6.289   4.010  14.464  0.00  0.00    +0.000 A 
ATOM     21  C   UNL     1       5.285   3.652  15.367  0.00  0.00    +0.000 A 
ATOM     22  C   UNL     1       5.277   4.207  16.652  0.00  0.00    +0.000 A 
ATOM     23  C   UNL     1       4.237   3.844  17.638  0.00  0.00    +0.000 A 
ATOM     24  O   UNL     1       3.311   3.101  17.324  0.00  0.00    +0.000 OA
ENDBRANCH  13  14
ENDBRANCH   1  13
TORSDOF 4
ENDMDL
MODEL 2
REMARK VINA RESULT:      -7.0      1.883      3.211
REMARK  Name = 
REMARK  6 active torsions:
REMARK  status: ('A' for Active; 'I' for Inactive)
REMARK    1  A    between atoms: C_1  and  C_2
REMARK    2  A    between atoms: C_4  and  C_5
REMARK    3  A    between atoms: C_5  and  C_7
REMARK    4  A    between atoms: C_7  and  N_8
REMARK    5  A    between atoms: C_19  and  C_20
REMARK    6  A    between atoms: N_21  and  C_22
REMARK                            x       y       z     vdW  Elec       q    Type
REMARK                         _______ _______ _______ _____ _____    ______ ____
ROOT
ATOM      1  C   UNL     1       4.423   4.808  18.765  0.00  0.00    +0.000 C 
ATOM      2  O   UNL     1       4.117   3.677  19.147  0.00  0.00    +0.000 OA
ENDROOT
BRANCH   1   6
ATOM      3  C   UNL     1       1.957   9.225  17.990  0.00  0.00    +0.000 C 
ATOM      4  C   UNL     1       2.368   7.901  18.527  0.00  0.00    +0.000 A 
ATOM      5  C   UNL     1       3.275   7.014  17.961  0.00  0.00    +0.000 A 
ATOM      6  C   UNL     1       3.447   5.909  18.840  0.00  0.00    +0.000 A 
ATOM      7  C   UNL     1       2.516   6.087  19.862  0.00  0.00    +0.000 A 
ATOM      8  C   UNL     1       2.206   5.190  21.017  0.00  0.00    +0.000 C 
ATOM      9  N   UNL     1       1.915   7.325  19.697  0.00  0.00    +0.000 N 
BRANCH   9  10
ATOM     10  C   UNL     1       1.015   7.878  20.707  0.00  0.00    +0.000 C 
ATOM     11  C   UNL     1       1.489   8.954  21.668  0.00  0.00    +0.000 C 
ATOM     12  C   UNL     1       0.357   9.237  20.738  0.00  0.00    +0.000 C 
ENDBRANCH   9  10
ENDBRANCH   1   6
BRANCH   1  13
ATOM     13  C   UNL     1       5.846   5.109  18.277  0.00  0.00    +0.000 C 
BRANCH  13  14
ATOM     14  N   UNL     1       6.018   4.685  16.887  0.00  0.00    +0.000 N 
ATOM     15  C   UNL     1       5.247   3.669  16.370  0.00  0.00    +0.000 A 
ATOM     16  N   UNL     1       5.296   3.238  15.155  0.00  0.00    +0.000 NA
ATOM     17  C   UNL     1       6.160   3.896  14.266  0.00  0.00    +0.000 A 
ATOM     18  C   UNL     1       6.197   3.484  12.930  0.00  0.00    +0.000 A 
ATOM     19  C   UNL     1       7.000   4.151  12.001  0.00  0.00    +0.000 A 
ATOM     20  C   UNL     1       7.779   5.235  12.402  0.00  0.00    +0.000 A 
ATOM     21  C   UNL     1       7.769   5.642  13.738  0.00  0.00    +0.000 A 
ATOM     22  C   UNL     1       6.961   4.969  14.662  0.00  0.00    +0.000 A 
ATOM     23  C   UNL     1       6.915   5.376  16.083  0.00  0.00    +0.000 A 
ATOM     24  O   UNL     1       7.646   6.271  16.499  0.00  0.00    +0.000 OA
ENDBRANCH  13  14
ENDBRANCH   1  13
TORSDOF 4
ENDMDL
MODEL 3
REMARK VINA RESULT:      -6.7      2.899      7.270
REMARK  Name = 
REMARK  6 active torsions:
REMARK  status: ('A' for Active; 'I' for Inactive)
REMARK    1  A    between atoms: C_1  and  C_2
REMARK    2  A    between atoms: C_4  and  C_5
REMARK    3  A    between atoms: C_5  and  C_7
REMARK    4  A    between atoms: C_7  and  N_8
REMARK    5  A    between atoms: C_19  and  C_20
REMARK    6  A    between atoms: N_21  and  C_22
REMARK                            x       y       z     vdW  Elec       q    Type
REMARK                         _______ _______ _______ _____ _____    ______ ____
ROOT
ATOM      1  C   UNL     1       6.877   5.565  16.838  0.00  0.00    +0.000 C 
ATOM      2  O   UNL     1       7.879   5.445  17.546  0.00  0.00    +0.000 OA
ENDROOT
BRANCH   1   6
ATOM      3  C   UNL     1       7.543   4.965  11.799  0.00  0.00    +0.000 C 
ATOM      4  C   UNL     1       7.120   4.771  13.211  0.00  0.00    +0.000 A 
ATOM      5  C   UNL     1       7.595   5.446  14.328  0.00  0.00    +0.000 A 
ATOM      6  C   UNL     1       6.862   5.020  15.470  0.00  0.00    +0.000 A 
ATOM      7  C   UNL     1       6.050   3.974  15.032  0.00  0.00    +0.000 A 
ATOM      8  C   UNL     1       5.125   3.107  15.825  0.00  0.00    +0.000 C 
ATOM      9  N   UNL     1       6.167   3.876  13.655  0.00  0.00    +0.000 N 
BRANCH   9  10
ATOM     10  C   UNL     1       5.307   2.985  12.877  0.00  0.00    +0.000 C 
ATOM     11  C   UNL     1       4.531   3.500  11.679  0.00  0.00    +0.000 C 
ATOM     12  C   UNL     1       5.543   2.420  11.497  0.00  0.00    +0.000 C 
ENDBRANCH   9  10
ENDBRANCH   1   6
BRANCH   1  13
ATOM     13  C   UNL     1       5.603   6.214  17.393  0.00  0.00    +0.000 C 
BRANCH  13  14
ATOM     14  N   UNL     1       4.862   5.269  18.230  0.00  0.00    +0.000 N 
ATOM     15  C   UNL     1       5.527   4.278  18.914  0.00  0.00    +0.000 A 
ATOM     16  N   UNL     1       4.978   3.414  19.700  0.00  0.00    +0.000 NA
ATOM     17  C   UNL     1       3.598   3.529  19.928  0.00  0.00    +0.000 A 
ATOM     18  C   UNL     1       2.984   2.639  20.814  0.00  0.00    +0.000 A 
ATOM     19  C   UNL     1       1.624   2.756  21.115  0.00  0.00    +0.000 A 
ATOM     20  C   UNL     1       0.863   3.764  20.524  0.00  0.00    +0.000 A 
ATOM     21  C   UNL     1       1.460   4.645  19.619  0.00  0.00    +0.000 A 
ATOM     22  C   UNL     1       2.823   4.521  19.325  0.00  0.00    +0.000 A 
ATOM     23  C   UNL     1       3.492   5.441  18.381  0.00  0.00    +0.000 A 
ATOM     24  O   UNL     1       2.846   6.291  17.774  0.00  0.00    +0.000 OA
ENDBRANCH  13  14
ENDBRANCH   1  13
TORSDOF 4
ENDMDL
MODEL 4
REMARK VINA RESULT:      -6.6      1.321      1.838
REMARK  Name = 
REMARK  6 active torsions:
REMARK  status: ('A' for Active; 'I' for Inactive)
REMARK    1  A    between atoms: C_1  and  C_2
REMARK    2  A    between atoms: C_4  and  C_5
REMARK    3  A    between atoms: C_5  and  C_7
REMARK    4  A    between atoms: C_7  and  N_8
REMARK    5  A    between atoms: C_19  and  C_20
REMARK    6  A    between atoms: N_21  and  C_22
REMARK                            x       y       z     vdW  Elec       q    Type
REMARK                         _______ _______ _______ _____ _____    ______ ____
ROOT
ATOM      1  C   UNL     1       2.564   5.550  19.889  0.00  0.00    +0.000 C 
ATOM      2  O   UNL     1       1.778   4.600  19.891  0.00  0.00    +0.000 OA
ENDROOT
BRANCH   1   6
ATOM      3  C   UNL     1       0.165   9.736  21.596  0.00  0.00    +0.000 C 
ATOM      4  C   UNL     1       0.959   8.790  20.769  0.00  0.00    +0.000 A 
ATOM      5  C   UNL     1       1.433   7.540  21.149  0.00  0.00    +0.000 A 
ATOM      6  C   UNL     1       2.066   6.929  20.032  0.00  0.00    +0.000 A 
ATOM      7  C   UNL     1       2.088   7.898  19.030  0.00  0.00    +0.000 A 
ATOM      8  C   UNL     1       2.698   7.826  17.666  0.00  0.00    +0.000 C 
ATOM      9  N   UNL     1       1.360   8.994  19.464  0.00  0.00    +0.000 N 
BRANCH   9  10
ATOM     10  C   UNL     1       1.053  10.109  18.570  0.00  0.00    +0.000 C 
ATOM     11  C   UNL     1      -0.332  10.269  17.971  0.00  0.00    +0.000 C 
ATOM     12  C   UNL     1       0.221  11.338  18.852  0.00  0.00    +0.000 C 
ENDBRANCH   9  10
ENDBRANCH   1   6
BRANCH   1  13
ATOM     13  C   UNL     1       4.077   5.311  19.815  0.00  0.00    +0.000 C 
BRANCH  13  14
ATOM     14  N   UNL     1       4.473   4.906  18.466  0.00  0.00    +0.000 N 
ATOM     15  C   UNL     1       3.611   4.179  17.678  0.00  0.00    +0.000 A 
ATOM     16  N   UNL     1       3.846   3.796  16.468  0.00  0.00    +0.000 NA
ATOM     17  C   UNL     1       5.053   4.205  15.881  0.00  0.00    +0.000 A 
ATOM     18  C   UNL     1       5.314   3.848  14.554  0.00  0.00    +0.000 A 
ATOM     19  C   UNL     1       6.476   4.285  13.913  0.00  0.00    +0.000 A 
ATOM     20  C   UNL     1       7.395   5.079  14.598  0.00  0.00    +0.000 A 
ATOM     21  C   UNL     1       7.158   5.423  15.932  0.00  0.00    +0.000 A 
ATOM     22  C   UNL     1       5.990   4.982  16.565  0.00  0.00    +0.000 A 
ATOM     23  C   UNL     1       5.699   5.333  17.972  0.00  0.00    +0.000 A 
ATOM     24  O   UNL     1       6.517   5.961  18.640  0.00  0.00    +0.000 OA
ENDBRANCH  13  14
ENDBRANCH   1  13
TORSDOF 4
ENDMDL
MODEL 5
REMARK VINA RESULT:      -6.6      1.702      2.889
REMARK  Name = 
REMARK  6 active torsions:
REMARK  status: ('A' for Active; 'I' for Inactive)
REMARK    1  A    between atoms: C_1  and  C_2
REMARK    2  A    between atoms: C_4  and  C_5
REMARK    3  A    between atoms: C_5  and  C_7
REMARK    4  A    between atoms: C_7  and  N_8
REMARK    5  A    between atoms: C_19  and  C_20
REMARK    6  A    between atoms: N_21  and  C_22
REMARK                            x       y       z     vdW  Elec       q    Type
REMARK                         _______ _______ _______ _____ _____    ______ ____
ROOT
ATOM      1  C   UNL     1       4.985   5.270  18.965  0.00  0.00    +0.000 C 
ATOM      2  O   UNL     1       5.932   5.485  19.724  0.00  0.00    +0.000 OA
ENDROOT
BRANCH   1   6
ATOM      3  C   UNL     1       2.028   9.273  17.765  0.00  0.00    +0.000 C 
ATOM      4  C   UNL     1       2.556   8.030  18.389  0.00  0.00    +0.000 A 
ATOM      5  C   UNL     1       3.641   7.275  17.961  0.00  0.00    +0.000 A 
ATOM      6  C   UNL     1       3.861   6.220  18.890  0.00  0.00    +0.000 A 
ATOM      7  C   UNL     1       2.798   6.277  19.790  0.00  0.00    +0.000 A 
ATOM      8  C   UNL     1       2.482   5.362  20.930  0.00  0.00    +0.000 C 
ATOM      9  N   UNL     1       2.052   7.413  19.516  0.00  0.00    +0.000 N 
BRANCH   9  10
ATOM     10  C   UNL     1       0.968   7.845  20.397  0.00  0.00    +0.000 C 
ATOM     11  C   UNL     1       1.257   8.654  21.648  0.00  0.00    +0.000 C 
ATOM     12  C   UNL     1       0.398   9.233  20.574  0.00  0.00    +0.000 C 
ENDBRANCH   9  10
ENDBRANCH   1   6
BRANCH   1  13
ATOM     13  C   UNL     1       4.993   4.055  18.028  0.00  0.00    +0.000 C 
BRANCH  13  14
ATOM     14  N   UNL     1       5.661   4.378  16.767  0.00  0.00    +0.000 N 
ATOM     15  C   UNL     1       6.812   5.132  16.762  0.00  0.00    +0.000 A 
ATOM     16  N   UNL     1       7.495   5.448  15.715  0.00  0.00    +0.000 NA
ATOM     17  C   UNL     1       7.068   4.932  14.481  0.00  0.00    +0.000 A 
ATOM     18  C   UNL     1       7.817   5.216  13.335  0.00  0.00    +0.000 A 
ATOM     19  C   UNL     1       7.461   4.673  12.098  0.00  0.00    +0.000 A 
ATOM     20  C   UNL     1       6.345   3.843  11.995  0.00  0.00    +0.000 A 
ATOM     21  C   UNL     1       5.575   3.571  13.128  0.00  0.00    +0.000 A 
ATOM     22  C   UNL     1       5.940   4.118  14.364  0.00  0.00    +0.000 A 
ATOM     23  C   UNL     1       5.156   3.845  15.587  0.00  0.00    +0.000 A 
ATOM     24  O   UNL     1       4.120   3.188  15.530  0.00  0.00    +0.000 OA
ENDBRANCH  13  14
ENDBRANCH   1  13
TORSDOF 4
ENDMDL
MODEL 6
REMARK VINA RESULT:      -6.6      3.421      8.823
REMARK  Name = 
REMARK  6 active torsions:
REMARK  status: ('A' for Active; 'I' for Inactive)
REMARK    1  A    between atoms: C_1  and  C_2
REMARK    2  A    between atoms: C_4  and  C_5
REMARK    3  A    between atoms: C_5  and  C_7
REMARK    4  A    between atoms: C_7  and  N_8
REMARK    5  A    between atoms: C_19  and  C_20
REMARK    6  A    between atoms: N_21  and  C_22
REMARK                            x       y       z     vdW  Elec       q    Type
REMARK                         _______ _______ _______ _____ _____    ______ ____
ROOT
ATOM      1  C   UNL     1       1.038   9.657  18.326  0.00  0.00    +0.000 C 
ATOM      2  O   UNL     1       0.026   9.563  17.629  0.00  0.00    +0.000 OA
ENDROOT
BRANCH   1   6
ATOM      3  C   UNL     1       4.406   5.955  17.256  0.00  0.00    +0.000 C 
ATOM      4  C   UNL     1       3.439   6.838  17.960  0.00  0.00    +0.000 A 
ATOM      5  C   UNL     1       2.927   8.047  17.507  0.00  0.00    +0.000 A 
ATOM      6  C   UNL     1       1.967   8.520  18.445  0.00  0.00    +0.000 A 
ATOM      7  C   UNL     1       2.030   7.645  19.528  0.00  0.00    +0.000 A 
ATOM      8  C   UNL     1       1.294   7.706  20.829  0.00  0.00    +0.000 C 
ATOM      9  N   UNL     1       2.876   6.598  19.198  0.00  0.00    +0.000 N 
BRANCH   9  10
ATOM     10  C   UNL     1       3.015   5.427  20.062  0.00  0.00    +0.000 C 
ATOM     11  C   UNL     1       2.028   4.277  19.981  0.00  0.00    +0.000 C 
ATOM     12  C   UNL     1       3.471   4.036  19.693  0.00  0.00    +0.000 C 
ENDBRANCH   9  10
ENDBRANCH   1   6
BRANCH   1  13
ATOM     13  C   UNL     1       1.390  10.979  19.019  0.00  0.00    +0.000 C 
BRANCH  13  14
ATOM     14  N   UNL     1       0.215  11.544  19.685  0.00  0.00    +0.000 N 
ATOM     15  C   UNL     1      -0.735  12.223  18.958  0.00  0.00    +0.000 A 
ATOM     16  N   UNL     1      -1.819  12.734  19.437  0.00  0.00    +0.000 NA
ATOM     17  C   UNL     1      -2.087  12.528  20.799  0.00  0.00    +0.000 A 
ATOM     18  C   UNL     1      -3.278  13.027  21.337  0.00  0.00    +0.000 A 
ATOM     19  C   UNL     1      -3.610  12.793  22.674  0.00  0.00    +0.000 A 
ATOM     20  C   UNL     1      -2.748  12.062  23.490  0.00  0.00    +0.000 A 
ATOM     21  C   UNL     1      -1.543  11.580  22.972  0.00  0.00    +0.000 A 
ATOM     22  C   UNL     1      -1.219  11.818  21.631  0.00  0.00    +0.000 A 
ATOM     23  C   UNL     1       0.041  11.314  21.044  0.00  0.00    +0.000 A 
ATOM     24  O   UNL     1       0.869  10.738  21.744  0.00  0.00    +0.000 OA
ENDBRANCH  13  14
ENDBRANCH   1  13
TORSDOF 4
ENDMDL
MODEL 7
REMARK VINA RESULT:      -6.6      2.698      7.838
REMARK  Name = 
REMARK  6 active torsions:
REMARK  status: ('A' for Active; 'I' for Inactive)
REMARK    1  A    between atoms: C_1  and  C_2
REMARK    2  A    between atoms: C_4  and  C_5
REMARK    3  A    between atoms: C_5  and  C_7
REMARK    4  A    between atoms: C_7  and  N_8
REMARK    5  A    between atoms: C_19  and  C_20
REMARK    6  A    between atoms: N_21  and  C_22
REMARK                            x       y       z     vdW  Elec       q    Type
REMARK                         _______ _______ _______ _____ _____    ______ ____
ROOT
ATOM      1  C   UNL     1       2.016   7.981  19.050  0.00  0.00    +0.000 C 
ATOM      2  O   UNL     1       1.896   8.332  20.225  0.00  0.00    +0.000 OA
ENDROOT
BRANCH   1   6
ATOM      3  C   UNL     1       4.860   4.467  16.650  0.00  0.00    +0.000 C 
ATOM      4  C   UNL     1       3.969   5.153  17.622  0.00  0.00    +0.000 A 
ATOM      5  C   UNL     1       3.710   6.516  17.703  0.00  0.00    +0.000 A 
ATOM      6  C   UNL     1       2.735   6.739  18.714  0.00  0.00    +0.000 A 
ATOM      7  C   UNL     1       2.532   5.504  19.328  0.00  0.00    +0.000 A 
ATOM      8  C   UNL     1       1.668   5.168  20.501  0.00  0.00    +0.000 C 
ATOM      9  N   UNL     1       3.234   4.542  18.619  0.00  0.00    +0.000 N 
BRANCH   9  10
ATOM     10  C   UNL     1       3.085   3.118  18.912  0.00  0.00    +0.000 C 
ATOM     11  C   UNL     1       1.942   2.315  18.318  0.00  0.00    +0.000 C 
ATOM     12  C   UNL     1       3.351   1.939  18.006  0.00  0.00    +0.000 C 
ENDBRANCH   9  10
ENDBRANCH   1   6
BRANCH   1  13
ATOM     13  C   UNL     1       1.357   8.785  17.923  0.00  0.00    +0.000 C 
BRANCH  13  14
ATOM     14  N   UNL     1       1.350  10.214  18.241  0.00  0.00    +0.000 N 
ATOM     15  C   UNL     1       2.437  10.999  17.933  0.00  0.00    +0.000 A 
ATOM     16  N   UNL     1       2.525  12.269  18.141  0.00  0.00    +0.000 NA
ATOM     17  C   UNL     1       1.399  12.920  18.667  0.00  0.00    +0.000 A 
ATOM     18  C   UNL     1       1.447  14.305  18.856  0.00  0.00    +0.000 A 
ATOM     19  C   UNL     1       0.327  15.000  19.321  0.00  0.00    +0.000 A 
ATOM     20  C   UNL     1      -0.851  14.313  19.609  0.00  0.00    +0.000 A 
ATOM     21  C   UNL     1      -0.904  12.926  19.447  0.00  0.00    +0.000 A 
ATOM     22  C   UNL     1       0.222  12.239  18.978  0.00  0.00    +0.000 A 
ATOM     23  C   UNL     1       0.201  10.773  18.784  0.00  0.00    +0.000 A 
ATOM     24  O   UNL     1      -0.787  10.116  19.102  0.00  0.00    +0.000 OA
ENDBRANCH  13  14
ENDBRANCH   1  13
TORSDOF 4
ENDMDL
MODEL 8
REMARK VINA RESULT:      -6.5      1.010      1.059
REMARK  Name = 
REMARK  6 active torsions:
REMARK  status: ('A' for Active; 'I' for Inactive)
REMARK    1  A    between atoms: C_1  and  C_2
REMARK    2  A    between atoms: C_4  and  C_5
REMARK    3  A    between atoms: C_5  and  C_7
REMARK    4  A    between atoms: C_7  and  N_8
REMARK    5  A    between atoms: C_19  and  C_20
REMARK    6  A    between atoms: N_21  and  C_22
REMARK                            x       y       z     vdW  Elec       q    Type
REMARK                         _______ _______ _______ _____ _____    ______ ____
ROOT
ATOM      1  C   UNL     1       2.512   5.474  19.278  0.00  0.00    +0.000 C 
ATOM      2  O   UNL     1       1.683   4.693  18.808  0.00  0.00    +0.000 OA
ENDROOT
BRANCH   1   6
ATOM      3  C   UNL     1       0.510   9.165  22.206  0.00  0.00    +0.000 C 
ATOM      4  C   UNL     1       1.155   8.431  21.085  0.00  0.00    +0.000 A 
ATOM      5  C   UNL     1       1.628   7.125  21.102  0.00  0.00    +0.000 A 
ATOM      6  C   UNL     1       2.088   6.786  19.799  0.00  0.00    +0.000 A 
ATOM      7  C   UNL     1       2.015   7.960  19.051  0.00  0.00    +0.000 A 
ATOM      8  C   UNL     1       2.441   8.203  17.638  0.00  0.00    +0.000 C 
ATOM      9  N   UNL     1       1.391   8.930  19.819  0.00  0.00    +0.000 N 
BRANCH   9  10
ATOM     10  C   UNL     1       1.012  10.224  19.254  0.00  0.00    +0.000 C 
ATOM     11  C   UNL     1      -0.401  10.474  18.759  0.00  0.00    +0.000 C 
ATOM     12  C   UNL     1       0.152  11.303  19.869  0.00  0.00    +0.000 C 
ENDBRANCH   9  10
ENDBRANCH   1   6
BRANCH   1  13
ATOM     13  C   UNL     1       3.986   5.068  19.403  0.00  0.00    +0.000 C 
BRANCH  13  14
ATOM     14  N   UNL     1       4.680   5.240  18.126  0.00  0.00    +0.000 N 
ATOM     15  C   UNL     1       5.401   6.384  17.875  0.00  0.00    +0.000 A 
ATOM     16  N   UNL     1       6.072   6.625  16.800  0.00  0.00    +0.000 NA
ATOM     17  C   UNL     1       6.127   5.613  15.828  0.00  0.00    +0.000 A 
ATOM     18  C   UNL     1       6.888   5.825  14.674  0.00  0.00    +0.000 A 
ATOM     19  C   UNL     1       7.017   4.821  13.711  0.00  0.00    +0.000 A 
ATOM     20  C   UNL     1       6.378   3.595  13.890  0.00  0.00    +0.000 A 
ATOM     21  C   UNL     1       5.595   3.380  15.027  0.00  0.00    +0.000 A 
ATOM     22  C   UNL     1       5.473   4.391  15.988  0.00  0.00    +0.000 A 
ATOM     23  C   UNL     1       4.662   4.196  17.209  0.00  0.00    +0.000 A 
ATOM     24  O   UNL     1       4.014   3.165  17.370  0.00  0.00    +0.000 OA
ENDBRANCH  13  14
ENDBRANCH   1  13
TORSDOF 4
ENDMDL
MODEL 9
REMARK VINA RESULT:      -6.5      1.306      2.464
REMARK  Name = 
REMARK  6 active torsions:
REMARK  status: ('A' for Active; 'I' for Inactive)
REMARK    1  A    between atoms: C_1  and  C_2
REMARK    2  A    between atoms: C_4  and  C_5
REMARK    3  A    between atoms: C_5  and  C_7
REMARK    4  A    between atoms: C_7  and  N_8
REMARK    5  A    between atoms: C_19  and  C_20
REMARK    6  A    between atoms: N_21  and  C_22
REMARK                            x       y       z     vdW  Elec       q    Type
REMARK                         _______ _______ _______ _____ _____    ______ ____
ROOT
ATOM      1  C   UNL     1       3.707   4.533  18.600  0.00  0.00    +0.000 C 
ATOM      2  O   UNL     1       3.035   3.502  18.540  0.00  0.00    +0.000 OA
ENDROOT
BRANCH   1   6
ATOM      3  C   UNL     1       2.326   9.408  17.874  0.00  0.00    +0.000 C 
ATOM      4  C   UNL     1       2.463   8.036  18.431  0.00  0.00    +0.000 A 
ATOM      5  C   UNL     1       3.046   6.937  17.814  0.00  0.00    +0.000 A 
ATOM      6  C   UNL     1       3.049   5.845  18.726  0.00  0.00    +0.000 A 
ATOM      7  C   UNL     1       2.324   6.275  19.837  0.00  0.00    +0.000 A 
ATOM      8  C   UNL     1       1.948   5.512  21.067  0.00  0.00    +0.000 C 
ATOM      9  N   UNL     1       2.030   7.620  19.675  0.00  0.00    +0.000 N 
BRANCH   9  10
ATOM     10  C   UNL     1       1.426   8.404  20.750  0.00  0.00    +0.000 C 
ATOM     11  C   UNL     1       0.309   9.391  20.462  0.00  0.00    +0.000 C 
ATOM     12  C   UNL     1       0.063   8.242  21.381  0.00  0.00    +0.000 C 
ENDBRANCH   9  10
ENDBRANCH   1   6
BRANCH   1  13
ATOM     13  C   UNL     1       5.239   4.466  18.623  0.00  0.00    +0.000 C 
BRANCH  13  14
ATOM     14  N   UNL     1       5.789   4.730  17.293  0.00  0.00    +0.000 N 
ATOM     15  C   UNL     1       6.762   5.687  17.119  0.00  0.00    +0.000 A 
ATOM     16  N   UNL     1       7.334   5.978  16.001  0.00  0.00    +0.000 NA
ATOM     17  C   UNL     1       6.986   5.215  14.875  0.00  0.00    +0.000 A 
ATOM     18  C   UNL     1       7.626   5.474  13.659  0.00  0.00    +0.000 A 
ATOM     19  C   UNL     1       7.351   4.698  12.530  0.00  0.00    +0.000 A 
ATOM     20  C   UNL     1       6.425   3.659  12.605  0.00  0.00    +0.000 A 
ATOM     21  C   UNL     1       5.761   3.406  13.808  0.00  0.00    +0.000 A 
ATOM     22  C   UNL     1       6.044   4.187  14.935  0.00  0.00    +0.000 A 
ATOM     23  C   UNL     1       5.369   3.943  16.228  0.00  0.00    +0.000 A 
ATOM     24  O   UNL     1       4.487   3.093  16.320  0.00  0.00    +0.000 OA
ENDBRANCH  13  14
ENDBRANCH   1  13
TORSDOF 4
ENDMDL
