MODEL 1
REMARK VINA RESULT:      -7.9      0.000      0.000
REMARK  Name = 
REMARK  6 active torsions:
REMARK  status: ('A' for Active; 'I' for Inactive)
REMARK    1  A    between atoms: C_1  and  C_2
REMARK    2  A    between atoms: C_2  and  C_3
REMARK    3  A    between atoms: C_3  and  C_4
REMARK    4  A    between atoms: C_4  and  N_5
REMARK    5  A    between atoms: C_11  and  C_12
REMARK    6  A    between atoms: C_16  and  N_17
REMARK                            x       y       z     vdW  Elec       q    Type
REMARK                         _______ _______ _______ _____ _____    ______ ____
ROOT
ATOM      1  N   UNL     1       3.539   2.978  21.017  0.00  0.00    +0.000 N 
ATOM      2  C   UNL     1       3.999   3.625  19.930  0.00  0.00    +0.000 A 
ATOM      3  N   UNL     1       3.909   4.892  19.604  0.00  0.00    +0.000 NA
ATOM      4  C   UNL     1       4.459   4.987  18.350  0.00  0.00    +0.000 A 
ATOM      5  C   UNL     1       4.606   6.094  17.507  0.00  0.00    +0.000 A 
ATOM      6  C   UNL     1       5.170   5.895  16.235  0.00  0.00    +0.000 A 
ATOM      7  C   UNL     1       5.605   4.631  15.790  0.00  0.00    +0.000 A 
ATOM      8  C   UNL     1       5.468   3.527  16.655  0.00  0.00    +0.000 A 
ATOM      9  C   UNL     1       4.900   3.748  17.908  0.00  0.00    +0.000 A 
ATOM     10  N   UNL     1       4.633   2.908  18.953  0.00  0.00    +0.000 N 
ATOM     11  H   UNL     1       3.556   1.964  21.023  0.00  0.00    +0.000 HD
ATOM     12  H   UNL     1       4.808   1.918  18.980  0.00  0.00    +0.000 HD
ENDROOT
BRANCH   7  13
ATOM     13  C   UNL     1       6.182   4.459  14.441  0.00  0.00    +0.000 A 
ATOM     14  C   UNL     1       7.244   5.263  13.996  0.00  0.00    +0.000 A 
ATOM     15  C   UNL     1       7.764   5.147  12.701  0.00  0.00    +0.000 A 
ATOM     16  C   UNL     1       7.239   4.198  11.825  0.00  0.00    +0.000 A 
ATOM     17  C   UNL     1       6.197   3.373  12.257  0.00  0.00    +0.000 A 
ATOM     18  C   UNL     1       5.673   3.497  13.551  0.00  0.00    +0.000 A 
BRANCH  17  19
ATOM     19  N   UNL     1       5.634   2.370  11.349  0.00  0.00    +0.000 N 
ATOM     20  O   UNL     1       4.443   2.490  11.021  0.00  0.00    +0.000 OA
ATOM     21  O   UNL     1       6.379   1.458  10.960  0.00  0.00    +0.000 OA
ENDBRANCH  17  19
ENDBRANCH   7  13
BRANCH   1  22
ATOM     22  C   UNL     1       2.372   3.536  21.688  0.00  0.00    +0.000 C 
BRANCH  22  23
ATOM     23  C   UNL     1       1.103   2.837  21.195  0.00  0.00    +0.000 C 
BRANCH  23  25
ATOM     24  C   UNL     1       0.703   2.450  18.732  0.00  0.00    +0.000 C 
ATOM     25  C   UNL     1       0.589   3.435  19.884  0.00  0.00    +0.000 C 
ENDBRANCH  23  25
ENDBRANCH  22  23
ENDBRANCH   1  22
TORSDOF 5
ENDMDL
MODEL 2
REMARK VINA RESULT:      -7.8      5.544      8.773
REMARK  Name = 
REMARK  6 active torsions:
REMARK  status: ('A' for Active; 'I' for Inactive)
REMARK    1  A    between atoms: C_1  and  C_2
REMARK    2  A    between atoms: C_2  and  C_3
REMARK    3  A    between atoms: C_3  and  C_4
REMARK    4  A    between atoms: C_4  and  N_5
REMARK    5  A    between atoms: C_11  and  C_12
REMARK    6  A    between atoms: C_16  and  N_17
REMARK                            x       y       z     vdW  Elec       q    Type
REMARK                         _______ _______ _______ _____ _____    ______ ____
ROOT
ATOM      1  N   UNL     1       7.031   5.289  15.086  0.00  0.00    +0.000 N 
ATOM      2  C   UNL     1       5.993   5.503  15.916  0.00  0.00    +0.000 A 
ATOM      3  N   UNL     1       5.158   4.648  16.457  0.00  0.00    +0.000 NA
ATOM      4  C   UNL     1       4.238   5.412  17.132  0.00  0.00    +0.000 A 
ATOM      5  C   UNL     1       3.111   5.031  17.869  0.00  0.00    +0.000 A 
ATOM      6  C   UNL     1       2.304   6.039  18.424  0.00  0.00    +0.000 A 
ATOM      7  C   UNL     1       2.600   7.409  18.279  0.00  0.00    +0.000 A 
ATOM      8  C   UNL     1       3.748   7.779  17.550  0.00  0.00    +0.000 A 
ATOM      9  C   UNL     1       4.527   6.763  17.003  0.00  0.00    +0.000 A 
ATOM     10  N   UNL     1       5.674   6.788  16.260  0.00  0.00    +0.000 N 
ATOM     11  H   UNL     1       7.464   6.087  14.635  0.00  0.00    +0.000 HD
ATOM     12  H   UNL     1       6.169   7.609  15.957  0.00  0.00    +0.000 HD
ENDROOT
BRANCH   7  13
ATOM     13  C   UNL     1       1.720   8.441  18.867  0.00  0.00    +0.000 A 
ATOM     14  C   UNL     1       1.290   9.546  18.114  0.00  0.00    +0.000 A 
ATOM     15  C   UNL     1       0.502  10.557  18.676  0.00  0.00    +0.000 A 
ATOM     16  C   UNL     1       0.106  10.470  20.010  0.00  0.00    +0.000 A 
ATOM     17  C   UNL     1       0.505   9.366  20.769  0.00  0.00    +0.000 A 
ATOM     18  C   UNL     1       1.301   8.360  20.207  0.00  0.00    +0.000 A 
BRANCH  17  19
ATOM     19  N   UNL     1       0.098   9.259  22.173  0.00  0.00    +0.000 N 
ATOM     20  O   UNL     1       0.607  10.046  22.984  0.00  0.00    +0.000 OA
ATOM     21  O   UNL     1      -0.732   8.386  22.468  0.00  0.00    +0.000 OA
ENDBRANCH  17  19
ENDBRANCH   7  13
BRANCH   1  22
ATOM     22  C   UNL     1       6.979   4.107  14.236  0.00  0.00    +0.000 C 
BRANCH  22  23
ATOM     23  C   UNL     1       5.702   4.126  13.393  0.00  0.00    +0.000 C 
BRANCH  23  25
ATOM     24  C   UNL     1       4.485   3.073  11.447  0.00  0.00    +0.000 C 
ATOM     25  C   UNL     1       5.823   3.245  12.147  0.00  0.00    +0.000 C 
ENDBRANCH  23  25
ENDBRANCH  22  23
ENDBRANCH   1  22
TORSDOF 5
ENDMDL
MODEL 3
REMARK VINA RESULT:      -7.6      5.282      8.667
REMARK  Name = 
REMARK  6 active torsions:
REMARK  status: ('A' for Active; 'I' for Inactive)
REMARK    1  A    between atoms: C_1  and  C_2
REMARK    2  A    between atoms: C_2  and  C_3
REMARK    3  A    between atoms: C_3  and  C_4
REMARK    4  A    between atoms: C_4  and  N_5
REMARK    5  A    between atoms: C_11  and  C_12
REMARK    6  A    between atoms: C_16  and  N_17
REMARK                            x       y       z     vdW  Elec       q    Type
REMARK                         _______ _______ _______ _____ _____    ______ ____
ROOT
ATOM      1  N   UNL     1       6.337   5.244  14.731  0.00  0.00    +0.000 N 
ATOM      2  C   UNL     1       5.532   5.471  15.785  0.00  0.00    +0.000 A 
ATOM      3  N   UNL     1       5.047   4.632  16.670  0.00  0.00    +0.000 NA
ATOM      4  C   UNL     1       4.208   5.379  17.460  0.00  0.00    +0.000 A 
ATOM      5  C   UNL     1       3.408   4.999  18.544  0.00  0.00    +0.000 A 
ATOM      6  C   UNL     1       2.598   5.974  19.150  0.00  0.00    +0.000 A 
ATOM      7  C   UNL     1       2.578   7.315  18.719  0.00  0.00    +0.000 A 
ATOM      8  C   UNL     1       3.402   7.690  17.639  0.00  0.00    +0.000 A 
ATOM      9  C   UNL     1       4.190   6.704  17.049  0.00  0.00    +0.000 A 
ATOM     10  N   UNL     1       5.076   6.741  16.008  0.00  0.00    +0.000 N 
ATOM     11  H   UNL     1       6.476   5.989  14.057  0.00  0.00    +0.000 HD
ATOM     12  H   UNL     1       5.307   7.547  15.452  0.00  0.00    +0.000 HD
ENDROOT
BRANCH   7  13
ATOM     13  C   UNL     1       1.703   8.309  19.375  0.00  0.00    +0.000 A 
ATOM     14  C   UNL     1       1.493   8.291  20.762  0.00  0.00    +0.000 A 
ATOM     15  C   UNL     1       0.625   9.193  21.389  0.00  0.00    +0.000 A 
ATOM     16  C   UNL     1      -0.040  10.157  20.631  0.00  0.00    +0.000 A 
ATOM     17  C   UNL     1       0.174  10.206  19.251  0.00  0.00    +0.000 A 
ATOM     18  C   UNL     1       1.037   9.296  18.626  0.00  0.00    +0.000 A 
BRANCH  17  19
ATOM     19  N   UNL     1      -0.517  11.212  18.439  0.00  0.00    +0.000 N 
ATOM     20  O   UNL     1      -1.380  10.818  17.641  0.00  0.00    +0.000 OA
ATOM     21  O   UNL     1      -0.198  12.400  18.597  0.00  0.00    +0.000 OA
ENDBRANCH  17  19
ENDBRANCH   7  13
BRANCH   1  22
ATOM     22  C   UNL     1       6.291   3.921  14.123  0.00  0.00    +0.000 C 
BRANCH  22  23
ATOM     23  C   UNL     1       6.686   4.010  12.647  0.00  0.00    +0.000 C 
BRANCH  23  25
ATOM     24  C   UNL     1       4.493   3.242  11.659  0.00  0.00    +0.000 C 
ATOM     25  C   UNL     1       5.979   2.952  11.798  0.00  0.00    +0.000 C 
ENDBRANCH  23  25
ENDBRANCH  22  23
ENDBRANCH   1  22
TORSDOF 5
ENDMDL
MODEL 4
REMARK VINA RESULT:      -7.6      6.044      9.232
REMARK  Name = 
REMARK  6 active torsions:
REMARK  status: ('A' for Active; 'I' for Inactive)
REMARK    1  A    between atoms: C_1  and  C_2
REMARK    2  A    between atoms: C_2  and  C_3
REMARK    3  A    between atoms: C_3  and  C_4
REMARK    4  A    between atoms: C_4  and  N_5
REMARK    5  A    between atoms: C_11  and  C_12
REMARK    6  A    between atoms: C_16  and  N_17
REMARK                            x       y       z     vdW  Elec       q    Type
REMARK                         _______ _______ _______ _____ _____    ______ ____
ROOT
ATOM      1  N   UNL     1       6.247   5.658  15.382  0.00  0.00    +0.000 N 
ATOM      2  C   UNL     1       5.425   5.965  16.403  0.00  0.00    +0.000 A 
ATOM      3  N   UNL     1       5.082   5.254  17.451  0.00  0.00    +0.000 NA
ATOM      4  C   UNL     1       4.145   6.007  18.113  0.00  0.00    +0.000 A 
ATOM      5  C   UNL     1       3.421   5.732  19.279  0.00  0.00    +0.000 A 
ATOM      6  C   UNL     1       2.476   6.675  19.717  0.00  0.00    +0.000 A 
ATOM      7  C   UNL     1       2.246   7.887  19.036  0.00  0.00    +0.000 A 
ATOM      8  C   UNL     1       2.994   8.161  17.874  0.00  0.00    +0.000 A 
ATOM      9  C   UNL     1       3.920   7.208  17.456  0.00  0.00    +0.000 A 
ATOM     10  N   UNL     1       4.781   7.172  16.394  0.00  0.00    +0.000 N 
ATOM     11  H   UNL     1       6.265   6.269  14.573  0.00  0.00    +0.000 HD
ATOM     12  H   UNL     1       4.881   7.878  15.685  0.00  0.00    +0.000 HD
ENDROOT
BRANCH   7  13
ATOM     13  C   UNL     1       1.234   8.849  19.520  0.00  0.00    +0.000 A 
ATOM     14  C   UNL     1       0.451   9.594  18.625  0.00  0.00    +0.000 A 
ATOM     15  C   UNL     1      -0.473  10.547  19.070  0.00  0.00    +0.000 A 
ATOM     16  C   UNL     1      -0.647  10.759  20.438  0.00  0.00    +0.000 A 
ATOM     17  C   UNL     1       0.108  10.011  21.345  0.00  0.00    +0.000 A 
ATOM     18  C   UNL     1       1.037   9.064  20.896  0.00  0.00    +0.000 A 
BRANCH  17  19
ATOM     19  N   UNL     1      -0.063  10.221  22.786  0.00  0.00    +0.000 N 
ATOM     20  O   UNL     1      -0.924  11.037  23.153  0.00  0.00    +0.000 OA
ATOM     21  O   UNL     1       0.662   9.574  23.555  0.00  0.00    +0.000 OA
ENDBRANCH  17  19
ENDBRANCH   7  13
BRANCH   1  22
ATOM     22  C   UNL     1       6.400   4.249  15.043  0.00  0.00    +0.000 C 
BRANCH  22  23
ATOM     23  C   UNL     1       5.427   3.874  13.923  0.00  0.00    +0.000 C 
BRANCH  23  25
ATOM     24  C   UNL     1       5.241   2.832  11.630  0.00  0.00    +0.000 C 
ATOM     25  C   UNL     1       6.155   3.536  12.620  0.00  0.00    +0.000 C 
ENDBRANCH  23  25
ENDBRANCH  22  23
ENDBRANCH   1  22
TORSDOF 5
ENDMDL
MODEL 5
REMARK VINA RESULT:      -7.6      6.054      7.323
REMARK  Name = 
REMARK  6 active torsions:
REMARK  status: ('A' for Active; 'I' for Inactive)
REMARK    1  A    between atoms: C_1  and  C_2
REMARK    2  A    between atoms: C_2  and  C_3
REMARK    3  A    between atoms: C_3  and  C_4
REMARK    4  A    between atoms: C_4  and  N_5
REMARK    5  A    between atoms: C_11  and  C_12
REMARK    6  A    between atoms: C_16  and  N_17
REMARK                            x       y       z     vdW  Elec       q    Type
REMARK                         _______ _______ _______ _____ _____    ______ ____
ROOT
ATOM      1  N   UNL     1      -0.399  10.793  22.486  0.00  0.00    +0.000 N 
ATOM      2  C   UNL     1       0.260  10.285  21.428  0.00  0.00    +0.000 A 
ATOM      3  N   UNL     1       0.391  10.758  20.211  0.00  0.00    +0.000 NA
ATOM      4  C   UNL     1       1.075   9.792  19.515  0.00  0.00    +0.000 A 
ATOM      5  C   UNL     1       1.469   9.751  18.173  0.00  0.00    +0.000 A 
ATOM      6  C   UNL     1       2.124   8.600  17.704  0.00  0.00    +0.000 A 
ATOM      7  C   UNL     1       2.412   7.501  18.538  0.00  0.00    +0.000 A 
ATOM      8  C   UNL     1       2.027   7.562  19.892  0.00  0.00    +0.000 A 
ATOM      9  C   UNL     1       1.372   8.710  20.331  0.00  0.00    +0.000 A 
ATOM     10  N   UNL     1       0.879   9.071  21.554  0.00  0.00    +0.000 N 
ATOM     11  H   UNL     1      -0.531  10.207  23.303  0.00  0.00    +0.000 HD
ATOM     12  H   UNL     1       0.903   8.517  22.393  0.00  0.00    +0.000 HD
ENDROOT
BRANCH   7  13
ATOM     13  C   UNL     1       3.093   6.303  18.005  0.00  0.00    +0.000 A 
ATOM     14  C   UNL     1       4.279   6.410  17.262  0.00  0.00    +0.000 A 
ATOM     15  C   UNL     1       4.904   5.287  16.706  0.00  0.00    +0.000 A 
ATOM     16  C   UNL     1       4.359   4.019  16.905  0.00  0.00    +0.000 A 
ATOM     17  C   UNL     1       3.192   3.890  17.662  0.00  0.00    +0.000 A 
ATOM     18  C   UNL     1       2.564   5.016  18.210  0.00  0.00    +0.000 A 
BRANCH  17  19
ATOM     19  N   UNL     1       2.606   2.564  17.881  0.00  0.00    +0.000 N 
ATOM     20  O   UNL     1       1.372   2.487  17.982  0.00  0.00    +0.000 OA
ATOM     21  O   UNL     1       3.377   1.596  17.955  0.00  0.00    +0.000 OA
ENDBRANCH  17  19
ENDBRANCH   7  13
BRANCH   1  22
ATOM     22  C   UNL     1      -1.534  11.666  22.214  0.00  0.00    +0.000 C 
BRANCH  22  23
ATOM     23  C   UNL     1      -2.350  11.872  23.492  0.00  0.00    +0.000 C 
BRANCH  23  25
ATOM     24  C   UNL     1      -4.581  12.598  24.425  0.00  0.00    +0.000 C 
ATOM     25  C   UNL     1      -3.647  12.640  23.227  0.00  0.00    +0.000 C 
ENDBRANCH  23  25
ENDBRANCH  22  23
ENDBRANCH   1  22
TORSDOF 5
ENDMDL
MODEL 6
REMARK VINA RESULT:      -7.6      5.700      7.546
REMARK  Name = 
REMARK  6 active torsions:
REMARK  status: ('A' for Active; 'I' for Inactive)
REMARK    1  A    between atoms: C_1  and  C_2
REMARK    2  A    between atoms: C_2  and  C_3
REMARK    3  A    between atoms: C_3  and  C_4
REMARK    4  A    between atoms: C_4  and  N_5
REMARK    5  A    between atoms: C_11  and  C_12
REMARK    6  A    between atoms: C_16  and  N_17
REMARK                            x       y       z     vdW  Elec       q    Type
REMARK                         _______ _______ _______ _____ _____    ______ ____
ROOT
ATOM      1  N   UNL     1       0.314  12.411  18.545  0.00  0.00    +0.000 N 
ATOM      2  C   UNL     1       0.713  11.143  18.756  0.00  0.00    +0.000 A 
ATOM      3  N   UNL     1       0.650  10.411  19.843  0.00  0.00    +0.000 NA
ATOM      4  C   UNL     1       1.288   9.236  19.530  0.00  0.00    +0.000 A 
ATOM      5  C   UNL     1       1.540   8.105  20.315  0.00  0.00    +0.000 A 
ATOM      6  C   UNL     1       2.269   7.047  19.747  0.00  0.00    +0.000 A 
ATOM      7  C   UNL     1       2.736   7.078  18.418  0.00  0.00    +0.000 A 
ATOM      8  C   UNL     1       2.460   8.214  17.632  0.00  0.00    +0.000 A 
ATOM      9  C   UNL     1       1.743   9.254  18.219  0.00  0.00    +0.000 A 
ATOM     10  N   UNL     1       1.323  10.463  17.739  0.00  0.00    +0.000 N 
ATOM     11  H   UNL     1       0.593  12.871  17.685  0.00  0.00    +0.000 HD
ATOM     12  H   UNL     1       1.490  10.827  16.815  0.00  0.00    +0.000 HD
ENDROOT
BRANCH   7  13
ATOM     13  C   UNL     1       3.510   5.950  17.859  0.00  0.00    +0.000 A 
ATOM     14  C   UNL     1       2.921   4.691  17.662  0.00  0.00    +0.000 A 
ATOM     15  C   UNL     1       3.658   3.600  17.185  0.00  0.00    +0.000 A 
ATOM     16  C   UNL     1       5.008   3.757  16.871  0.00  0.00    +0.000 A 
ATOM     17  C   UNL     1       5.605   5.008  17.039  0.00  0.00    +0.000 A 
ATOM     18  C   UNL     1       4.868   6.096  17.525  0.00  0.00    +0.000 A 
BRANCH  17  19
ATOM     19  N   UNL     1       7.023   5.191  16.714  0.00  0.00    +0.000 N 
ATOM     20  O   UNL     1       7.304   5.882  15.723  0.00  0.00    +0.000 OA
ATOM     21  O   UNL     1       7.859   4.643  17.447  0.00  0.00    +0.000 OA
ENDBRANCH  17  19
ENDBRANCH   7  13
BRANCH   1  22
ATOM     22  C   UNL     1       0.285  13.307  19.694  0.00  0.00    +0.000 C 
BRANCH  22  23
ATOM     23  C   UNL     1       1.636  14.010  19.840  0.00  0.00    +0.000 C 
BRANCH  23  25
ATOM     24  C   UNL     1       2.230  16.163  18.661  0.00  0.00    +0.000 C 
ATOM     25  C   UNL     1       2.093  14.654  18.529  0.00  0.00    +0.000 C 
ENDBRANCH  23  25
ENDBRANCH  22  23
ENDBRANCH   1  22
TORSDOF 5
ENDMDL
MODEL 7
REMARK VINA RESULT:      -7.5      5.596      6.733
REMARK  Name = 
REMARK  6 active torsions:
REMARK  status: ('A' for Active; 'I' for Inactive)
REMARK    1  A    between atoms: C_1  and  C_2
REMARK    2  A    between atoms: C_2  and  C_3
REMARK    3  A    between atoms: C_3  and  C_4
REMARK    4  A    between atoms: C_4  and  N_5
REMARK    5  A    between atoms: C_11  and  C_12
REMARK    6  A    between atoms: C_16  and  N_17
REMARK                            x       y       z     vdW  Elec       q    Type
REMARK                         _______ _______ _______ _____ _____    ______ ____
ROOT
ATOM      1  N   UNL     1       0.029   9.888  22.995  0.00  0.00    +0.000 N 
ATOM      2  C   UNL     1       0.581   9.527  21.822  0.00  0.00    +0.000 A 
ATOM      3  N   UNL     1       0.470  10.075  20.635  0.00  0.00    +0.000 NA
ATOM      4  C   UNL     1       1.156   9.245  19.784  0.00  0.00    +0.000 A 
ATOM      5  C   UNL     1       1.348   9.325  18.399  0.00  0.00    +0.000 A 
ATOM      6  C   UNL     1       2.062   8.297  17.763  0.00  0.00    +0.000 A 
ATOM      7  C   UNL     1       2.604   7.204  18.469  0.00  0.00    +0.000 A 
ATOM      8  C   UNL     1       2.421   7.144  19.865  0.00  0.00    +0.000 A 
ATOM      9  C   UNL     1       1.702   8.171  20.472  0.00  0.00    +0.000 A 
ATOM     10  N   UNL     1       1.356   8.400  21.774  0.00  0.00    +0.000 N 
ATOM     11  H   UNL     1       0.093   9.248  23.780  0.00  0.00    +0.000 HD
ATOM     12  H   UNL     1       1.573   7.811  22.560  0.00  0.00    +0.000 HD
ENDROOT
BRANCH   7  13
ATOM     13  C   UNL     1       3.341   6.135  17.762  0.00  0.00    +0.000 A 
ATOM     14  C   UNL     1       2.878   4.810  17.765  0.00  0.00    +0.000 A 
ATOM     15  C   UNL     1       3.595   3.778  17.145  0.00  0.00    +0.000 A 
ATOM     16  C   UNL     1       4.790   4.062  16.485  0.00  0.00    +0.000 A 
ATOM     17  C   UNL     1       5.255   5.380  16.453  0.00  0.00    +0.000 A 
ATOM     18  C   UNL     1       4.540   6.408  17.081  0.00  0.00    +0.000 A 
BRANCH  17  19
ATOM     19  N   UNL     1       6.509   5.695  15.763  0.00  0.00    +0.000 N 
ATOM     20  O   UNL     1       6.590   5.418  14.556  0.00  0.00    +0.000 OA
ATOM     21  O   UNL     1       7.416   6.220  16.425  0.00  0.00    +0.000 OA
ENDBRANCH  17  19
ENDBRANCH   7  13
BRANCH   1  22
ATOM     22  C   UNL     1      -1.232  10.617  22.949  0.00  0.00    +0.000 C 
BRANCH  22  23
ATOM     23  C   UNL     1      -0.962  12.117  22.818  0.00  0.00    +0.000 C 
BRANCH  23  25
ATOM     24  C   UNL     1      -1.315  14.041  21.220  0.00  0.00    +0.000 C 
ATOM     25  C   UNL     1      -1.922  12.789  21.834  0.00  0.00    +0.000 C 
ENDBRANCH  23  25
ENDBRANCH  22  23
ENDBRANCH   1  22
TORSDOF 5
ENDMDL
MODEL 8
REMARK VINA RESULT:      -7.5      5.836      7.229
REMARK  Name = 
REMARK  6 active torsions:
REMARK  status: ('A' for Active; 'I' for Inactive)
REMARK    1  A    between atoms: C_1  and  C_2
REMARK    2  A    between atoms: C_2  and  C_3
REMARK    3  A    between atoms: C_3  and  C_4
REMARK    4  A    between atoms: C_4  and  N_5
REMARK    5  A    between atoms: C_11  and  C_12
REMARK    6  A    between atoms: C_16  and  N_17
REMARK                            x       y       z     vdW  Elec       q    Type
REMARK                         _______ _______ _______ _____ _____    ______ ____
ROOT
ATOM      1  N   UNL     1       0.241  12.424  18.809  0.00  0.00    +0.000 N 
ATOM      2  C   UNL     1       0.663  11.154  18.950  0.00  0.00    +0.000 A 
ATOM      3  N   UNL     1       0.626  10.366  19.998  0.00  0.00    +0.000 NA
ATOM      4  C   UNL     1       1.278   9.220  19.618  0.00  0.00    +0.000 A 
ATOM      5  C   UNL     1       1.558   8.054  20.340  0.00  0.00    +0.000 A 
ATOM      6  C   UNL     1       2.296   7.039  19.710  0.00  0.00    +0.000 A 
ATOM      7  C   UNL     1       2.745   7.145  18.378  0.00  0.00    +0.000 A 
ATOM      8  C   UNL     1       2.440   8.316  17.655  0.00  0.00    +0.000 A 
ATOM      9  C   UNL     1       1.715   9.312  18.304  0.00  0.00    +0.000 A 
ATOM     10  N   UNL     1       1.270  10.537  17.891  0.00  0.00    +0.000 N 
ATOM     11  H   UNL     1       0.501  12.932  17.971  0.00  0.00    +0.000 HD
ATOM     12  H   UNL     1       1.419  10.950  16.986  0.00  0.00    +0.000 HD
ENDROOT
BRANCH   7  13
ATOM     13  C   UNL     1       3.528   6.060  17.753  0.00  0.00    +0.000 A 
ATOM     14  C   UNL     1       3.020   4.754  17.663  0.00  0.00    +0.000 A 
ATOM     15  C   UNL     1       3.774   3.705  17.123  0.00  0.00    +0.000 A 
ATOM     16  C   UNL     1       5.058   3.952  16.635  0.00  0.00    +0.000 A 
ATOM     17  C   UNL     1       5.572   5.250  16.695  0.00  0.00    +0.000 A 
ATOM     18  C   UNL     1       4.818   6.296  17.245  0.00  0.00    +0.000 A 
BRANCH  17  19
ATOM     19  N   UNL     1       6.919   5.527  16.187  0.00  0.00    +0.000 N 
ATOM     20  O   UNL     1       7.412   4.717  15.387  0.00  0.00    +0.000 OA
ATOM     21  O   UNL     1       7.488   6.553  16.587  0.00  0.00    +0.000 OA
ENDBRANCH  17  19
ENDBRANCH   7  13
BRANCH   1  22
ATOM     22  C   UNL     1       0.214  13.260  20.002  0.00  0.00    +0.000 C 
BRANCH  22  23
ATOM     23  C   UNL     1      -1.189  13.837  20.203  0.00  0.00    +0.000 C 
BRANCH  23  25
ATOM     24  C   UNL     1      -0.823  12.608  22.378  0.00  0.00    +0.000 C 
ATOM     25  C   UNL     1      -1.739  13.538  21.599  0.00  0.00    +0.000 C 
ENDBRANCH  23  25
ENDBRANCH  22  23
ENDBRANCH   1  22
TORSDOF 5
ENDMDL
MODEL 9
REMARK VINA RESULT:      -7.4      6.630      9.788
REMARK  Name = 
REMARK  6 active torsions:
REMARK  status: ('A' for Active; 'I' for Inactive)
REMARK    1  A    between atoms: C_1  and  C_2
REMARK    2  A    between atoms: C_2  and  C_3
REMARK    3  A    between atoms: C_3  and  C_4
REMARK    4  A    between atoms: C_4  and  N_5
REMARK    5  A    between atoms: C_11  and  C_12
REMARK    6  A    between atoms: C_16  and  N_17
REMARK                            x       y       z     vdW  Elec       q    Type
REMARK                         _______ _______ _______ _____ _____    ______ ____
ROOT
ATOM      1  N   UNL     1       5.009   4.511  18.004  0.00  0.00    +0.000 N 
ATOM      2  C   UNL     1       4.143   5.528  18.176  0.00  0.00    +0.000 A 
ATOM      3  N   UNL     1       3.790   6.481  17.347  0.00  0.00    +0.000 NA
ATOM      4  C   UNL     1       2.959   7.303  18.068  0.00  0.00    +0.000 A 
ATOM      5  C   UNL     1       2.310   8.486  17.697  0.00  0.00    +0.000 A 
ATOM      6  C   UNL     1       1.547   9.161  18.664  0.00  0.00    +0.000 A 
ATOM      7  C   UNL     1       1.399   8.681  19.981  0.00  0.00    +0.000 A 
ATOM      8  C   UNL     1       2.042   7.479  20.338  0.00  0.00    +0.000 A 
ATOM      9  C   UNL     1       2.800   6.832  19.364  0.00  0.00    +0.000 A 
ATOM     10  N   UNL     1       3.530   5.677  19.390  0.00  0.00    +0.000 N 
ATOM     11  H   UNL     1       5.283   3.965  18.813  0.00  0.00    +0.000 HD
ATOM     12  H   UNL     1       3.656   5.070  20.182  0.00  0.00    +0.000 HD
ENDROOT
BRANCH   7  13
ATOM     13  C   UNL     1       0.597   9.426  20.974  0.00  0.00    +0.000 A 
ATOM     14  C   UNL     1       0.587   9.053  22.327  0.00  0.00    +0.000 A 
ATOM     15  C   UNL     1      -0.210   9.716  23.268  0.00  0.00    +0.000 A 
ATOM     16  C   UNL     1      -1.004  10.792  22.871  0.00  0.00    +0.000 A 
ATOM     17  C   UNL     1      -0.990  11.192  21.532  0.00  0.00    +0.000 A 
ATOM     18  C   UNL     1      -0.197  10.521  20.591  0.00  0.00    +0.000 A 
BRANCH  17  19
ATOM     19  N   UNL     1      -1.818  12.320  21.098  0.00  0.00    +0.000 N 
ATOM     20  O   UNL     1      -2.542  12.157  20.103  0.00  0.00    +0.000 OA
ATOM     21  O   UNL     1      -1.747  13.373  21.748  0.00  0.00    +0.000 OA
ENDBRANCH  17  19
ENDBRANCH   7  13
BRANCH   1  22
ATOM     22  C   UNL     1       6.090   4.704  17.047  0.00  0.00    +0.000 C 
BRANCH  22  23
ATOM     23  C   UNL     1       7.433   4.744  17.779  0.00  0.00    +0.000 C 
BRANCH  23  25
ATOM     24  C   UNL     1       7.724   7.253  17.802  0.00  0.00    +0.000 C 
ATOM     25  C   UNL     1       7.577   5.997  18.646  0.00  0.00    +0.000 C 
ENDBRANCH  23  25
ENDBRANCH  22  23
ENDBRANCH   1  22
TORSDOF 5
ENDMDL
