MODEL 1
REMARK VINA RESULT:      -8.8      0.000      0.000
REMARK  Name = 
REMARK  4 active torsions:
REMARK  status: ('A' for Active; 'I' for Inactive)
REMARK    1  A    between atoms: C_4  and  C_5
REMARK    2  A    between atoms: C_5  and  N_6
REMARK    3  A    between atoms: C_5  and  C_18
REMARK    4  A    between atoms: N_11  and  C_12
REMARK                            x       y       z     vdW  Elec       q    Type
REMARK                         _______ _______ _______ _____ _____    ______ ____
ROOT
ATOM      1  C   UNL     1       5.428   4.832  16.513  0.00  0.00    +0.000 C 
ENDROOT
BRANCH   1   2
ATOM      2  N   UNL     1       5.014   3.622  17.259  0.00  0.00    +0.000 N 
ATOM      3  C   UNL     1       3.732   3.283  17.587  0.00  0.00    +0.000 A 
ATOM      4  N   UNL     1       3.249   2.057  17.494  0.00  0.00    +0.000 NA
ATOM      5  N   UNL     1       1.900   2.144  17.685  0.00  0.00    +0.000 NA
ATOM      6  N   UNL     1       1.532   3.388  17.939  0.00  0.00    +0.000 NA
ATOM      7  N   UNL     1       2.678   4.113  18.011  0.00  0.00    +0.000 N 
ATOM      8  H   UNL     1       5.640   2.841  17.110  0.00  0.00    +0.000 HD
BRANCH   7   9
ATOM      9  C   UNL     1       2.662   5.460  18.448  0.00  0.00    +0.000 A 
ATOM     10  C   UNL     1       2.841   6.507  17.538  0.00  0.00    +0.000 A 
ATOM     11  C   UNL     1       2.558   7.819  17.918  0.00  0.00    +0.000 A 
ATOM     12  C   UNL     1       2.167   8.094  19.226  0.00  0.00    +0.000 A 
ATOM     13  C   UNL     1       2.115   7.069  20.171  0.00  0.00    +0.000 A 
ATOM     14  C   UNL     1       2.375   5.750  19.790  0.00  0.00    +0.000 A 
ENDBRANCH   7   9
ENDBRANCH   1   2
BRANCH   1  18
ATOM     15  C   UNL     1       6.653   3.891  12.468  0.00  0.00    +0.000 A 
ATOM     16  C   UNL     1       5.372   3.585  12.909  0.00  0.00    +0.000 A 
ATOM     17  C   UNL     1       4.967   3.980  14.184  0.00  0.00    +0.000 A 
ATOM     18  C   UNL     1       5.849   4.653  15.056  0.00  0.00    +0.000 A 
ATOM     19  C   UNL     1       7.097   5.047  14.555  0.00  0.00    +0.000 A 
ATOM     20  C   UNL     1       7.503   4.647  13.276  0.00  0.00    +0.000 A 
ENDBRANCH   1  18
BRANCH   1  21
ATOM     21  C   UNL     1       6.408   5.696  17.302  0.00  0.00    +0.000 A 
ATOM     22  C   UNL     1       6.538   7.055  16.949  0.00  0.00    +0.000 A 
ATOM     23  C   UNL     1       7.435   7.890  17.613  0.00  0.00    +0.000 A 
ATOM     24  C   UNL     1       8.217   7.384  18.643  0.00  0.00    +0.000 A 
ATOM     25  C   UNL     1       8.105   6.041  19.005  0.00  0.00    +0.000 A 
ATOM     26  C   UNL     1       7.211   5.199  18.333  0.00  0.00    +0.000 A 
ENDBRANCH   1  21
TORSDOF 4
ENDMDL
MODEL 2
REMARK VINA RESULT:      -8.6      2.141      5.674
REMARK  Name = 
REMARK  4 active torsions:
REMARK  status: ('A' for Active; 'I' for Inactive)
REMARK    1  A    between atoms: C_4  and  C_5
REMARK    2  A    between atoms: C_5  and  N_6
REMARK    3  A    between atoms: C_5  and  C_18
REMARK    4  A    between atoms: N_11  and  C_12
REMARK                            x       y       z     vdW  Elec       q    Type
REMARK                         _______ _______ _______ _____ _____    ______ ____
ROOT
ATOM      1  C   UNL     1       3.779   5.498  17.813  0.00  0.00    +0.000 C 
ENDROOT
BRANCH   1   2
ATOM      2  N   UNL     1       4.066   5.517  16.360  0.00  0.00    +0.000 N 
ATOM      3  C   UNL     1       5.240   5.141  15.771  0.00  0.00    +0.000 A 
ATOM      4  N   UNL     1       5.309   4.422  14.665  0.00  0.00    +0.000 NA
ATOM      5  N   UNL     1       6.616   4.057  14.508  0.00  0.00    +0.000 NA
ATOM      6  N   UNL     1       7.373   4.566  15.465  0.00  0.00    +0.000 NA
ATOM      7  N   UNL     1       6.559   5.360  16.208  0.00  0.00    +0.000 N 
ATOM      8  H   UNL     1       3.237   5.369  15.800  0.00  0.00    +0.000 HD
BRANCH   7   9
ATOM      9  C   UNL     1       7.086   6.204  17.216  0.00  0.00    +0.000 A 
ATOM     10  C   UNL     1       7.525   5.673  18.432  0.00  0.00    +0.000 A 
ATOM     11  C   UNL     1       8.283   6.456  19.303  0.00  0.00    +0.000 A 
ATOM     12  C   UNL     1       8.541   7.789  18.994  0.00  0.00    +0.000 A 
ATOM     13  C   UNL     1       7.992   8.358  17.844  0.00  0.00    +0.000 A 
ATOM     14  C   UNL     1       7.251   7.573  16.957  0.00  0.00    +0.000 A 
ENDBRANCH   7   9
ENDBRANCH   1   2
BRANCH   1  18
ATOM     15  C   UNL     1       1.787   2.124  19.656  0.00  0.00    +0.000 A 
ATOM     16  C   UNL     1       1.240   2.746  18.540  0.00  0.00    +0.000 A 
ATOM     17  C   UNL     1       1.944   3.770  17.906  0.00  0.00    +0.000 A 
ATOM     18  C   UNL     1       3.187   4.218  18.399  0.00  0.00    +0.000 A 
ATOM     19  C   UNL     1       3.771   3.508  19.458  0.00  0.00    +0.000 A 
ATOM     20  C   UNL     1       3.062   2.483  20.095  0.00  0.00    +0.000 A 
ENDBRANCH   1  18
BRANCH   1  21
ATOM     21  C   UNL     1       3.040   6.750  18.277  0.00  0.00    +0.000 A 
ATOM     22  C   UNL     1       2.511   6.771  19.583  0.00  0.00    +0.000 A 
ATOM     23  C   UNL     1       1.802   7.874  20.057  0.00  0.00    +0.000 A 
ATOM     24  C   UNL     1       1.610   8.977  19.236  0.00  0.00    +0.000 A 
ATOM     25  C   UNL     1       2.123   8.974  17.938  0.00  0.00    +0.000 A 
ATOM     26  C   UNL     1       2.828   7.864  17.458  0.00  0.00    +0.000 A 
ENDBRANCH   1  21
TORSDOF 4
ENDMDL
MODEL 3
REMARK VINA RESULT:      -8.6      0.246      1.383
REMARK  Name = 
REMARK  4 active torsions:
REMARK  status: ('A' for Active; 'I' for Inactive)
REMARK    1  A    between atoms: C_4  and  C_5
REMARK    2  A    between atoms: C_5  and  N_6
REMARK    3  A    between atoms: C_5  and  C_18
REMARK    4  A    between atoms: N_11  and  C_12
REMARK                            x       y       z     vdW  Elec       q    Type
REMARK                         _______ _______ _______ _____ _____    ______ ____
ROOT
ATOM      1  C   UNL     1       5.550   4.673  16.521  0.00  0.00    +0.000 C 
ENDROOT
BRANCH   1   2
ATOM      2  N   UNL     1       5.181   3.524  17.379  0.00  0.00    +0.000 N 
ATOM      3  C   UNL     1       3.915   3.187  17.766  0.00  0.00    +0.000 A 
ATOM      4  N   UNL     1       3.459   1.948  17.790  0.00  0.00    +0.000 NA
ATOM      5  N   UNL     1       2.112   2.022  18.005  0.00  0.00    +0.000 NA
ATOM      6  N   UNL     1       1.722   3.276  18.160  0.00  0.00    +0.000 NA
ATOM      7  N   UNL     1       2.852   4.028  18.142  0.00  0.00    +0.000 N 
ATOM      8  H   UNL     1       5.821   2.746  17.282  0.00  0.00    +0.000 HD
BRANCH   7   9
ATOM      9  C   UNL     1       2.815   5.408  18.462  0.00  0.00    +0.000 A 
ATOM     10  C   UNL     1       3.030   6.374  17.475  0.00  0.00    +0.000 A 
ATOM     11  C   UNL     1       2.728   7.712  17.730  0.00  0.00    +0.000 A 
ATOM     12  C   UNL     1       2.281   8.096  18.992  0.00  0.00    +0.000 A 
ATOM     13  C   UNL     1       2.191   7.154  20.018  0.00  0.00    +0.000 A 
ATOM     14  C   UNL     1       2.470   5.809  19.761  0.00  0.00    +0.000 A 
ENDBRANCH   7   9
ENDBRANCH   1   2
BRANCH   1  18
ATOM     15  C   UNL     1       6.767   4.249  12.388  0.00  0.00    +0.000 A 
ATOM     16  C   UNL     1       7.604   4.862  13.313  0.00  0.00    +0.000 A 
ATOM     17  C   UNL     1       7.233   4.904  14.657  0.00  0.00    +0.000 A 
ATOM     18  C   UNL     1       6.002   4.372  15.094  0.00  0.00    +0.000 A 
ATOM     19  C   UNL     1       5.224   3.665  14.167  0.00  0.00    +0.000 A 
ATOM     20  C   UNL     1       5.595   3.626  12.818  0.00  0.00    +0.000 A 
ENDBRANCH   1  18
BRANCH   1  21
ATOM     21  C   UNL     1       6.475   5.657  17.232  0.00  0.00    +0.000 A 
ATOM     22  C   UNL     1       7.230   5.195  18.329  0.00  0.00    +0.000 A 
ATOM     23  C   UNL     1       8.072   6.051  19.037  0.00  0.00    +0.000 A 
ATOM     24  C   UNL     1       8.177   7.384  18.662  0.00  0.00    +0.000 A 
ATOM     25  C   UNL     1       7.435   7.861  17.581  0.00  0.00    +0.000 A 
ATOM     26  C   UNL     1       6.582   7.005  16.874  0.00  0.00    +0.000 A 
ENDBRANCH   1  21
TORSDOF 4
ENDMDL
MODEL 4
REMARK VINA RESULT:      -8.4      2.227      5.669
REMARK  Name = 
REMARK  4 active torsions:
REMARK  status: ('A' for Active; 'I' for Inactive)
REMARK    1  A    between atoms: C_4  and  C_5
REMARK    2  A    between atoms: C_5  and  N_6
REMARK    3  A    between atoms: C_5  and  C_18
REMARK    4  A    between atoms: N_11  and  C_12
REMARK                            x       y       z     vdW  Elec       q    Type
REMARK                         _______ _______ _______ _____ _____    ______ ____
ROOT
ATOM      1  C   UNL     1       3.831   5.679  17.766  0.00  0.00    +0.000 C 
ENDROOT
BRANCH   1   2
ATOM      2  N   UNL     1       4.136   5.753  16.319  0.00  0.00    +0.000 N 
ATOM      3  C   UNL     1       5.308   5.375  15.728  0.00  0.00    +0.000 A 
ATOM      4  N   UNL     1       5.375   4.703  14.593  0.00  0.00    +0.000 NA
ATOM      5  N   UNL     1       6.675   4.314  14.435  0.00  0.00    +0.000 NA
ATOM      6  N   UNL     1       7.431   4.765  15.422  0.00  0.00    +0.000 NA
ATOM      7  N   UNL     1       6.626   5.546  16.188  0.00  0.00    +0.000 N 
ATOM      8  H   UNL     1       3.311   5.647  15.743  0.00  0.00    +0.000 HD
BRANCH   7   9
ATOM      9  C   UNL     1       7.160   6.334  17.237  0.00  0.00    +0.000 A 
ATOM     10  C   UNL     1       7.569   5.743  18.436  0.00  0.00    +0.000 A 
ATOM     11  C   UNL     1       8.334   6.470  19.348  0.00  0.00    +0.000 A 
ATOM     12  C   UNL     1       8.628   7.808  19.097  0.00  0.00    +0.000 A 
ATOM     13  C   UNL     1       8.110   8.437  17.965  0.00  0.00    +0.000 A 
ATOM     14  C   UNL     1       7.362   7.708  17.037  0.00  0.00    +0.000 A 
ENDBRANCH   7   9
ENDBRANCH   1   2
BRANCH   1  18
ATOM     15  C   UNL     1       2.591   1.728  19.031  0.00  0.00    +0.000 A 
ATOM     16  C   UNL     1       3.808   2.255  19.447  0.00  0.00    +0.000 A 
ATOM     17  C   UNL     1       4.145   3.565  19.105  0.00  0.00    +0.000 A 
ATOM     18  C   UNL     1       3.293   4.356  18.308  0.00  0.00    +0.000 A 
ATOM     19  C   UNL     1       2.026   3.847  17.990  0.00  0.00    +0.000 A 
ATOM     20  C   UNL     1       1.690   2.531  18.331  0.00  0.00    +0.000 A 
ENDBRANCH   1  18
BRANCH   1  21
ATOM     21  C   UNL     1       3.027   6.881  18.254  0.00  0.00    +0.000 A 
ATOM     22  C   UNL     1       2.542   6.872  19.577  0.00  0.00    +0.000 A 
ATOM     23  C   UNL     1       1.779   7.927  20.074  0.00  0.00    +0.000 A 
ATOM     24  C   UNL     1       1.486   9.012  19.259  0.00  0.00    +0.000 A 
ATOM     25  C   UNL     1       1.955   9.038  17.944  0.00  0.00    +0.000 A 
ATOM     26  C   UNL     1       2.714   7.976  17.441  0.00  0.00    +0.000 A 
ENDBRANCH   1  21
TORSDOF 4
ENDMDL
MODEL 5
REMARK VINA RESULT:      -8.4      2.259      5.438
REMARK  Name = 
REMARK  4 active torsions:
REMARK  status: ('A' for Active; 'I' for Inactive)
REMARK    1  A    between atoms: C_4  and  C_5
REMARK    2  A    between atoms: C_5  and  N_6
REMARK    3  A    between atoms: C_5  and  C_18
REMARK    4  A    between atoms: N_11  and  C_12
REMARK                            x       y       z     vdW  Elec       q    Type
REMARK                         _______ _______ _______ _____ _____    ______ ____
ROOT
ATOM      1  C   UNL     1       3.995   5.709  17.697  0.00  0.00    +0.000 C 
ENDROOT
BRANCH   1   2
ATOM      2  N   UNL     1       4.251   5.908  16.252  0.00  0.00    +0.000 N 
ATOM      3  C   UNL     1       5.317   5.416  15.553  0.00  0.00    +0.000 A 
ATOM      4  N   UNL     1       5.223   4.886  14.347  0.00  0.00    +0.000 NA
ATOM      5  N   UNL     1       6.430   4.310  14.068  0.00  0.00    +0.000 NA
ATOM      6  N   UNL     1       7.290   4.504  15.054  0.00  0.00    +0.000 NA
ATOM      7  N   UNL     1       6.662   5.307  15.951  0.00  0.00    +0.000 N 
ATOM      8  H   UNL     1       3.399   6.013  15.718  0.00  0.00    +0.000 HD
BRANCH   7   9
ATOM      9  C   UNL     1       7.364   5.861  17.049  0.00  0.00    +0.000 A 
ATOM     10  C   UNL     1       7.668   7.226  17.086  0.00  0.00    +0.000 A 
ATOM     11  C   UNL     1       8.110   7.811  18.272  0.00  0.00    +0.000 A 
ATOM     12  C   UNL     1       8.319   7.022  19.401  0.00  0.00    +0.000 A 
ATOM     13  C   UNL     1       8.142   5.640  19.330  0.00  0.00    +0.000 A 
ATOM     14  C   UNL     1       7.677   5.052  18.151  0.00  0.00    +0.000 A 
ENDBRANCH   7   9
ENDBRANCH   1   2
BRANCH   1  18
ATOM     15  C   UNL     1       3.218   1.596  18.806  0.00  0.00    +0.000 A 
ATOM     16  C   UNL     1       4.193   2.335  19.465  0.00  0.00    +0.000 A 
ATOM     17  C   UNL     1       4.363   3.685  19.156  0.00  0.00    +0.000 A 
ATOM     18  C   UNL     1       3.590   4.309  18.156  0.00  0.00    +0.000 A 
ATOM     19  C   UNL     1       2.541   3.578  17.580  0.00  0.00    +0.000 A 
ATOM     20  C   UNL     1       2.374   2.223  17.889  0.00  0.00    +0.000 A 
ENDBRANCH   1  18
BRANCH   1  21
ATOM     21  C   UNL     1       3.103   6.798  18.286  0.00  0.00    +0.000 A 
ATOM     22  C   UNL     1       2.835   7.940  17.504  0.00  0.00    +0.000 A 
ATOM     23  C   UNL     1       2.049   8.982  17.995  0.00  0.00    +0.000 A 
ATOM     24  C   UNL     1       1.517   8.902  19.275  0.00  0.00    +0.000 A 
ATOM     25  C   UNL     1       1.774   7.781  20.065  0.00  0.00    +0.000 A 
ATOM     26  C   UNL     1       2.569   6.738  19.577  0.00  0.00    +0.000 A 
ENDBRANCH   1  21
TORSDOF 4
ENDMDL
MODEL 6
REMARK VINA RESULT:      -8.4      2.999      6.565
REMARK  Name = 
REMARK  4 active torsions:
REMARK  status: ('A' for Active; 'I' for Inactive)
REMARK    1  A    between atoms: C_4  and  C_5
REMARK    2  A    between atoms: C_5  and  N_6
REMARK    3  A    between atoms: C_5  and  C_18
REMARK    4  A    between atoms: N_11  and  C_12
REMARK                            x       y       z     vdW  Elec       q    Type
REMARK                         _______ _______ _______ _____ _____    ______ ____
ROOT
ATOM      1  C   UNL     1       3.103   6.191  19.168  0.00  0.00    +0.000 C 
ENDROOT
BRANCH   1   2
ATOM      2  N   UNL     1       4.544   6.197  19.509  0.00  0.00    +0.000 N 
ATOM      3  C   UNL     1       5.550   5.685  18.740  0.00  0.00    +0.000 A 
ATOM      4  N   UNL     1       6.712   6.287  18.556  0.00  0.00    +0.000 NA
ATOM      5  N   UNL     1       7.362   5.605  17.568  0.00  0.00    +0.000 NA
ATOM      6  N   UNL     1       6.655   4.564  17.160  0.00  0.00    +0.000 NA
ATOM      7  N   UNL     1       5.563   4.511  17.966  0.00  0.00    +0.000 N 
ATOM      8  H   UNL     1       4.803   6.986  20.087  0.00  0.00    +0.000 HD
BRANCH   7   9
ATOM      9  C   UNL     1       4.678   3.406  17.922  0.00  0.00    +0.000 A 
ATOM     10  C   UNL     1       4.721   2.418  18.909  0.00  0.00    +0.000 A 
ATOM     11  C   UNL     1       3.686   1.489  19.015  0.00  0.00    +0.000 A 
ATOM     12  C   UNL     1       2.644   1.502  18.089  0.00  0.00    +0.000 A 
ATOM     13  C   UNL     1       2.666   2.403  17.025  0.00  0.00    +0.000 A 
ATOM     14  C   UNL     1       3.689   3.350  16.928  0.00  0.00    +0.000 A 
ENDBRANCH   7   9
ENDBRANCH   1   2
BRANCH   1  18
ATOM     15  C   UNL     1       0.625   9.737  19.365  0.00  0.00    +0.000 A 
ATOM     16  C   UNL     1       0.895   8.997  20.510  0.00  0.00    +0.000 A 
ATOM     17  C   UNL     1       1.771   7.913  20.441  0.00  0.00    +0.000 A 
ATOM     18  C   UNL     1       2.360   7.525  19.220  0.00  0.00    +0.000 A 
ATOM     19  C   UNL     1       2.161   8.346  18.102  0.00  0.00    +0.000 A 
ATOM     20  C   UNL     1       1.280   9.431  18.171  0.00  0.00    +0.000 A 
ENDBRANCH   1  18
BRANCH   1  21
ATOM     21  C   UNL     1       2.342   5.070  19.870  0.00  0.00    +0.000 A 
ATOM     22  C   UNL     1       2.873   4.546  21.066  0.00  0.00    +0.000 A 
ATOM     23  C   UNL     1       2.240   3.503  21.741  0.00  0.00    +0.000 A 
ATOM     24  C   UNL     1       1.064   2.966  21.234  0.00  0.00    +0.000 A 
ATOM     25  C   UNL     1       0.524   3.469  20.050  0.00  0.00    +0.000 A 
ATOM     26  C   UNL     1       1.163   4.510  19.367  0.00  0.00    +0.000 A 
ENDBRANCH   1  21
TORSDOF 4
ENDMDL
MODEL 7
REMARK VINA RESULT:      -8.4      2.191      5.533
REMARK  Name = 
REMARK  4 active torsions:
REMARK  status: ('A' for Active; 'I' for Inactive)
REMARK    1  A    between atoms: C_4  and  C_5
REMARK    2  A    between atoms: C_5  and  N_6
REMARK    3  A    between atoms: C_5  and  C_18
REMARK    4  A    between atoms: N_11  and  C_12
REMARK                            x       y       z     vdW  Elec       q    Type
REMARK                         _______ _______ _______ _____ _____    ______ ____
ROOT
ATOM      1  C   UNL     1       3.888   5.643  17.688  0.00  0.00    +0.000 C 
ENDROOT
BRANCH   1   2
ATOM      2  N   UNL     1       4.141   5.748  16.232  0.00  0.00    +0.000 N 
ATOM      3  C   UNL     1       5.191   5.189  15.560  0.00  0.00    +0.000 A 
ATOM      4  N   UNL     1       5.078   4.589  14.389  0.00  0.00    +0.000 NA
ATOM      5  N   UNL     1       6.269   3.969  14.142  0.00  0.00    +0.000 NA
ATOM      6  N   UNL     1       7.139   4.202  15.110  0.00  0.00    +0.000 NA
ATOM      7  N   UNL     1       6.535   5.073  15.959  0.00  0.00    +0.000 N 
ATOM      8  H   UNL     1       3.288   5.840  15.696  0.00  0.00    +0.000 HD
BRANCH   7   9
ATOM      9  C   UNL     1       7.255   5.676  17.019  0.00  0.00    +0.000 A 
ATOM     10  C   UNL     1       7.535   7.046  17.002  0.00  0.00    +0.000 A 
ATOM     11  C   UNL     1       7.998   7.679  18.155  0.00  0.00    +0.000 A 
ATOM     12  C   UNL     1       8.252   6.932  19.303  0.00  0.00    +0.000 A 
ATOM     13  C   UNL     1       8.099   5.546  19.283  0.00  0.00    +0.000 A 
ATOM     14  C   UNL     1       7.614   4.910  18.137  0.00  0.00    +0.000 A 
ENDBRANCH   7   9
ENDBRANCH   1   2
BRANCH   1  18
ATOM     15  C   UNL     1       2.165   2.077  19.437  0.00  0.00    +0.000 A 
ATOM     16  C   UNL     1       1.490   2.775  18.443  0.00  0.00    +0.000 A 
ATOM     17  C   UNL     1       2.104   3.866  17.827  0.00  0.00    +0.000 A 
ATOM     18  C   UNL     1       3.385   4.304  18.222  0.00  0.00    +0.000 A 
ATOM     19  C   UNL     1       4.091   3.524  19.149  0.00  0.00    +0.000 A 
ATOM     20  C   UNL     1       3.473   2.432  19.768  0.00  0.00    +0.000 A 
ENDBRANCH   1  18
BRANCH   1  21
ATOM     21  C   UNL     1       3.087   6.826  18.226  0.00  0.00    +0.000 A 
ATOM     22  C   UNL     1       2.596   6.758  19.545  0.00  0.00    +0.000 A 
ATOM     23  C   UNL     1       1.835   7.793  20.086  0.00  0.00    +0.000 A 
ATOM     24  C   UNL     1       1.552   8.916  19.320  0.00  0.00    +0.000 A 
ATOM     25  C   UNL     1       2.026   9.000  18.010  0.00  0.00    +0.000 A 
ATOM     26  C   UNL     1       2.783   7.958  17.462  0.00  0.00    +0.000 A 
ENDBRANCH   1  21
TORSDOF 4
ENDMDL
MODEL 8
REMARK VINA RESULT:      -8.3      3.025      5.149
REMARK  Name = 
REMARK  4 active torsions:
REMARK  status: ('A' for Active; 'I' for Inactive)
REMARK    1  A    between atoms: C_4  and  C_5
REMARK    2  A    between atoms: C_5  and  N_6
REMARK    3  A    between atoms: C_5  and  C_18
REMARK    4  A    between atoms: N_11  and  C_12
REMARK                            x       y       z     vdW  Elec       q    Type
REMARK                         _______ _______ _______ _____ _____    ______ ____
ROOT
ATOM      1  C   UNL     1       4.260   5.718  18.858  0.00  0.00    +0.000 C 
ENDROOT
BRANCH   1   2
ATOM      2  N   UNL     1       3.185   6.688  18.551  0.00  0.00    +0.000 N 
ATOM      3  C   UNL     1       2.266   7.171  19.439  0.00  0.00    +0.000 A 
ATOM      4  N   UNL     1       1.893   8.437  19.494  0.00  0.00    +0.000 NA
ATOM      5  N   UNL     1       1.148   8.585  20.629  0.00  0.00    +0.000 NA
ATOM      6  N   UNL     1       1.009   7.432  21.263  0.00  0.00    +0.000 NA
ATOM      7  N   UNL     1       1.595   6.495  20.473  0.00  0.00    +0.000 N 
ATOM      8  H   UNL     1       3.437   7.324  17.805  0.00  0.00    +0.000 HD
BRANCH   7   9
ATOM      9  C   UNL     1       1.471   5.115  20.767  0.00  0.00    +0.000 A 
ATOM     10  C   UNL     1       0.582   4.310  20.048  0.00  0.00    +0.000 A 
ATOM     11  C   UNL     1       0.658   2.921  20.151  0.00  0.00    +0.000 A 
ATOM     12  C   UNL     1       1.570   2.338  21.027  0.00  0.00    +0.000 A 
ATOM     13  C   UNL     1       2.368   3.141  21.842  0.00  0.00    +0.000 A 
ATOM     14  C   UNL     1       2.312   4.532  21.726  0.00  0.00    +0.000 A 
ENDBRANCH   7   9
ENDBRANCH   1   2
BRANCH   1  18
ATOM     15  C   UNL     1       8.318   7.055  18.156  0.00  0.00    +0.000 A 
ATOM     16  C   UNL     1       8.045   6.104  19.132  0.00  0.00    +0.000 A 
ATOM     17  C   UNL     1       6.745   5.618  19.278  0.00  0.00    +0.000 A 
ATOM     18  C   UNL     1       5.689   6.104  18.480  0.00  0.00    +0.000 A 
ATOM     19  C   UNL     1       6.003   6.981  17.432  0.00  0.00    +0.000 A 
ATOM     20  C   UNL     1       7.307   7.470  17.290  0.00  0.00    +0.000 A 
ENDBRANCH   1  18
BRANCH   1  21
ATOM     21  C   UNL     1       3.905   4.298  18.424  0.00  0.00    +0.000 A 
ATOM     22  C   UNL     1       2.940   4.128  17.411  0.00  0.00    +0.000 A 
ATOM     23  C   UNL     1       2.551   2.858  16.990  0.00  0.00    +0.000 A 
ATOM     24  C   UNL     1       3.121   1.733  17.572  0.00  0.00    +0.000 A 
ATOM     25  C   UNL     1       4.076   1.880  18.579  0.00  0.00    +0.000 A 
ATOM     26  C   UNL     1       4.460   3.155  19.009  0.00  0.00    +0.000 A 
ENDBRANCH   1  21
TORSDOF 4
ENDMDL
MODEL 9
REMARK VINA RESULT:      -8.3      3.001      6.516
REMARK  Name = 
REMARK  4 active torsions:
REMARK  status: ('A' for Active; 'I' for Inactive)
REMARK    1  A    between atoms: C_4  and  C_5
REMARK    2  A    between atoms: C_5  and  N_6
REMARK    3  A    between atoms: C_5  and  C_18
REMARK    4  A    between atoms: N_11  and  C_12
REMARK                            x       y       z     vdW  Elec       q    Type
REMARK                         _______ _______ _______ _____ _____    ______ ____
ROOT
ATOM      1  C   UNL     1       3.023   6.202  19.128  0.00  0.00    +0.000 C 
ENDROOT
BRANCH   1   2
ATOM      2  N   UNL     1       4.478   6.312  19.382  0.00  0.00    +0.000 N 
ATOM      3  C   UNL     1       5.469   5.827  18.577  0.00  0.00    +0.000 A 
ATOM      4  N   UNL     1       6.577   6.489  18.296  0.00  0.00    +0.000 NA
ATOM      5  N   UNL     1       7.213   5.801  17.302  0.00  0.00    +0.000 NA
ATOM      6  N   UNL     1       6.551   4.701  16.985  0.00  0.00    +0.000 NA
ATOM      7  N   UNL     1       5.513   4.620  17.857  0.00  0.00    +0.000 N 
ATOM      8  H   UNL     1       4.718   7.143  19.907  0.00  0.00    +0.000 HD
BRANCH   7   9
ATOM      9  C   UNL     1       4.699   3.462  17.915  0.00  0.00    +0.000 A 
ATOM     10  C   UNL     1       4.836   2.546  18.962  0.00  0.00    +0.000 A 
ATOM     11  C   UNL     1       3.866   1.564  19.163  0.00  0.00    +0.000 A 
ATOM     12  C   UNL     1       2.798   1.451  18.276  0.00  0.00    +0.000 A 
ATOM     13  C   UNL     1       2.729   2.279  17.156  0.00  0.00    +0.000 A 
ATOM     14  C   UNL     1       3.686   3.279  16.962  0.00  0.00    +0.000 A 
ENDBRANCH   7   9
ENDBRANCH   1   2
BRANCH   1  18
ATOM     15  C   UNL     1       1.057  10.057  19.277  0.00  0.00    +0.000 A 
ATOM     16  C   UNL     1       1.542   9.555  18.075  0.00  0.00    +0.000 A 
ATOM     17  C   UNL     1       2.088   8.272  18.033  0.00  0.00    +0.000 A 
ATOM     18  C   UNL     1       2.195   7.484  19.197  0.00  0.00    +0.000 A 
ATOM     19  C   UNL     1       1.604   7.963  20.374  0.00  0.00    +0.000 A 
ATOM     20  C   UNL     1       1.060   9.252  20.416  0.00  0.00    +0.000 A 
ENDBRANCH   1  18
BRANCH   1  21
ATOM     21  C   UNL     1       2.383   5.051  19.899  0.00  0.00    +0.000 A 
ATOM     22  C   UNL     1       1.205   4.472  19.385  0.00  0.00    +0.000 A 
ATOM     23  C   UNL     1       0.558   3.436  20.056  0.00  0.00    +0.000 A 
ATOM     24  C   UNL     1       1.075   2.958  21.253  0.00  0.00    +0.000 A 
ATOM     25  C   UNL     1       2.238   3.521  21.780  0.00  0.00    +0.000 A 
ATOM     26  C   UNL     1       2.885   4.567  21.112  0.00  0.00    +0.000 A 
ENDBRANCH   1  21
TORSDOF 4
ENDMDL
