MODEL 1
REMARK VINA RESULT:      -9.4      0.000      0.000
REMARK  Name = 
REMARK  7 active torsions:
REMARK  status: ('A' for Active; 'I' for Inactive)
REMARK    1  A    between atoms: C_1  and  C_2
REMARK    2  A    between atoms: C_6  and  C_7
REMARK    3  A    between atoms: C_11  and  C_12
REMARK    4  A    between atoms: C_21  and  C_22
REMARK    5  A    between atoms: C_23  and  C_24
REMARK    6  A    between atoms: C_24  and  N_25
REMARK    7  A    between atoms: C_26  and  C_28
REMARK                            x       y       z     vdW  Elec       q    Type
REMARK                         _______ _______ _______ _____ _____    ______ ____
ROOT
ATOM      1  C   UNL     1       1.807   4.996  20.230  0.00  0.00    +0.000 C 
ATOM      2  O   UNL     1       1.322   4.448  21.218  0.00  0.00    +0.000 OA
ATOM      3  N   UNL     1       1.926   6.392  20.149  0.00  0.00    +0.000 N 
ATOM      4  C   UNL     1       2.403   7.159  19.004  0.00  0.00    +0.000 C 
ATOM      5  C   UNL     1       1.564   8.399  18.730  0.00  0.00    +0.000 C 
ATOM      6  C   UNL     1       1.247   9.194  19.966  0.00  0.00    +0.000 A 
ATOM      7  C   UNL     1       1.371   8.575  21.221  0.00  0.00    +0.000 A 
ATOM      8  C   UNL     1       1.080   9.337  22.343  0.00  0.00    +0.000 A 
ATOM      9  N   UNL     1       0.675  10.622  22.296  0.00  0.00    +0.000 NA
ATOM     10  C   UNL     1       0.505  11.194  21.079  0.00  0.00    +0.000 A 
ATOM     11  C   UNL     1       0.023  12.616  21.106  0.00  0.00    +0.000 C 
ATOM     12  C   UNL     1       0.755  10.516  19.876  0.00  0.00    +0.000 A 
ATOM     13  C   UNL     1       1.807   7.143  21.398  0.00  0.00    +0.000 C 
ENDROOT
BRANCH   1  18
ATOM     14  C   UNL     1       3.885   3.702  17.307  0.00  0.00    +0.000 A 
ATOM     15  C   UNL     1       3.215   2.492  17.047  0.00  0.00    +0.000 A 
ATOM     16  C   UNL     1       2.056   2.139  17.730  0.00  0.00    +0.000 A 
ATOM     17  C   UNL     1       1.555   2.980  18.714  0.00  0.00    +0.000 A 
ATOM     18  C   UNL     1       2.271   4.109  19.118  0.00  0.00    +0.000 A 
ATOM     19  C   UNL     1       3.413   4.483  18.383  0.00  0.00    +0.000 A 
BRANCH  14  25
ATOM     20  C   UNL     1       6.264   3.726  12.864  0.00  0.00    +0.000 C 
ATOM     21  C   UNL     1       6.190   4.173  14.294  0.00  0.00    +0.000 A 
ATOM     22  C   UNL     1       7.199   4.964  14.851  0.00  0.00    +0.000 A 
ATOM     23  C   UNL     1       7.128   5.344  16.184  0.00  0.00    +0.000 A 
ATOM     24  C   UNL     1       6.052   4.928  16.972  0.00  0.00    +0.000 A 
ATOM     25  C   UNL     1       5.006   4.142  16.442  0.00  0.00    +0.000 A 
ATOM     26  C   UNL     1       5.102   3.777  15.091  0.00  0.00    +0.000 A 
ENDBRANCH  14  25
ENDBRANCH   1  18
BRANCH  12  27
ATOM     27  C   UNL     1       0.516  11.182  18.540  0.00  0.00    +0.000 C 
BRANCH  27  28
ATOM     28  N   UNL     1      -0.876  11.513  18.352  0.00  0.00    +0.000 N 
ATOM     29  C   UNL     1      -1.749  10.683  17.687  0.00  0.00    +0.000 C 
ATOM     30  O   UNL     1      -1.386   9.607  17.215  0.00  0.00    +0.000 OA
ATOM     31  H   UNL     1      -1.214  12.409  18.683  0.00  0.00    +0.000 HD
BRANCH  29  32
ATOM     32  C   UNL     1      -3.111  11.174  17.580  0.00  0.00    +0.000 A 
ATOM     33  C   UNL     1      -3.886  11.764  18.562  0.00  0.00    +0.000 A 
ATOM     34  N   UNL     1      -5.165  12.134  18.185  0.00  0.00    +0.000 NA
ATOM     35  C   UNL     1      -5.347  11.830  16.920  0.00  0.00    +0.000 A 
ATOM     36  S   UNL     1      -4.022  11.096  16.122  0.00  0.00    +0.000 S 
ENDBRANCH  29  32
ENDBRANCH  27  28
ENDBRANCH  12  27
TORSDOF 5
ENDMDL
MODEL 2
REMARK VINA RESULT:      -9.4      1.012      1.084
REMARK  Name = 
REMARK  7 active torsions:
REMARK  status: ('A' for Active; 'I' for Inactive)
REMARK    1  A    between atoms: C_1  and  C_2
REMARK    2  A    between atoms: C_6  and  C_7
REMARK    3  A    between atoms: C_11  and  C_12
REMARK    4  A    between atoms: C_21  and  C_22
REMARK    5  A    between atoms: C_23  and  C_24
REMARK    6  A    between atoms: C_24  and  N_25
REMARK    7  A    between atoms: C_26  and  C_28
REMARK                            x       y       z     vdW  Elec       q    Type
REMARK                         _______ _______ _______ _____ _____    ______ ____
ROOT
ATOM      1  C   UNL     1       1.803   4.798  20.181  0.00  0.00    +0.000 C 
ATOM      2  O   UNL     1       1.213   4.240  21.105  0.00  0.00    +0.000 OA
ATOM      3  N   UNL     1       1.979   6.190  20.158  0.00  0.00    +0.000 N 
ATOM      4  C   UNL     1       2.584   6.971  19.085  0.00  0.00    +0.000 C 
ATOM      5  C   UNL     1       1.818   8.252  18.781  0.00  0.00    +0.000 C 
ATOM      6  C   UNL     1       1.422   9.021  20.010  0.00  0.00    +0.000 A 
ATOM      7  C   UNL     1       1.413   8.361  21.249  0.00  0.00    +0.000 A 
ATOM      8  C   UNL     1       1.052   9.099  22.367  0.00  0.00    +0.000 A 
ATOM      9  N   UNL     1       0.700  10.400  22.327  0.00  0.00    +0.000 NA
ATOM     10  C   UNL     1       0.660  11.015  21.120  0.00  0.00    +0.000 A 
ATOM     11  C   UNL     1       0.230  12.453  21.153  0.00  0.00    +0.000 C 
ATOM     12  C   UNL     1       0.989  10.364  19.922  0.00  0.00    +0.000 A 
ATOM     13  C   UNL     1       1.779   6.907  21.416  0.00  0.00    +0.000 C 
ENDROOT
BRANCH   1  18
ATOM     14  C   UNL     1       3.976   3.601  17.286  0.00  0.00    +0.000 A 
ATOM     15  C   UNL     1       3.389   2.346  17.042  0.00  0.00    +0.000 A 
ATOM     16  C   UNL     1       2.254   1.927  17.726  0.00  0.00    +0.000 A 
ATOM     17  C   UNL     1       1.693   2.747  18.695  0.00  0.00    +0.000 A 
ATOM     18  C   UNL     1       2.330   3.927  19.085  0.00  0.00    +0.000 A 
ATOM     19  C   UNL     1       3.448   4.365  18.349  0.00  0.00    +0.000 A 
BRANCH  14  25
ATOM     20  C   UNL     1       6.341   3.756  12.838  0.00  0.00    +0.000 C 
ATOM     21  C   UNL     1       6.245   4.198  14.269  0.00  0.00    +0.000 A 
ATOM     22  C   UNL     1       7.211   5.043  14.823  0.00  0.00    +0.000 A 
ATOM     23  C   UNL     1       7.122   5.418  16.157  0.00  0.00    +0.000 A 
ATOM     24  C   UNL     1       6.073   4.944  16.947  0.00  0.00    +0.000 A 
ATOM     25  C   UNL     1       5.070   4.103  16.419  0.00  0.00    +0.000 A 
ATOM     26  C   UNL     1       5.183   3.744  15.068  0.00  0.00    +0.000 A 
ENDBRANCH  14  25
ENDBRANCH   1  18
BRANCH  12  27
ATOM     27  C   UNL     1       0.893  11.078  18.593  0.00  0.00    +0.000 C 
BRANCH  27  28
ATOM     28  N   UNL     1      -0.393  10.877  17.972  0.00  0.00    +0.000 N 
ATOM     29  C   UNL     1      -1.296  11.900  17.795  0.00  0.00    +0.000 C 
ATOM     30  O   UNL     1      -1.051  13.049  18.160  0.00  0.00    +0.000 OA
ATOM     31  H   UNL     1      -0.661   9.940  17.694  0.00  0.00    +0.000 HD
BRANCH  29  32
ATOM     32  C   UNL     1      -2.546  11.521  17.160  0.00  0.00    +0.000 A 
ATOM     33  C   UNL     1      -2.740  11.029  15.883  0.00  0.00    +0.000 A 
ATOM     34  N   UNL     1      -4.050  10.755  15.531  0.00  0.00    +0.000 NA
ATOM     35  C   UNL     1      -4.837  11.034  16.545  0.00  0.00    +0.000 A 
ATOM     36  S   UNL     1      -4.069  11.630  17.954  0.00  0.00    +0.000 S 
ENDBRANCH  29  32
ENDBRANCH  27  28
ENDBRANCH  12  27
TORSDOF 5
ENDMDL
MODEL 3
REMARK VINA RESULT:      -9.2      1.152      1.238
REMARK  Name = 
REMARK  7 active torsions:
REMARK  status: ('A' for Active; 'I' for Inactive)
REMARK    1  A    between atoms: C_1  and  C_2
REMARK    2  A    between atoms: C_6  and  C_7
REMARK    3  A    between atoms: C_11  and  C_12
REMARK    4  A    between atoms: C_21  and  C_22
REMARK    5  A    between atoms: C_23  and  C_24
REMARK    6  A    between atoms: C_24  and  N_25
REMARK    7  A    between atoms: C_26  and  C_28
REMARK                            x       y       z     vdW  Elec       q    Type
REMARK                         _______ _______ _______ _____ _____    ______ ____
ROOT
ATOM      1  C   UNL     1       1.973   5.880  20.173  0.00  0.00    +0.000 C 
ATOM      2  O   UNL     1       1.876   5.420  21.310  0.00  0.00    +0.000 OA
ATOM      3  N   UNL     1       1.770   7.244  19.913  0.00  0.00    +0.000 N 
ATOM      4  C   UNL     1       1.775   7.889  18.605  0.00  0.00    +0.000 C 
ATOM      5  C   UNL     1       0.653   8.904  18.441  0.00  0.00    +0.000 C 
ATOM      6  C   UNL     1       0.492   9.818  19.623  0.00  0.00    +0.000 A 
ATOM      7  C   UNL     1       1.052   9.440  20.854  0.00  0.00    +0.000 A 
ATOM      8  C   UNL     1       0.895  10.308  21.924  0.00  0.00    +0.000 A 
ATOM      9  N   UNL     1       0.229  11.478  21.852  0.00  0.00    +0.000 NA
ATOM     10  C   UNL     1      -0.354  11.810  20.674  0.00  0.00    +0.000 A 
ATOM     11  C   UNL     1      -1.103  13.111  20.680  0.00  0.00    +0.000 C 
ATOM     12  C   UNL     1      -0.274  11.002  19.530  0.00  0.00    +0.000 A 
ATOM     13  C   UNL     1       1.810   8.152  21.058  0.00  0.00    +0.000 C 
ENDROOT
BRANCH   1  18
ATOM     14  C   UNL     1       3.875   4.279  17.283  0.00  0.00    +0.000 A 
ATOM     15  C   UNL     1       3.056   3.160  17.040  0.00  0.00    +0.000 A 
ATOM     16  C   UNL     1       1.860   2.970  17.724  0.00  0.00    +0.000 A 
ATOM     17  C   UNL     1       1.468   3.886  18.691  0.00  0.00    +0.000 A 
ATOM     18  C   UNL     1       2.322   4.921  19.079  0.00  0.00    +0.000 A 
ATOM     19  C   UNL     1       3.504   5.132  18.344  0.00  0.00    +0.000 A 
BRANCH  14  25
ATOM     20  C   UNL     1       6.344   3.741  12.923  0.00  0.00    +0.000 C 
ATOM     21  C   UNL     1       6.274   4.313  14.307  0.00  0.00    +0.000 A 
ATOM     22  C   UNL     1       7.330   5.069  14.824  0.00  0.00    +0.000 A 
ATOM     23  C   UNL     1       7.260   5.567  16.119  0.00  0.00    +0.000 A 
ATOM     24  C   UNL     1       6.138   5.302  16.907  0.00  0.00    +0.000 A 
ATOM     25  C   UNL     1       5.046   4.556  16.416  0.00  0.00    +0.000 A 
ATOM     26  C   UNL     1       5.142   4.071  15.104  0.00  0.00    +0.000 A 
ENDBRANCH  14  25
ENDBRANCH   1  18
BRANCH  12  27
ATOM     27  C   UNL     1      -0.973  11.393  18.248  0.00  0.00    +0.000 C 
BRANCH  27  28
ATOM     28  N   UNL     1      -2.407  11.406  18.405  0.00  0.00    +0.000 N 
ATOM     29  C   UNL     1      -3.267  11.255  17.342  0.00  0.00    +0.000 C 
ATOM     30  O   UNL     1      -2.855  11.100  16.193  0.00  0.00    +0.000 OA
ATOM     31  H   UNL     1      -2.796  11.575  19.324  0.00  0.00    +0.000 HD
BRANCH  29  32
ATOM     32  C   UNL     1      -4.679  11.300  17.676  0.00  0.00    +0.000 A 
ATOM     33  C   UNL     1      -5.414  10.383  18.405  0.00  0.00    +0.000 A 
ATOM     34  N   UNL     1      -6.757  10.674  18.568  0.00  0.00    +0.000 NA
ATOM     35  C   UNL     1      -7.029  11.810  17.968  0.00  0.00    +0.000 A 
ATOM     36  S   UNL     1      -5.716  12.584  17.188  0.00  0.00    +0.000 S 
ENDBRANCH  29  32
ENDBRANCH  27  28
ENDBRANCH  12  27
TORSDOF 5
ENDMDL
MODEL 4
REMARK VINA RESULT:      -9.1      1.897      3.524
REMARK  Name = 
REMARK  7 active torsions:
REMARK  status: ('A' for Active; 'I' for Inactive)
REMARK    1  A    between atoms: C_1  and  C_2
REMARK    2  A    between atoms: C_6  and  C_7
REMARK    3  A    between atoms: C_11  and  C_12
REMARK    4  A    between atoms: C_21  and  C_22
REMARK    5  A    between atoms: C_23  and  C_24
REMARK    6  A    between atoms: C_24  and  N_25
REMARK    7  A    between atoms: C_26  and  C_28
REMARK                            x       y       z     vdW  Elec       q    Type
REMARK                         _______ _______ _______ _____ _____    ______ ____
ROOT
ATOM      1  C   UNL     1       4.388   4.723  17.548  0.00  0.00    +0.000 C 
ATOM      2  O   UNL     1       3.992   3.625  17.936  0.00  0.00    +0.000 OA
ATOM      3  N   UNL     1       3.947   5.914  18.145  0.00  0.00    +0.000 N 
ATOM      4  C   UNL     1       4.276   7.271  17.723  0.00  0.00    +0.000 C 
ATOM      5  C   UNL     1       3.075   8.205  17.742  0.00  0.00    +0.000 C 
ATOM      6  C   UNL     1       2.244   8.089  18.990  0.00  0.00    +0.000 A 
ATOM      7  C   UNL     1       2.375   6.941  19.788  0.00  0.00    +0.000 A 
ATOM      8  C   UNL     1       1.603   6.867  20.937  0.00  0.00    +0.000 A 
ATOM      9  N   UNL     1       0.731   7.821  21.320  0.00  0.00    +0.000 NA
ATOM     10  C   UNL     1       0.571   8.901  20.517  0.00  0.00    +0.000 A 
ATOM     11  C   UNL     1      -0.438   9.905  20.994  0.00  0.00    +0.000 C 
ATOM     12  C   UNL     1       1.287   9.075  19.323  0.00  0.00    +0.000 A 
ATOM     13  C   UNL     1       3.310   5.805  19.456  0.00  0.00    +0.000 C 
ENDROOT
BRANCH   1  18
ATOM     14  C   UNL     1       5.854   4.147  14.077  0.00  0.00    +0.000 A 
ATOM     15  C   UNL     1       7.119   4.741  14.243  0.00  0.00    +0.000 A 
ATOM     16  C   UNL     1       7.537   5.233  15.475  0.00  0.00    +0.000 A 
ATOM     17  C   UNL     1       6.683   5.166  16.567  0.00  0.00    +0.000 A 
ATOM     18  C   UNL     1       5.364   4.734  16.415  0.00  0.00    +0.000 A 
ATOM     19  C   UNL     1       4.971   4.190  15.176  0.00  0.00    +0.000 A 
BRANCH  14  25
ATOM     20  C   UNL     1       2.918   3.667  10.009  0.00  0.00    +0.000 C 
ATOM     21  C   UNL     1       4.093   3.204  10.818  0.00  0.00    +0.000 A 
ATOM     22  C   UNL     1       4.844   2.094  10.419  0.00  0.00    +0.000 A 
ATOM     23  C   UNL     1       5.911   1.663  11.196  0.00  0.00    +0.000 A 
ATOM     24  C   UNL     1       6.228   2.333  12.380  0.00  0.00    +0.000 A 
ATOM     25  C   UNL     1       5.504   3.466  12.806  0.00  0.00    +0.000 A 
ATOM     26  C   UNL     1       4.435   3.882  12.001  0.00  0.00    +0.000 A 
ENDBRANCH  14  25
ENDBRANCH   1  18
BRANCH  12  27
ATOM     27  C   UNL     1       1.049  10.277  18.438  0.00  0.00    +0.000 C 
BRANCH  27  28
ATOM     28  N   UNL     1      -0.312  10.328  17.965  0.00  0.00    +0.000 N 
ATOM     29  C   UNL     1      -1.052  11.489  17.966  0.00  0.00    +0.000 C 
ATOM     30  O   UNL     1      -0.586  12.552  18.374  0.00  0.00    +0.000 OA
ATOM     31  H   UNL     1      -0.757   9.470  17.660  0.00  0.00    +0.000 HD
BRANCH  29  32
ATOM     32  C   UNL     1      -2.408  11.361  17.463  0.00  0.00    +0.000 A 
ATOM     33  C   UNL     1      -3.593  11.612  18.130  0.00  0.00    +0.000 A 
ATOM     34  N   UNL     1      -4.753  11.399  17.407  0.00  0.00    +0.000 NA
ATOM     35  C   UNL     1      -4.439  10.995  16.197  0.00  0.00    +0.000 A 
ATOM     36  S   UNL     1      -2.767  10.849  15.859  0.00  0.00    +0.000 S 
ENDBRANCH  29  32
ENDBRANCH  27  28
ENDBRANCH  12  27
TORSDOF 5
ENDMDL
MODEL 5
REMARK VINA RESULT:      -9.0      3.609      9.691
REMARK  Name = 
REMARK  7 active torsions:
REMARK  status: ('A' for Active; 'I' for Inactive)
REMARK    1  A    between atoms: C_1  and  C_2
REMARK    2  A    between atoms: C_6  and  C_7
REMARK    3  A    between atoms: C_11  and  C_12
REMARK    4  A    between atoms: C_21  and  C_22
REMARK    5  A    between atoms: C_23  and  C_24
REMARK    6  A    between atoms: C_24  and  N_25
REMARK    7  A    between atoms: C_26  and  C_28
REMARK                            x       y       z     vdW  Elec       q    Type
REMARK                         _______ _______ _______ _____ _____    ______ ____
ROOT
ATOM      1  C   UNL     1       1.012   8.978  20.833  0.00  0.00    +0.000 C 
ATOM      2  O   UNL     1       0.990   8.691  22.029  0.00  0.00    +0.000 OA
ATOM      3  N   UNL     1       1.627   8.143  19.889  0.00  0.00    +0.000 N 
ATOM      4  C   UNL     1       1.790   8.414  18.465  0.00  0.00    +0.000 C 
ATOM      5  C   UNL     1       3.171   8.039  17.944  0.00  0.00    +0.000 C 
ATOM      6  C   UNL     1       3.645   6.692  18.415  0.00  0.00    +0.000 A 
ATOM      7  C   UNL     1       3.028   6.109  19.534  0.00  0.00    +0.000 A 
ATOM      8  C   UNL     1       3.481   4.863  19.939  0.00  0.00    +0.000 A 
ATOM      9  N   UNL     1       4.480   4.192  19.332  0.00  0.00    +0.000 NA
ATOM     10  C   UNL     1       5.106   4.785  18.286  0.00  0.00    +0.000 A 
ATOM     11  C   UNL     1       6.227   3.991  17.681  0.00  0.00    +0.000 C 
ATOM     12  C   UNL     1       4.743   6.050  17.799  0.00  0.00    +0.000 A 
ATOM     13  C   UNL     1       1.908   6.769  20.299  0.00  0.00    +0.000 C 
ENDROOT
BRANCH   1  18
ATOM     14  C   UNL     1      -1.458  11.365  19.179  0.00  0.00    +0.000 A 
ATOM     15  C   UNL     1      -0.965  12.595  19.653  0.00  0.00    +0.000 A 
ATOM     16  C   UNL     1       0.198  12.671  20.412  0.00  0.00    +0.000 A 
ATOM     17  C   UNL     1       0.883  11.508  20.738  0.00  0.00    +0.000 A 
ATOM     18  C   UNL     1       0.347  10.256  20.428  0.00  0.00    +0.000 A 
ATOM     19  C   UNL     1      -0.802  10.195  19.616  0.00  0.00    +0.000 A 
BRANCH  14  25
ATOM     20  C   UNL     1      -3.330  10.295  14.624  0.00  0.00    +0.000 C 
ATOM     21  C   UNL     1      -3.532  10.820  16.015  0.00  0.00    +0.000 A 
ATOM     22  C   UNL     1      -4.770  11.330  16.415  0.00  0.00    +0.000 A 
ATOM     23  C   UNL     1      -4.930  11.839  17.697  0.00  0.00    +0.000 A 
ATOM     24  C   UNL     1      -3.851  11.848  18.583  0.00  0.00    +0.000 A 
ATOM     25  C   UNL     1      -2.590  11.327  18.221  0.00  0.00    +0.000 A 
ATOM     26  C   UNL     1      -2.459  10.817  16.922  0.00  0.00    +0.000 A 
ENDBRANCH  14  25
ENDBRANCH   1  18
BRANCH  12  27
ATOM     27  C   UNL     1       5.493   6.691  16.654  0.00  0.00    +0.000 C 
BRANCH  27  28
ATOM     28  N   UNL     1       5.526   5.834  15.493  0.00  0.00    +0.000 N 
ATOM     29  C   UNL     1       6.701   5.471  14.876  0.00  0.00    +0.000 C 
ATOM     30  O   UNL     1       7.794   5.860  15.286  0.00  0.00    +0.000 OA
ATOM     31  H   UNL     1       4.650   5.524  15.090  0.00  0.00    +0.000 HD
BRANCH  29  32
ATOM     32  C   UNL     1       6.552   4.611  13.716  0.00  0.00    +0.000 A 
ATOM     33  C   UNL     1       7.383   4.513  12.615  0.00  0.00    +0.000 A 
ATOM     34  N   UNL     1       6.995   3.608  11.642  0.00  0.00    +0.000 NA
ATOM     35  C   UNL     1       5.879   3.024  12.015  0.00  0.00    +0.000 A 
ATOM     36  S   UNL     1       5.239   3.514  13.526  0.00  0.00    +0.000 S 
ENDBRANCH  29  32
ENDBRANCH  27  28
ENDBRANCH  12  27
TORSDOF 5
ENDMDL
MODEL 6
REMARK VINA RESULT:      -8.9      1.211      1.769
REMARK  Name = 
REMARK  7 active torsions:
REMARK  status: ('A' for Active; 'I' for Inactive)
REMARK    1  A    between atoms: C_1  and  C_2
REMARK    2  A    between atoms: C_6  and  C_7
REMARK    3  A    between atoms: C_11  and  C_12
REMARK    4  A    between atoms: C_21  and  C_22
REMARK    5  A    between atoms: C_23  and  C_24
REMARK    6  A    between atoms: C_24  and  N_25
REMARK    7  A    between atoms: C_26  and  C_28
REMARK                            x       y       z     vdW  Elec       q    Type
REMARK                         _______ _______ _______ _____ _____    ______ ____
ROOT
ATOM      1  C   UNL     1       1.480   5.105  20.209  0.00  0.00    +0.000 C 
ATOM      2  O   UNL     1       0.798   4.482  21.021  0.00  0.00    +0.000 OA
ATOM      3  N   UNL     1       1.658   6.493  20.313  0.00  0.00    +0.000 N 
ATOM      4  C   UNL     1       2.370   7.350  19.371  0.00  0.00    +0.000 C 
ATOM      5  C   UNL     1       1.640   8.657  19.091  0.00  0.00    +0.000 C 
ATOM      6  C   UNL     1       1.120   9.331  20.330  0.00  0.00    +0.000 A 
ATOM      7  C   UNL     1       0.983   8.577  21.506  0.00  0.00    +0.000 A 
ATOM      8  C   UNL     1       0.510   9.229  22.635  0.00  0.00    +0.000 A 
ATOM      9  N   UNL     1       0.164  10.532  22.661  0.00  0.00    +0.000 NA
ATOM     10  C   UNL     1       0.248  11.239  21.508  0.00  0.00    +0.000 A 
ATOM     11  C   UNL     1      -0.183  12.674  21.608  0.00  0.00    +0.000 C 
ATOM     12  C   UNL     1       0.698  10.680  20.302  0.00  0.00    +0.000 A 
ATOM     13  C   UNL     1       1.330   7.112  21.595  0.00  0.00    +0.000 C 
ENDROOT
BRANCH   1  18
ATOM     14  C   UNL     1       3.982   4.076  17.522  0.00  0.00    +0.000 A 
ATOM     15  C   UNL     1       3.381   2.887  17.071  0.00  0.00    +0.000 A 
ATOM     16  C   UNL     1       2.144   2.468  17.548  0.00  0.00    +0.000 A 
ATOM     17  C   UNL     1       1.490   3.220  18.514  0.00  0.00    +0.000 A 
ATOM     18  C   UNL     1       2.117   4.317  19.108  0.00  0.00    +0.000 A 
ATOM     19  C   UNL     1       3.345   4.761  18.579  0.00  0.00    +0.000 A 
BRANCH  14  25
ATOM     20  C   UNL     1       7.748   7.415  17.259  0.00  0.00    +0.000 C 
ATOM     21  C   UNL     1       7.050   6.206  16.710  0.00  0.00    +0.000 A 
ATOM     22  C   UNL     1       7.507   5.584  15.545  0.00  0.00    +0.000 A 
ATOM     23  C   UNL     1       6.831   4.483  15.035  0.00  0.00    +0.000 A 
ATOM     24  C   UNL     1       5.689   4.005  15.681  0.00  0.00    +0.000 A 
ATOM     25  C   UNL     1       5.207   4.597  16.867  0.00  0.00    +0.000 A 
ATOM     26  C   UNL     1       5.911   5.703  17.362  0.00  0.00    +0.000 A 
ENDBRANCH  14  25
ENDBRANCH   1  18
BRANCH  12  27
ATOM     27  C   UNL     1       0.739  11.496  19.030  0.00  0.00    +0.000 C 
BRANCH  27  28
ATOM     28  N   UNL     1      -0.370  11.185  18.162  0.00  0.00    +0.000 N 
ATOM     29  C   UNL     1      -1.558  11.877  18.206  0.00  0.00    +0.000 C 
ATOM     30  O   UNL     1      -1.738  12.804  18.994  0.00  0.00    +0.000 OA
ATOM     31  H   UNL     1      -0.288  10.401  17.526  0.00  0.00    +0.000 HD
BRANCH  29  32
ATOM     32  C   UNL     1      -2.572  11.428  17.269  0.00  0.00    +0.000 A 
ATOM     33  C   UNL     1      -2.390  10.836  16.032  0.00  0.00    +0.000 A 
ATOM     34  N   UNL     1      -3.542  10.511  15.339  0.00  0.00    +0.000 NA
ATOM     35  C   UNL     1      -4.589  10.854  16.056  0.00  0.00    +0.000 A 
ATOM     36  S   UNL     1      -4.260  11.571  17.576  0.00  0.00    +0.000 S 
ENDBRANCH  29  32
ENDBRANCH  27  28
ENDBRANCH  12  27
TORSDOF 5
ENDMDL
MODEL 7
REMARK VINA RESULT:      -8.9      1.104      1.686
REMARK  Name = 
REMARK  7 active torsions:
REMARK  status: ('A' for Active; 'I' for Inactive)
REMARK    1  A    between atoms: C_1  and  C_2
REMARK    2  A    between atoms: C_6  and  C_7
REMARK    3  A    between atoms: C_11  and  C_12
REMARK    4  A    between atoms: C_21  and  C_22
REMARK    5  A    between atoms: C_23  and  C_24
REMARK    6  A    between atoms: C_24  and  N_25
REMARK    7  A    between atoms: C_26  and  C_28
REMARK                            x       y       z     vdW  Elec       q    Type
REMARK                         _______ _______ _______ _____ _____    ______ ____
ROOT
ATOM      1  C   UNL     1       1.579   5.457  20.287  0.00  0.00    +0.000 C 
ATOM      2  O   UNL     1       1.077   4.792  21.192  0.00  0.00    +0.000 OA
ATOM      3  N   UNL     1       1.610   6.859  20.338  0.00  0.00    +0.000 N 
ATOM      4  C   UNL     1       2.098   7.755  19.296  0.00  0.00    +0.000 C 
ATOM      5  C   UNL     1       1.197   8.963  19.083  0.00  0.00    +0.000 C 
ATOM      6  C   UNL     1       0.761   9.620  20.363  0.00  0.00    +0.000 A 
ATOM      7  C   UNL     1       0.857   8.897  21.563  0.00  0.00    +0.000 A 
ATOM      8  C   UNL     1       0.456   9.533  22.728  0.00  0.00    +0.000 A 
ATOM      9  N   UNL     1      -0.029  10.790  22.771  0.00  0.00    +0.000 NA
ATOM     10  C   UNL     1      -0.169  11.461  21.601  0.00  0.00    +0.000 A 
ATOM     11  C   UNL     1      -0.743  12.843  21.725  0.00  0.00    +0.000 C 
ATOM     12  C   UNL     1       0.190  10.913  20.361  0.00  0.00    +0.000 A 
ATOM     13  C   UNL     1       1.375   7.483  21.638  0.00  0.00    +0.000 C 
ENDROOT
BRANCH   1  18
ATOM     14  C   UNL     1       4.004   4.445  17.525  0.00  0.00    +0.000 A 
ATOM     15  C   UNL     1       3.322   3.336  16.994  0.00  0.00    +0.000 A 
ATOM     16  C   UNL     1       2.058   2.972  17.446  0.00  0.00    +0.000 A 
ATOM     17  C   UNL     1       1.457   3.699  18.465  0.00  0.00    +0.000 A 
ATOM     18  C   UNL     1       2.160   4.706  19.131  0.00  0.00    +0.000 A 
ATOM     19  C   UNL     1       3.416   5.097  18.630  0.00  0.00    +0.000 A 
BRANCH  14  25
ATOM     20  C   UNL     1       7.827   7.721  17.292  0.00  0.00    +0.000 C 
ATOM     21  C   UNL     1       7.136   6.500  16.761  0.00  0.00    +0.000 A 
ATOM     22  C   UNL     1       7.632   5.825  15.643  0.00  0.00    +0.000 A 
ATOM     23  C   UNL     1       6.963   4.714  15.148  0.00  0.00    +0.000 A 
ATOM     24  C   UNL     1       5.787   4.277  15.763  0.00  0.00    +0.000 A 
ATOM     25  C   UNL     1       5.264   4.923  16.903  0.00  0.00    +0.000 A 
ATOM     26  C   UNL     1       5.963   6.039  17.383  0.00  0.00    +0.000 A 
ENDBRANCH  14  25
ENDBRANCH   1  18
BRANCH  12  27
ATOM     27  C   UNL     1      -0.019  11.683  19.077  0.00  0.00    +0.000 C 
BRANCH  27  28
ATOM     28  N   UNL     1      -1.417  11.946  18.834  0.00  0.00    +0.000 N 
ATOM     29  C   UNL     1      -2.200  11.121  18.060  0.00  0.00    +0.000 C 
ATOM     30  O   UNL     1      -1.744  10.108  17.530  0.00  0.00    +0.000 OA
ATOM     31  H   UNL     1      -1.828  12.791  19.212  0.00  0.00    +0.000 HD
BRANCH  29  32
ATOM     32  C   UNL     1      -3.582  11.537  17.912  0.00  0.00    +0.000 A 
ATOM     33  C   UNL     1      -4.385  11.449  16.789  0.00  0.00    +0.000 A 
ATOM     34  N   UNL     1      -5.675  11.932  16.926  0.00  0.00    +0.000 NA
ATOM     35  C   UNL     1      -5.842  12.376  18.152  0.00  0.00    +0.000 A 
ATOM     36  S   UNL     1      -4.489  12.243  19.194  0.00  0.00    +0.000 S 
ENDBRANCH  29  32
ENDBRANCH  27  28
ENDBRANCH  12  27
TORSDOF 5
ENDMDL
MODEL 8
REMARK VINA RESULT:      -8.8      3.727     10.127
REMARK  Name = 
REMARK  7 active torsions:
REMARK  status: ('A' for Active; 'I' for Inactive)
REMARK    1  A    between atoms: C_1  and  C_2
REMARK    2  A    between atoms: C_6  and  C_7
REMARK    3  A    between atoms: C_11  and  C_12
REMARK    4  A    between atoms: C_21  and  C_22
REMARK    5  A    between atoms: C_23  and  C_24
REMARK    6  A    between atoms: C_24  and  N_25
REMARK    7  A    between atoms: C_26  and  C_28
REMARK                            x       y       z     vdW  Elec       q    Type
REMARK                         _______ _______ _______ _____ _____    ______ ____
ROOT
ATOM      1  C   UNL     1       0.912   9.375  20.441  0.00  0.00    +0.000 C 
ATOM      2  O   UNL     1       0.828   9.165  21.650  0.00  0.00    +0.000 OA
ATOM      3  N   UNL     1       1.544   8.464  19.580  0.00  0.00    +0.000 N 
ATOM      4  C   UNL     1       1.779   8.640  18.151  0.00  0.00    +0.000 C 
ATOM      5  C   UNL     1       3.169   8.195  17.721  0.00  0.00    +0.000 C 
ATOM      6  C   UNL     1       3.580   6.868  18.296  0.00  0.00    +0.000 A 
ATOM      7  C   UNL     1       2.896   6.375  19.419  0.00  0.00    +0.000 A 
ATOM      8  C   UNL     1       3.292   5.144  19.921  0.00  0.00    +0.000 A 
ATOM      9  N   UNL     1       4.296   4.408  19.404  0.00  0.00    +0.000 NA
ATOM     10  C   UNL     1       4.986   4.916  18.354  0.00  0.00    +0.000 A 
ATOM     11  C   UNL     1       6.108   4.054  17.853  0.00  0.00    +0.000 C 
ATOM     12  C   UNL     1       4.684   6.157  17.773  0.00  0.00    +0.000 A 
ATOM     13  C   UNL     1       1.763   7.112  20.088  0.00  0.00    +0.000 C 
ENDROOT
BRANCH   1  18
ATOM     14  C   UNL     1      -1.673  11.798  19.035  0.00  0.00    +0.000 A 
ATOM     15  C   UNL     1      -0.904  12.975  18.984  0.00  0.00    +0.000 A 
ATOM     16  C   UNL     1       0.450  12.976  19.301  0.00  0.00    +0.000 A 
ATOM     17  C   UNL     1       1.061  11.797  19.706  0.00  0.00    +0.000 A 
ATOM     18  C   UNL     1       0.306  10.642  19.927  0.00  0.00    +0.000 A 
ATOM     19  C   UNL     1      -1.051  10.642  19.551  0.00  0.00    +0.000 A 
BRANCH  14  25
ATOM     20  C   UNL     1      -6.624  12.464  19.704  0.00  0.00    +0.000 C 
ATOM     21  C   UNL     1      -5.477  12.097  18.809  0.00  0.00    +0.000 A 
ATOM     22  C   UNL     1      -5.700  11.685  17.492  0.00  0.00    +0.000 A 
ATOM     23  C   UNL     1      -4.629  11.322  16.687  0.00  0.00    +0.000 A 
ATOM     24  C   UNL     1      -3.329  11.359  17.197  0.00  0.00    +0.000 A 
ATOM     25  C   UNL     1      -3.063  11.785  18.516  0.00  0.00    +0.000 A 
ATOM     26  C   UNL     1      -4.163  12.150  19.304  0.00  0.00    +0.000 A 
ENDBRANCH  14  25
ENDBRANCH   1  18
BRANCH  12  27
ATOM     27  C   UNL     1       5.505   6.703  16.627  0.00  0.00    +0.000 C 
BRANCH  27  28
ATOM     28  N   UNL     1       5.464   5.830  15.479  0.00  0.00    +0.000 N 
ATOM     29  C   UNL     1       6.603   5.379  14.853  0.00  0.00    +0.000 C 
ATOM     30  O   UNL     1       7.725   5.699  15.242  0.00  0.00    +0.000 OA
ATOM     31  H   UNL     1       4.563   5.573  15.093  0.00  0.00    +0.000 HD
BRANCH  29  32
ATOM     32  C   UNL     1       6.380   4.514  13.708  0.00  0.00    +0.000 A 
ATOM     33  C   UNL     1       5.311   3.670  13.471  0.00  0.00    +0.000 A 
ATOM     34  N   UNL     1       5.357   2.949  12.290  0.00  0.00    +0.000 NA
ATOM     35  C   UNL     1       6.456   3.257  11.639  0.00  0.00    +0.000 A 
ATOM     36  S   UNL     1       7.480   4.407  12.388  0.00  0.00    +0.000 S 
ENDBRANCH  29  32
ENDBRANCH  27  28
ENDBRANCH  12  27
TORSDOF 5
ENDMDL
MODEL 9
REMARK VINA RESULT:      -8.8      3.028      4.786
REMARK  Name = 
REMARK  7 active torsions:
REMARK  status: ('A' for Active; 'I' for Inactive)
REMARK    1  A    between atoms: C_1  and  C_2
REMARK    2  A    between atoms: C_6  and  C_7
REMARK    3  A    between atoms: C_11  and  C_12
REMARK    4  A    between atoms: C_21  and  C_22
REMARK    5  A    between atoms: C_23  and  C_24
REMARK    6  A    between atoms: C_24  and  N_25
REMARK    7  A    between atoms: C_26  and  C_28
REMARK                            x       y       z     vdW  Elec       q    Type
REMARK                         _______ _______ _______ _____ _____    ______ ____
ROOT
ATOM      1  C   UNL     1       4.339   4.871  17.629  0.00  0.00    +0.000 C 
ATOM      2  O   UNL     1       3.937   3.794  18.067  0.00  0.00    +0.000 OA
ATOM      3  N   UNL     1       3.881   6.091  18.148  0.00  0.00    +0.000 N 
ATOM      4  C   UNL     1       4.217   7.424  17.660  0.00  0.00    +0.000 C 
ATOM      5  C   UNL     1       3.013   8.354  17.598  0.00  0.00    +0.000 C 
ATOM      6  C   UNL     1       2.152   8.303  18.829  0.00  0.00    +0.000 A 
ATOM      7  C   UNL     1       2.266   7.201  19.692  0.00  0.00    +0.000 A 
ATOM      8  C   UNL     1       1.465   7.187  20.824  0.00  0.00    +0.000 A 
ATOM      9  N   UNL     1       0.581   8.157  21.133  0.00  0.00    +0.000 NA
ATOM     10  C   UNL     1       0.439   9.191  20.267  0.00  0.00    +0.000 A 
ATOM     11  C   UNL     1      -0.584  10.215  20.663  0.00  0.00    +0.000 C 
ATOM     12  C   UNL     1       1.185   9.302  19.084  0.00  0.00    +0.000 A 
ATOM     13  C   UNL     1       3.212   6.052  19.447  0.00  0.00    +0.000 C 
ENDROOT
BRANCH   1  18
ATOM     14  C   UNL     1       5.864   4.191  14.202  0.00  0.00    +0.000 A 
ATOM     15  C   UNL     1       7.151   4.724  14.396  0.00  0.00    +0.000 A 
ATOM     16  C   UNL     1       7.562   5.206  15.634  0.00  0.00    +0.000 A 
ATOM     17  C   UNL     1       6.678   5.191  16.704  0.00  0.00    +0.000 A 
ATOM     18  C   UNL     1       5.343   4.823  16.521  0.00  0.00    +0.000 A 
ATOM     19  C   UNL     1       4.956   4.287  15.277  0.00  0.00    +0.000 A 
BRANCH  14  25
ATOM     20  C   UNL     1       2.956   3.759  10.108  0.00  0.00    +0.000 C 
ATOM     21  C   UNL     1       4.116   3.277  10.927  0.00  0.00    +0.000 A 
ATOM     22  C   UNL     1       4.851   2.154  10.536  0.00  0.00    +0.000 A 
ATOM     23  C   UNL     1       5.904   1.705  11.322  0.00  0.00    +0.000 A 
ATOM     24  C   UNL     1       6.222   2.369  12.508  0.00  0.00    +0.000 A 
ATOM     25  C   UNL     1       5.513   3.515  12.928  0.00  0.00    +0.000 A 
ATOM     26  C   UNL     1       4.459   3.949  12.113  0.00  0.00    +0.000 A 
ENDBRANCH  14  25
ENDBRANCH   1  18
BRANCH  12  27
ATOM     27  C   UNL     1       0.966  10.453  18.128  0.00  0.00    +0.000 C 
BRANCH  27  28
ATOM     28  N   UNL     1       1.807  11.579  18.450  0.00  0.00    +0.000 N 
ATOM     29  C   UNL     1       1.306  12.847  18.633  0.00  0.00    +0.000 C 
ATOM     30  O   UNL     1       0.103  13.088  18.532  0.00  0.00    +0.000 OA
ATOM     31  H   UNL     1       2.810  11.442  18.500  0.00  0.00    +0.000 HD
BRANCH  29  32
ATOM     32  C   UNL     1       2.293  13.866  18.943  0.00  0.00    +0.000 A 
ATOM     33  C   UNL     1       3.517  14.081  18.336  0.00  0.00    +0.000 A 
ATOM     34  N   UNL     1       4.268  15.128  18.840  0.00  0.00    +0.000 NA
ATOM     35  C   UNL     1       3.606  15.703  19.818  0.00  0.00    +0.000 A 
ATOM     36  S   UNL     1       2.072  15.036  20.186  0.00  0.00    +0.000 S 
ENDBRANCH  29  32
ENDBRANCH  27  28
ENDBRANCH  12  27
TORSDOF 5
ENDMDL
