MODEL 1
REMARK VINA RESULT:      -8.0      0.000      0.000
REMARK  Name = 
REMARK  8 active torsions:
REMARK  status: ('A' for Active; 'I' for Inactive)
REMARK    1  A    between atoms: C_1  and  C_2
REMARK    2  A    between atoms: C_2  and  C_3
REMARK    3  A    between atoms: C_3  and  C_4
REMARK    4  A    between atoms: C_4  and  O_5
REMARK    5  A    between atoms: O_5  and  C_6
REMARK    6  A    between atoms: C_6  and  C_8
REMARK    7  A    between atoms: C_17  and  C_18
REMARK    8  A    between atoms: C_17  and  C_22
REMARK                            x       y       z     vdW  Elec       q    Type
REMARK                         _______ _______ _______ _____ _____    ______ ____
ROOT
ATOM      1  C   UNL     1       5.345   3.972  16.611  0.00  0.00    +0.000 C 
ATOM      2  C   UNL     1       3.869   3.624  16.640  0.00  0.00    +0.000 C 
ATOM      3  N   UNL     1       3.426   3.442  18.017  0.00  0.00    +0.000 N 
ATOM      4  C   UNL     1       2.115   3.658  18.404  0.00  0.00    +0.000 C 
ATOM      5  C   UNL     1       1.721   3.474  19.668  0.00  0.00    +0.000 C 
ATOM      6  C   UNL     1       2.763   2.839  20.520  0.00  0.00    +0.000 C 
ATOM      7  N   UNL     1       4.010   2.676  20.218  0.00  0.00    +0.000 NA
ATOM      8  C   UNL     1       4.372   3.239  19.021  0.00  0.00    +0.000 C 
ATOM      9  N   UNL     1       5.590   3.686  18.985  0.00  0.00    +0.000 NA
ATOM     10  C   UNL     1       5.762   4.736  17.882  0.00  0.00    +0.000 C 
ENDROOT
BRANCH  10  11
ATOM     11  C   UNL     1       4.913   5.990  18.272  0.00  0.00    +0.000 C 
ATOM     12  F   UNL     1       4.547   5.959  19.577  0.00  0.00    +0.000 F 
ATOM     13  F   UNL     1       5.623   7.146  18.131  0.00  0.00    +0.000 F 
ATOM     14  F   UNL     1       3.792   6.196  17.559  0.00  0.00    +0.000 F 
ENDBRANCH  10  11
BRANCH  10  15
ATOM     15  C   UNL     1       7.221   5.191  17.793  0.00  0.00    +0.000 C 
ATOM     16  F   UNL     1       8.011   4.184  17.337  0.00  0.00    +0.000 F 
ATOM     17  F   UNL     1       7.436   6.222  16.952  0.00  0.00    +0.000 F 
ATOM     18  F   UNL     1       7.721   5.551  18.999  0.00  0.00    +0.000 F 
ENDBRANCH  10  15
BRANCH   1  19
ATOM     19  C   UNL     1       5.648   4.589  15.262  0.00  0.00    +0.000 C 
ATOM     20  O   UNL     1       5.321   5.720  14.924  0.00  0.00    +0.000 OA
BRANCH  19  21
ATOM     21  O   UNL     1       6.169   3.615  14.464  0.00  0.00    +0.000 OA
BRANCH  21  22
ATOM     22  C   UNL     1       6.640   3.964  13.153  0.00  0.00    +0.000 C 
BRANCH  22  23
ATOM     23  C   UNL     1       5.963   3.154  12.050  0.00  0.00    +0.000 C 
BRANCH  23  25
ATOM     24  C   UNL     1       3.804   3.362  10.721  0.00  0.00    +0.000 C 
ATOM     25  C   UNL     1       4.443   3.352  12.099  0.00  0.00    +0.000 C 
ENDBRANCH  23  25
ENDBRANCH  22  23
ENDBRANCH  21  22
ENDBRANCH  19  21
ENDBRANCH   1  19
TORSDOF 7
ENDMDL
MODEL 2
REMARK VINA RESULT:      -7.9      0.545      1.153
REMARK  Name = 
REMARK  8 active torsions:
REMARK  status: ('A' for Active; 'I' for Inactive)
REMARK    1  A    between atoms: C_1  and  C_2
REMARK    2  A    between atoms: C_2  and  C_3
REMARK    3  A    between atoms: C_3  and  C_4
REMARK    4  A    between atoms: C_4  and  O_5
REMARK    5  A    between atoms: O_5  and  C_6
REMARK    6  A    between atoms: C_6  and  C_8
REMARK    7  A    between atoms: C_17  and  C_18
REMARK    8  A    between atoms: C_17  and  C_22
REMARK                            x       y       z     vdW  Elec       q    Type
REMARK                         _______ _______ _______ _____ _____    ______ ____
ROOT
ATOM      1  C   UNL     1       5.441   4.010  16.525  0.00  0.00    +0.000 C 
ATOM      2  C   UNL     1       3.950   3.738  16.490  0.00  0.00    +0.000 C 
ATOM      3  N   UNL     1       3.437   3.596  17.847  0.00  0.00    +0.000 N 
ATOM      4  C   UNL     1       2.123   3.883  18.173  0.00  0.00    +0.000 C 
ATOM      5  C   UNL     1       1.664   3.734  19.419  0.00  0.00    +0.000 C 
ATOM      6  C   UNL     1       2.632   3.057  20.324  0.00  0.00    +0.000 C 
ATOM      7  N   UNL     1       3.881   2.828  20.080  0.00  0.00    +0.000 NA
ATOM      8  C   UNL     1       4.325   3.357  18.895  0.00  0.00    +0.000 C 
ATOM      9  N   UNL     1       5.565   3.741  18.910  0.00  0.00    +0.000 NA
ATOM     10  C   UNL     1       5.840   4.768  17.806  0.00  0.00    +0.000 C 
ENDROOT
BRANCH  10  11
ATOM     11  C   UNL     1       5.040   6.068  18.145  0.00  0.00    +0.000 C 
ATOM     12  F   UNL     1       4.599   6.062  19.427  0.00  0.00    +0.000 F 
ATOM     13  F   UNL     1       5.820   7.183  18.044  0.00  0.00    +0.000 F 
ATOM     14  F   UNL     1       3.975   6.332  17.368  0.00  0.00    +0.000 F 
ENDBRANCH  10  11
BRANCH  10  15
ATOM     15  C   UNL     1       7.323   5.146  17.778  0.00  0.00    +0.000 C 
ATOM     16  F   UNL     1       7.538   6.184  16.930  0.00  0.00    +0.000 F 
ATOM     17  F   UNL     1       7.822   5.545  18.964  0.00  0.00    +0.000 F 
ATOM     18  F   UNL     1       8.104   4.128  17.341  0.00  0.00    +0.000 F 
ENDBRANCH  10  15
BRANCH   1  19
ATOM     19  C   UNL     1       5.836   4.595  15.184  0.00  0.00    +0.000 C 
ATOM     20  O   UNL     1       5.627   5.752  14.840  0.00  0.00    +0.000 OA
BRANCH  19  21
ATOM     21  O   UNL     1       6.282   3.576  14.398  0.00  0.00    +0.000 OA
BRANCH  21  22
ATOM     22  C   UNL     1       6.530   3.824  13.006  0.00  0.00    +0.000 C 
BRANCH  22  23
ATOM     23  C   UNL     1       5.407   3.312  12.107  0.00  0.00    +0.000 C 
BRANCH  23  25
ATOM     24  C   UNL     1       7.190   1.846  11.039  0.00  0.00    +0.000 C 
ATOM     25  C   UNL     1       5.761   1.929  11.547  0.00  0.00    +0.000 C 
ENDBRANCH  23  25
ENDBRANCH  22  23
ENDBRANCH  21  22
ENDBRANCH  19  21
ENDBRANCH   1  19
TORSDOF 7
ENDMDL
MODEL 3
REMARK VINA RESULT:      -7.8      0.320      1.086
REMARK  Name = 
REMARK  8 active torsions:
REMARK  status: ('A' for Active; 'I' for Inactive)
REMARK    1  A    between atoms: C_1  and  C_2
REMARK    2  A    between atoms: C_2  and  C_3
REMARK    3  A    between atoms: C_3  and  C_4
REMARK    4  A    between atoms: C_4  and  O_5
REMARK    5  A    between atoms: O_5  and  C_6
REMARK    6  A    between atoms: C_6  and  C_8
REMARK    7  A    between atoms: C_17  and  C_18
REMARK    8  A    between atoms: C_17  and  C_22
REMARK                            x       y       z     vdW  Elec       q    Type
REMARK                         _______ _______ _______ _____ _____    ______ ____
ROOT
ATOM      1  C   UNL     1       5.483   4.053  16.390  0.00  0.00    +0.000 C 
ATOM      2  C   UNL     1       3.995   3.765  16.342  0.00  0.00    +0.000 C 
ATOM      3  N   UNL     1       3.475   3.605  17.695  0.00  0.00    +0.000 N 
ATOM      4  C   UNL     1       2.156   3.875  18.014  0.00  0.00    +0.000 C 
ATOM      5  C   UNL     1       1.690   3.710  19.256  0.00  0.00    +0.000 C 
ATOM      6  C   UNL     1       2.659   3.035  20.161  0.00  0.00    +0.000 C 
ATOM      7  N   UNL     1       3.913   2.821  19.924  0.00  0.00    +0.000 NA
ATOM      8  C   UNL     1       4.359   3.366  18.747  0.00  0.00    +0.000 C 
ATOM      9  N   UNL     1       5.595   3.763  18.773  0.00  0.00    +0.000 NA
ATOM     10  C   UNL     1       5.865   4.803  17.680  0.00  0.00    +0.000 C 
ENDROOT
BRANCH  10  11
ATOM     11  C   UNL     1       5.049   6.091  18.026  0.00  0.00    +0.000 C 
ATOM     12  F   UNL     1       5.802   7.211  17.891  0.00  0.00    +0.000 F 
ATOM     13  F   UNL     1       3.998   6.268  17.174  0.00  0.00    +0.000 F 
ATOM     14  F   UNL     1       4.499   6.138  19.251  0.00  0.00    +0.000 F 
ENDBRANCH  10  11
BRANCH  10  15
ATOM     15  C   UNL     1       7.344   5.198  17.666  0.00  0.00    +0.000 C 
ATOM     16  F   UNL     1       7.562   6.215  16.794  0.00  0.00    +0.000 F 
ATOM     17  F   UNL     1       7.819   5.634  18.849  0.00  0.00    +0.000 F 
ATOM     18  F   UNL     1       8.143   4.178  17.270  0.00  0.00    +0.000 F 
ENDBRANCH  10  15
BRANCH   1  19
ATOM     19  C   UNL     1       5.881   4.654  15.058  0.00  0.00    +0.000 C 
ATOM     20  O   UNL     1       5.610   5.793  14.699  0.00  0.00    +0.000 OA
BRANCH  19  21
ATOM     21  O   UNL     1       6.413   3.661  14.293  0.00  0.00    +0.000 OA
BRANCH  21  22
ATOM     22  C   UNL     1       6.565   3.871  12.880  0.00  0.00    +0.000 C 
BRANCH  22  23
ATOM     23  C   UNL     1       5.707   2.922  12.048  0.00  0.00    +0.000 C 
BRANCH  23  25
ATOM     24  C   UNL     1       3.682   3.269  10.548  0.00  0.00    +0.000 C 
ATOM     25  C   UNL     1       4.275   3.458  11.934  0.00  0.00    +0.000 C 
ENDBRANCH  23  25
ENDBRANCH  22  23
ENDBRANCH  21  22
ENDBRANCH  19  21
ENDBRANCH   1  19
TORSDOF 7
ENDMDL
MODEL 4
REMARK VINA RESULT:      -7.7      0.594      1.161
REMARK  Name = 
REMARK  8 active torsions:
REMARK  status: ('A' for Active; 'I' for Inactive)
REMARK    1  A    between atoms: C_1  and  C_2
REMARK    2  A    between atoms: C_2  and  C_3
REMARK    3  A    between atoms: C_3  and  C_4
REMARK    4  A    between atoms: C_4  and  O_5
REMARK    5  A    between atoms: O_5  and  C_6
REMARK    6  A    between atoms: C_6  and  C_8
REMARK    7  A    between atoms: C_17  and  C_18
REMARK    8  A    between atoms: C_17  and  C_22
REMARK                            x       y       z     vdW  Elec       q    Type
REMARK                         _______ _______ _______ _____ _____    ______ ____
ROOT
ATOM      1  C   UNL     1       5.351   3.980  16.635  0.00  0.00    +0.000 C 
ATOM      2  C   UNL     1       3.873   3.644  16.649  0.00  0.00    +0.000 C 
ATOM      3  N   UNL     1       3.417   3.455  18.021  0.00  0.00    +0.000 N 
ATOM      4  C   UNL     1       2.105   3.678  18.399  0.00  0.00    +0.000 C 
ATOM      5  C   UNL     1       1.699   3.488  19.658  0.00  0.00    +0.000 C 
ATOM      6  C   UNL     1       2.728   2.838  20.514  0.00  0.00    +0.000 C 
ATOM      7  N   UNL     1       3.976   2.667  20.221  0.00  0.00    +0.000 NA
ATOM      8  C   UNL     1       4.353   3.237  19.031  0.00  0.00    +0.000 C 
ATOM      9  N   UNL     1       5.575   3.674  19.008  0.00  0.00    +0.000 NA
ATOM     10  C   UNL     1       5.764   4.731  17.915  0.00  0.00    +0.000 C 
ENDROOT
BRANCH  10  11
ATOM     11  C   UNL     1       4.922   5.988  18.308  0.00  0.00    +0.000 C 
ATOM     12  F   UNL     1       5.632   7.133  18.153  0.00  0.00    +0.000 F 
ATOM     13  F   UNL     1       3.831   6.138  17.503  0.00  0.00    +0.000 F 
ATOM     14  F   UNL     1       4.423   6.006  19.556  0.00  0.00    +0.000 F 
ENDBRANCH  10  11
BRANCH  10  15
ATOM     15  C   UNL     1       7.227   5.174  17.841  0.00  0.00    +0.000 C 
ATOM     16  F   UNL     1       8.019   4.152  17.426  0.00  0.00    +0.000 F 
ATOM     17  F   UNL     1       7.465   6.182  16.979  0.00  0.00    +0.000 F 
ATOM     18  F   UNL     1       7.707   5.562  19.047  0.00  0.00    +0.000 F 
ENDBRANCH  10  15
BRANCH   1  19
ATOM     19  C   UNL     1       5.671   4.605  15.293  0.00  0.00    +0.000 C 
ATOM     20  O   UNL     1       5.261   5.696  14.917  0.00  0.00    +0.000 OA
BRANCH  19  21
ATOM     21  O   UNL     1       6.322   3.673  14.542  0.00  0.00    +0.000 OA
BRANCH  21  22
ATOM     22  C   UNL     1       6.658   3.984  13.181  0.00  0.00    +0.000 C 
BRANCH  22  23
ATOM     23  C   UNL     1       5.896   3.124  12.175  0.00  0.00    +0.000 C 
BRANCH  23  25
ATOM     24  C   UNL     1       6.279   0.890  11.020  0.00  0.00    +0.000 C 
ATOM     25  C   UNL     1       6.868   2.244  11.380  0.00  0.00    +0.000 C 
ENDBRANCH  23  25
ENDBRANCH  22  23
ENDBRANCH  21  22
ENDBRANCH  19  21
ENDBRANCH   1  19
TORSDOF 7
ENDMDL
MODEL 5
REMARK VINA RESULT:      -7.6      0.727      1.076
REMARK  Name = 
REMARK  8 active torsions:
REMARK  status: ('A' for Active; 'I' for Inactive)
REMARK    1  A    between atoms: C_1  and  C_2
REMARK    2  A    between atoms: C_2  and  C_3
REMARK    3  A    between atoms: C_3  and  C_4
REMARK    4  A    between atoms: C_4  and  O_5
REMARK    5  A    between atoms: O_5  and  C_6
REMARK    6  A    between atoms: C_6  and  C_8
REMARK    7  A    between atoms: C_17  and  C_18
REMARK    8  A    between atoms: C_17  and  C_22
REMARK                            x       y       z     vdW  Elec       q    Type
REMARK                         _______ _______ _______ _____ _____    ______ ____
ROOT
ATOM      1  C   UNL     1       5.933   3.964  16.532  0.00  0.00    +0.000 C 
ATOM      2  C   UNL     1       4.495   3.608  16.209  0.00  0.00    +0.000 C 
ATOM      3  N   UNL     1       3.705   3.563  17.434  0.00  0.00    +0.000 N 
ATOM      4  C   UNL     1       2.343   3.806  17.441  0.00  0.00    +0.000 C 
ATOM      5  C   UNL     1       1.629   3.748  18.570  0.00  0.00    +0.000 C 
ATOM      6  C   UNL     1       2.401   3.212  19.724  0.00  0.00    +0.000 C 
ATOM      7  N   UNL     1       3.681   3.030  19.776  0.00  0.00    +0.000 NA
ATOM      8  C   UNL     1       4.353   3.472  18.665  0.00  0.00    +0.000 C 
ATOM      9  N   UNL     1       5.546   3.923  18.903  0.00  0.00    +0.000 NA
ATOM     10  C   UNL     1       6.018   4.857  17.784  0.00  0.00    +0.000 C 
ENDROOT
BRANCH  10  11
ATOM     11  C   UNL     1       5.120   6.136  17.811  0.00  0.00    +0.000 C 
ATOM     12  F   UNL     1       4.374   6.199  18.942  0.00  0.00    +0.000 F 
ATOM     13  F   UNL     1       5.866   7.279  17.815  0.00  0.00    +0.000 F 
ATOM     14  F   UNL     1       4.274   6.293  16.778  0.00  0.00    +0.000 F 
ENDBRANCH  10  11
BRANCH  10  15
ATOM     15  C   UNL     1       7.458   5.312  18.033  0.00  0.00    +0.000 C 
ATOM     16  F   UNL     1       7.626   5.689  19.327  0.00  0.00    +0.000 F 
ATOM     17  F   UNL     1       8.392   4.366  17.813  0.00  0.00    +0.000 F 
ATOM     18  F   UNL     1       7.795   6.385  17.278  0.00  0.00    +0.000 F 
ENDBRANCH  10  15
BRANCH   1  19
ATOM     19  C   UNL     1       6.589   4.443  15.253  0.00  0.00    +0.000 C 
ATOM     20  O   UNL     1       7.505   5.255  15.202  0.00  0.00    +0.000 OA
BRANCH  19  21
ATOM     21  O   UNL     1       5.867   3.957  14.205  0.00  0.00    +0.000 OA
BRANCH  21  22
ATOM     22  C   UNL     1       6.470   3.912  12.903  0.00  0.00    +0.000 C 
BRANCH  22  23
ATOM     23  C   UNL     1       5.757   2.949  11.956  0.00  0.00    +0.000 C 
BRANCH  23  25
ATOM     24  C   UNL     1       3.738   3.535  10.524  0.00  0.00    +0.000 C 
ATOM     25  C   UNL     1       4.253   3.249  11.924  0.00  0.00    +0.000 C 
ENDBRANCH  23  25
ENDBRANCH  22  23
ENDBRANCH  21  22
ENDBRANCH  19  21
ENDBRANCH   1  19
TORSDOF 7
ENDMDL
MODEL 6
REMARK VINA RESULT:      -7.6      0.549      1.373
REMARK  Name = 
REMARK  8 active torsions:
REMARK  status: ('A' for Active; 'I' for Inactive)
REMARK    1  A    between atoms: C_1  and  C_2
REMARK    2  A    between atoms: C_2  and  C_3
REMARK    3  A    between atoms: C_3  and  C_4
REMARK    4  A    between atoms: C_4  and  O_5
REMARK    5  A    between atoms: O_5  and  C_6
REMARK    6  A    between atoms: C_6  and  C_8
REMARK    7  A    between atoms: C_17  and  C_18
REMARK    8  A    between atoms: C_17  and  C_22
REMARK                            x       y       z     vdW  Elec       q    Type
REMARK                         _______ _______ _______ _____ _____    ______ ____
ROOT
ATOM      1  C   UNL     1       5.349   4.020  16.572  0.00  0.00    +0.000 C 
ATOM      2  C   UNL     1       3.854   3.768  16.556  0.00  0.00    +0.000 C 
ATOM      3  N   UNL     1       3.358   3.623  17.920  0.00  0.00    +0.000 N 
ATOM      4  C   UNL     1       2.052   3.925  18.265  0.00  0.00    +0.000 C 
ATOM      5  C   UNL     1       1.608   3.774  19.517  0.00  0.00    +0.000 C 
ATOM      6  C   UNL     1       2.580   3.078  20.403  0.00  0.00    +0.000 C 
ATOM      7  N   UNL     1       3.823   2.833  20.140  0.00  0.00    +0.000 NA
ATOM      8  C   UNL     1       4.257   3.365  18.953  0.00  0.00    +0.000 C 
ATOM      9  N   UNL     1       5.503   3.732  18.953  0.00  0.00    +0.000 NA
ATOM     10  C   UNL     1       5.775   4.763  17.853  0.00  0.00    +0.000 C 
ENDROOT
BRANCH  10  11
ATOM     11  C   UNL     1       4.998   6.071  18.211  0.00  0.00    +0.000 C 
ATOM     12  F   UNL     1       3.943   6.268  17.382  0.00  0.00    +0.000 F 
ATOM     13  F   UNL     1       4.457   6.011  19.463  0.00  0.00    +0.000 F 
ATOM     14  F   UNL     1       5.713   7.209  18.209  0.00  0.00    +0.000 F 
ENDBRANCH  10  11
BRANCH  10  15
ATOM     15  C   UNL     1       7.263   5.122  17.807  0.00  0.00    +0.000 C 
ATOM     16  F   UNL     1       7.732   5.387  19.053  0.00  0.00    +0.000 F 
ATOM     17  F   UNL     1       8.060   4.147  17.326  0.00  0.00    +0.000 F 
ATOM     18  F   UNL     1       7.501   6.231  17.066  0.00  0.00    +0.000 F 
ENDBRANCH  10  15
BRANCH   1  19
ATOM     19  C   UNL     1       5.734   4.608  15.231  0.00  0.00    +0.000 C 
ATOM     20  O   UNL     1       5.579   5.782  14.915  0.00  0.00    +0.000 OA
BRANCH  19  21
ATOM     21  O   UNL     1       6.097   3.582  14.412  0.00  0.00    +0.000 OA
BRANCH  21  22
ATOM     22  C   UNL     1       6.493   3.871  13.062  0.00  0.00    +0.000 C 
BRANCH  22  23
ATOM     23  C   UNL     1       5.500   3.341  12.031  0.00  0.00    +0.000 C 
BRANCH  23  25
ATOM     24  C   UNL     1       7.096   1.710  10.907  0.00  0.00    +0.000 C 
ATOM     25  C   UNL     1       5.809   1.877  11.697  0.00  0.00    +0.000 C 
ENDBRANCH  23  25
ENDBRANCH  22  23
ENDBRANCH  21  22
ENDBRANCH  19  21
ENDBRANCH   1  19
TORSDOF 7
ENDMDL
MODEL 7
REMARK VINA RESULT:      -7.5      0.927      1.094
REMARK  Name = 
REMARK  8 active torsions:
REMARK  status: ('A' for Active; 'I' for Inactive)
REMARK    1  A    between atoms: C_1  and  C_2
REMARK    2  A    between atoms: C_2  and  C_3
REMARK    3  A    between atoms: C_3  and  C_4
REMARK    4  A    between atoms: C_4  and  O_5
REMARK    5  A    between atoms: O_5  and  C_6
REMARK    6  A    between atoms: C_6  and  C_8
REMARK    7  A    between atoms: C_17  and  C_18
REMARK    8  A    between atoms: C_17  and  C_22
REMARK                            x       y       z     vdW  Elec       q    Type
REMARK                         _______ _______ _______ _____ _____    ______ ____
ROOT
ATOM      1  C   UNL     1       5.949   3.974  16.686  0.00  0.00    +0.000 C 
ATOM      2  C   UNL     1       4.513   3.631  16.338  0.00  0.00    +0.000 C 
ATOM      3  N   UNL     1       3.698   3.616  17.548  0.00  0.00    +0.000 N 
ATOM      4  C   UNL     1       2.339   3.876  17.523  0.00  0.00    +0.000 C 
ATOM      5  C   UNL     1       1.602   3.844  18.638  0.00  0.00    +0.000 C 
ATOM      6  C   UNL     1       2.343   3.317  19.816  0.00  0.00    +0.000 C 
ATOM      7  N   UNL     1       3.619   3.120  19.897  0.00  0.00    +0.000 NA
ATOM      8  C   UNL     1       4.319   3.536  18.793  0.00  0.00    +0.000 C 
ATOM      9  N   UNL     1       5.513   3.976  19.049  0.00  0.00    +0.000 NA
ATOM     10  C   UNL     1       6.020   4.886  17.925  0.00  0.00    +0.000 C 
ENDROOT
BRANCH  10  11
ATOM     11  C   UNL     1       5.138   6.177  17.913  0.00  0.00    +0.000 C 
ATOM     12  F   UNL     1       4.334   6.243  19.004  0.00  0.00    +0.000 F 
ATOM     13  F   UNL     1       5.897   7.309  17.965  0.00  0.00    +0.000 F 
ATOM     14  F   UNL     1       4.349   6.350  16.839  0.00  0.00    +0.000 F 
ENDBRANCH  10  11
BRANCH  10  15
ATOM     15  C   UNL     1       7.460   5.328  18.197  0.00  0.00    +0.000 C 
ATOM     16  F   UNL     1       8.334   4.337  17.884  0.00  0.00    +0.000 F 
ATOM     17  F   UNL     1       7.863   6.397  17.484  0.00  0.00    +0.000 F 
ATOM     18  F   UNL     1       7.669   5.621  19.504  0.00  0.00    +0.000 F 
ENDBRANCH  10  15
BRANCH   1  19
ATOM     19  C   UNL     1       6.637   4.425  15.414  0.00  0.00    +0.000 C 
ATOM     20  O   UNL     1       7.241   5.483  15.286  0.00  0.00    +0.000 OA
BRANCH  19  21
ATOM     21  O   UNL     1       6.307   3.547  14.426  0.00  0.00    +0.000 OA
BRANCH  21  22
ATOM     22  C   UNL     1       5.994   4.051  13.118  0.00  0.00    +0.000 C 
BRANCH  22  23
ATOM     23  C   UNL     1       6.617   3.217  12.001  0.00  0.00    +0.000 C 
BRANCH  23  25
ATOM     24  C   UNL     1       6.366   0.882  11.024  0.00  0.00    +0.000 C 
ATOM     25  C   UNL     1       5.651   2.111  11.559  0.00  0.00    +0.000 C 
ENDBRANCH  23  25
ENDBRANCH  22  23
ENDBRANCH  21  22
ENDBRANCH  19  21
ENDBRANCH   1  19
TORSDOF 7
ENDMDL
MODEL 8
REMARK VINA RESULT:      -7.5      0.801      1.340
REMARK  Name = 
REMARK  8 active torsions:
REMARK  status: ('A' for Active; 'I' for Inactive)
REMARK    1  A    between atoms: C_1  and  C_2
REMARK    2  A    between atoms: C_2  and  C_3
REMARK    3  A    between atoms: C_3  and  C_4
REMARK    4  A    between atoms: C_4  and  O_5
REMARK    5  A    between atoms: O_5  and  C_6
REMARK    6  A    between atoms: C_6  and  C_8
REMARK    7  A    between atoms: C_17  and  C_18
REMARK    8  A    between atoms: C_17  and  C_22
REMARK                            x       y       z     vdW  Elec       q    Type
REMARK                         _______ _______ _______ _____ _____    ______ ____
ROOT
ATOM      1  C   UNL     1       5.458   4.058  16.616  0.00  0.00    +0.000 C 
ATOM      2  C   UNL     1       3.973   3.753  16.590  0.00  0.00    +0.000 C 
ATOM      3  N   UNL     1       3.482   3.547  17.948  0.00  0.00    +0.000 N 
ATOM      4  C   UNL     1       2.167   3.791  18.300  0.00  0.00    +0.000 C 
ATOM      5  C   UNL     1       1.729   3.584  19.546  0.00  0.00    +0.000 C 
ATOM      6  C   UNL     1       2.725   2.896  20.412  0.00  0.00    +0.000 C 
ATOM      7  N   UNL     1       3.975   2.705  20.143  0.00  0.00    +0.000 NA
ATOM      8  C   UNL     1       4.391   3.289  18.974  0.00  0.00    +0.000 C 
ATOM      9  N   UNL     1       5.622   3.701  18.987  0.00  0.00    +0.000 NA
ATOM     10  C   UNL     1       5.857   4.775  17.919  0.00  0.00    +0.000 C 
ENDROOT
BRANCH  10  11
ATOM     11  C   UNL     1       5.033   6.042  18.318  0.00  0.00    +0.000 C 
ATOM     12  F   UNL     1       4.635   5.992  19.614  0.00  0.00    +0.000 F 
ATOM     13  F   UNL     1       5.777   7.181  18.221  0.00  0.00    +0.000 F 
ATOM     14  F   UNL     1       3.935   6.295  17.584  0.00  0.00    +0.000 F 
ENDBRANCH  10  11
BRANCH  10  15
ATOM     15  C   UNL     1       7.331   5.188  17.887  0.00  0.00    +0.000 C 
ATOM     16  F   UNL     1       8.108   4.165  17.449  0.00  0.00    +0.000 F 
ATOM     17  F   UNL     1       7.605   6.221  17.066  0.00  0.00    +0.000 F 
ATOM     18  F   UNL     1       7.797   5.523  19.115  0.00  0.00    +0.000 F 
ENDBRANCH  10  15
BRANCH   1  19
ATOM     19  C   UNL     1       5.821   4.702  15.294  0.00  0.00    +0.000 C 
ATOM     20  O   UNL     1       5.526   5.846  14.972  0.00  0.00    +0.000 OA
BRANCH  19  21
ATOM     21  O   UNL     1       6.354   3.739  14.491  0.00  0.00    +0.000 OA
BRANCH  21  22
ATOM     22  C   UNL     1       5.881   3.612  13.142  0.00  0.00    +0.000 C 
BRANCH  22  23
ATOM     23  C   UNL     1       7.011   3.642  12.116  0.00  0.00    +0.000 C 
BRANCH  23  25
ATOM     24  C   UNL     1       8.371   5.684  12.786  0.00  0.00    +0.000 C 
ATOM     25  C   UNL     1       7.394   5.090  11.786  0.00  0.00    +0.000 C 
ENDBRANCH  23  25
ENDBRANCH  22  23
ENDBRANCH  21  22
ENDBRANCH  19  21
ENDBRANCH   1  19
TORSDOF 7
ENDMDL
MODEL 9
REMARK VINA RESULT:      -7.3      0.787      1.698
REMARK  Name = 
REMARK  8 active torsions:
REMARK  status: ('A' for Active; 'I' for Inactive)
REMARK    1  A    between atoms: C_1  and  C_2
REMARK    2  A    between atoms: C_2  and  C_3
REMARK    3  A    between atoms: C_3  and  C_4
REMARK    4  A    between atoms: C_4  and  O_5
REMARK    5  A    between atoms: O_5  and  C_6
REMARK    6  A    between atoms: C_6  and  C_8
REMARK    7  A    between atoms: C_17  and  C_18
REMARK    8  A    between atoms: C_17  and  C_22
REMARK                            x       y       z     vdW  Elec       q    Type
REMARK                         _______ _______ _______ _____ _____    ______ ____
ROOT
ATOM      1  C   UNL     1       5.445   4.013  16.623  0.00  0.00    +0.000 C 
ATOM      2  C   UNL     1       3.963   3.698  16.581  0.00  0.00    +0.000 C 
ATOM      3  N   UNL     1       3.456   3.503  17.935  0.00  0.00    +0.000 N 
ATOM      4  C   UNL     1       2.135   3.741  18.269  0.00  0.00    +0.000 C 
ATOM      5  C   UNL     1       1.682   3.545  19.511  0.00  0.00    +0.000 C 
ATOM      6  C   UNL     1       2.672   2.873  20.396  0.00  0.00    +0.000 C 
ATOM      7  N   UNL     1       3.927   2.687  20.145  0.00  0.00    +0.000 NA
ATOM      8  C   UNL     1       4.353   3.262  18.975  0.00  0.00    +0.000 C 
ATOM      9  N   UNL     1       5.581   3.682  18.999  0.00  0.00    +0.000 NA
ATOM     10  C   UNL     1       5.823   4.746  17.924  0.00  0.00    +0.000 C 
ENDROOT
BRANCH  10  11
ATOM     11  C   UNL     1       4.986   6.012  18.299  0.00  0.00    +0.000 C 
ATOM     12  F   UNL     1       5.714   7.148  18.172  0.00  0.00    +0.000 F 
ATOM     13  F   UNL     1       3.920   6.180  17.464  0.00  0.00    +0.000 F 
ATOM     14  F   UNL     1       4.451   6.029  19.532  0.00  0.00    +0.000 F 
ENDBRANCH  10  11
BRANCH  10  15
ATOM     15  C   UNL     1       7.294   5.169  17.905  0.00  0.00    +0.000 C 
ATOM     16  F   UNL     1       7.711   5.515  19.151  0.00  0.00    +0.000 F 
ATOM     17  F   UNL     1       8.148   4.210  17.497  0.00  0.00    +0.000 F 
ATOM     18  F   UNL     1       7.507   6.251  17.118  0.00  0.00    +0.000 F 
ENDBRANCH  10  15
BRANCH   1  19
ATOM     19  C   UNL     1       5.820   4.646  15.299  0.00  0.00    +0.000 C 
ATOM     20  O   UNL     1       5.585   5.807  14.990  0.00  0.00    +0.000 OA
BRANCH  19  21
ATOM     21  O   UNL     1       6.285   3.660  14.481  0.00  0.00    +0.000 OA
BRANCH  21  22
ATOM     22  C   UNL     1       5.832   3.611  13.119  0.00  0.00    +0.000 C 
BRANCH  22  23
ATOM     23  C   UNL     1       6.982   3.635  12.115  0.00  0.00    +0.000 C 
BRANCH  23  25
ATOM     24  C   UNL     1       8.374   5.643  12.819  0.00  0.00    +0.000 C 
ATOM     25  C   UNL     1       7.392   5.079  11.806  0.00  0.00    +0.000 C 
ENDBRANCH  23  25
ENDBRANCH  22  23
ENDBRANCH  21  22
ENDBRANCH  19  21
ENDBRANCH   1  19
TORSDOF 7
ENDMDL
