MODEL 1
REMARK VINA RESULT:      -8.1      0.000      0.000
REMARK  Name = 
REMARK  8 active torsions:
REMARK  status: ('A' for Active; 'I' for Inactive)
REMARK    1  A    between atoms: C_1  and  C_2
REMARK    2  A    between atoms: N_4  and  C_5
REMARK    3  A    between atoms: C_8  and  C_9
REMARK    4  A    between atoms: C_13  and  O_14
REMARK    5  A    between atoms: O_14  and  C_15
REMARK    6  A    between atoms: C_18  and  C_19
REMARK    7  A    between atoms: C_23  and  N_24
REMARK    8  A    between atoms: C_33  and  N_34
REMARK                            x       y       z     vdW  Elec       q    Type
REMARK                         _______ _______ _______ _____ _____    ______ ____
ROOT
ATOM      1  C   UNL     1       0.602  10.984  21.142  0.00  0.00    +0.000 A 
ATOM      2  C   UNL     1       0.938  10.715  19.813  0.00  0.00    +0.000 A 
ATOM      3  C   UNL     1       1.314   9.429  19.428  0.00  0.00    +0.000 A 
ATOM      4  C   UNL     1       1.417   8.410  20.377  0.00  0.00    +0.000 A 
ATOM      5  C   UNL     1       1.111   8.695  21.717  0.00  0.00    +0.000 A 
ATOM      6  C   UNL     1       0.702   9.975  22.097  0.00  0.00    +0.000 A 
ENDROOT
BRANCH   4   7
ATOM      7  C   UNL     1       1.927   7.106  19.969  0.00  0.00    +0.000 A 
ATOM      8  N   UNL     1       1.722   5.950  20.577  0.00  0.00    +0.000 NA
ATOM      9  C   UNL     1       2.234   4.994  19.737  0.00  0.00    +0.000 A 
ATOM     10  C   UNL     1       2.380   3.618  19.923  0.00  0.00    +0.000 A 
ATOM     11  C   UNL     1       3.071   2.943  18.903  0.00  0.00    +0.000 A 
ATOM     12  C   UNL     1       3.273   3.490  17.630  0.00  0.00    +0.000 A 
ATOM     13  C   UNL     1       3.188   4.867  17.474  0.00  0.00    +0.000 A 
ATOM     14  C   UNL     1       2.730   5.579  18.579  0.00  0.00    +0.000 A 
ATOM     15  N   UNL     1       2.693   6.917  18.848  0.00  0.00    +0.000 N 
ATOM     16  H   UNL     1       3.118   7.645  18.294  0.00  0.00    +0.000 HD
BRANCH  11  17
ATOM     17  N   UNL     1       4.088   1.969  19.316  0.00  0.00    +0.000 N 
ATOM     18  O   UNL     1       4.025   0.841  18.803  0.00  0.00    +0.000 OA
ATOM     19  O   UNL     1       4.852   2.289  20.236  0.00  0.00    +0.000 OA
ENDBRANCH  11  17
ENDBRANCH   4   7
BRANCH   1  20
ATOM     20  O   UNL     1       0.223  12.226  21.603  0.00  0.00    +0.000 OA
BRANCH  20  25
ATOM     21  C   UNL     1       1.410  16.549  19.500  0.00  0.00    +0.000 C 
ATOM     22  C   UNL     1       0.768  15.249  19.837  0.00  0.00    +0.000 A 
ATOM     23  N   UNL     1      -0.435  14.897  19.361  0.00  0.00    +0.000 NA
ATOM     24  N   UNL     1      -0.728  13.691  19.957  0.00  0.00    +0.000 N 
ATOM     25  C   UNL     1       0.301  13.310  20.828  0.00  0.00    +0.000 A 
ATOM     26  C   UNL     1       1.299  14.251  20.665  0.00  0.00    +0.000 A 
BRANCH  24  27
ATOM     27  C   UNL     1      -1.989  13.043  19.692  0.00  0.00    +0.000 A 
ATOM     28  C   UNL     1      -2.112  12.135  18.619  0.00  0.00    +0.000 A 
ATOM     29  C   UNL     1      -3.324  11.518  18.328  0.00  0.00    +0.000 A 
ATOM     30  C   UNL     1      -4.470  11.784  19.085  0.00  0.00    +0.000 A 
ATOM     31  C   UNL     1      -4.358  12.684  20.162  0.00  0.00    +0.000 A 
ATOM     32  C   UNL     1      -3.142  13.294  20.450  0.00  0.00    +0.000 A 
BRANCH  30  33
ATOM     33  C   UNL     1      -5.724  11.169  18.773  0.00  0.00    +0.000 C 
ATOM     34  N   UNL     1      -6.735  10.673  18.515  0.00  0.00    +0.000 NA
ENDBRANCH  30  33
ENDBRANCH  24  27
BRANCH  26  35
ATOM     35  N   UNL     1       2.581  14.246  21.287  0.00  0.00    +0.000 N 
ATOM     36  O   UNL     1       2.630  14.646  22.457  0.00  0.00    +0.000 OA
ATOM     37  O   UNL     1       3.534  13.865  20.599  0.00  0.00    +0.000 OA
ENDBRANCH  26  35
ENDBRANCH  20  25
ENDBRANCH   1  20
TORSDOF 7
ENDMDL
MODEL 2
REMARK VINA RESULT:      -8.1      3.391     10.662
REMARK  Name = 
REMARK  8 active torsions:
REMARK  status: ('A' for Active; 'I' for Inactive)
REMARK    1  A    between atoms: C_1  and  C_2
REMARK    2  A    between atoms: N_4  and  C_5
REMARK    3  A    between atoms: C_8  and  C_9
REMARK    4  A    between atoms: C_13  and  O_14
REMARK    5  A    between atoms: O_14  and  C_15
REMARK    6  A    between atoms: C_18  and  C_19
REMARK    7  A    between atoms: C_23  and  N_24
REMARK    8  A    between atoms: C_33  and  N_34
REMARK                            x       y       z     vdW  Elec       q    Type
REMARK                         _______ _______ _______ _____ _____    ______ ____
ROOT
ATOM      1  C   UNL     1       2.572   6.721  18.435  0.00  0.00    +0.000 A 
ATOM      2  C   UNL     1       2.302   6.587  19.799  0.00  0.00    +0.000 A 
ATOM      3  C   UNL     1       1.677   7.619  20.497  0.00  0.00    +0.000 A 
ATOM      4  C   UNL     1       1.367   8.820  19.855  0.00  0.00    +0.000 A 
ATOM      5  C   UNL     1       1.672   8.961  18.492  0.00  0.00    +0.000 A 
ATOM      6  C   UNL     1       2.268   7.915  17.785  0.00  0.00    +0.000 A 
ENDROOT
BRANCH   4   7
ATOM      7  C   UNL     1       0.823   9.925  20.635  0.00  0.00    +0.000 A 
ATOM      8  N   UNL     1       0.868  11.210  20.327  0.00  0.00    +0.000 NA
ATOM      9  C   UNL     1       0.075  11.841  21.251  0.00  0.00    +0.000 A 
ATOM     10  C   UNL     1      -0.152  13.203  21.461  0.00  0.00    +0.000 A 
ATOM     11  C   UNL     1      -0.928  13.516  22.590  0.00  0.00    +0.000 A 
ATOM     12  C   UNL     1      -1.731  12.575  23.246  0.00  0.00    +0.000 A 
ATOM     13  C   UNL     1      -1.452  11.226  23.077  0.00  0.00    +0.000 A 
ATOM     14  C   UNL     1      -0.492  10.917  22.118  0.00  0.00    +0.000 A 
ATOM     15  N   UNL     1       0.152   9.751  21.818  0.00  0.00    +0.000 N 
ATOM     16  H   UNL     1       0.109   8.895  22.351  0.00  0.00    +0.000 HD
BRANCH  11  17
ATOM     17  N   UNL     1      -0.455  14.613  23.442  0.00  0.00    +0.000 N 
ATOM     18  O   UNL     1      -1.049  14.783  24.518  0.00  0.00    +0.000 OA
ATOM     19  O   UNL     1       0.406  15.372  22.979  0.00  0.00    +0.000 OA
ENDBRANCH  11  17
ENDBRANCH   4   7
BRANCH   1  20
ATOM     20  O   UNL     1       3.188   5.751  17.675  0.00  0.00    +0.000 OA
BRANCH  20  25
ATOM     21  C   UNL     1       4.665   1.645  20.017  0.00  0.00    +0.000 C 
ATOM     22  C   UNL     1       4.625   2.945  19.293  0.00  0.00    +0.000 A 
ATOM     23  N   UNL     1       5.684   3.765  19.230  0.00  0.00    +0.000 NA
ATOM     24  N   UNL     1       5.242   4.888  18.567  0.00  0.00    +0.000 N 
ATOM     25  C   UNL     1       3.886   4.763  18.239  0.00  0.00    +0.000 A 
ATOM     26  C   UNL     1       3.527   3.480  18.607  0.00  0.00    +0.000 A 
BRANCH  24  27
ATOM     27  C   UNL     1       6.134   6.003  18.363  0.00  0.00    +0.000 A 
ATOM     28  C   UNL     1       7.359   6.073  19.058  0.00  0.00    +0.000 A 
ATOM     29  C   UNL     1       8.223   7.151  18.898  0.00  0.00    +0.000 A 
ATOM     30  C   UNL     1       7.900   8.213  18.045  0.00  0.00    +0.000 A 
ATOM     31  C   UNL     1       6.682   8.152  17.341  0.00  0.00    +0.000 A 
ATOM     32  C   UNL     1       5.826   7.069  17.504  0.00  0.00    +0.000 A 
BRANCH  30  33
ATOM     33  C   UNL     1       8.775   9.335  17.896  0.00  0.00    +0.000 C 
ATOM     34  N   UNL     1       9.487  10.238  17.774  0.00  0.00    +0.000 NA
ENDBRANCH  30  33
ENDBRANCH  24  27
BRANCH  26  35
ATOM     35  N   UNL     1       2.260   2.861  18.402  0.00  0.00    +0.000 N 
ATOM     36  O   UNL     1       1.432   2.980  19.313  0.00  0.00    +0.000 OA
ATOM     37  O   UNL     1       2.105   2.242  17.344  0.00  0.00    +0.000 OA
ENDBRANCH  26  35
ENDBRANCH  20  25
ENDBRANCH   1  20
TORSDOF 7
ENDMDL
MODEL 3
REMARK VINA RESULT:      -8.1      0.747      1.823
REMARK  Name = 
REMARK  8 active torsions:
REMARK  status: ('A' for Active; 'I' for Inactive)
REMARK    1  A    between atoms: C_1  and  C_2
REMARK    2  A    between atoms: N_4  and  C_5
REMARK    3  A    between atoms: C_8  and  C_9
REMARK    4  A    between atoms: C_13  and  O_14
REMARK    5  A    between atoms: O_14  and  C_15
REMARK    6  A    between atoms: C_18  and  C_19
REMARK    7  A    between atoms: C_23  and  N_24
REMARK    8  A    between atoms: C_33  and  N_34
REMARK                            x       y       z     vdW  Elec       q    Type
REMARK                         _______ _______ _______ _____ _____    ______ ____
ROOT
ATOM      1  C   UNL     1       0.427  10.974  21.288  0.00  0.00    +0.000 A 
ATOM      2  C   UNL     1       0.501   9.982  22.268  0.00  0.00    +0.000 A 
ATOM      3  C   UNL     1       1.005   8.720  21.955  0.00  0.00    +0.000 A 
ATOM      4  C   UNL     1       1.386   8.416  20.647  0.00  0.00    +0.000 A 
ATOM      5  C   UNL     1       1.277   9.408  19.659  0.00  0.00    +0.000 A 
ATOM      6  C   UNL     1       0.804  10.681  19.979  0.00  0.00    +0.000 A 
ENDROOT
BRANCH   4   7
ATOM      7  C   UNL     1       1.796   7.055  20.323  0.00  0.00    +0.000 A 
ATOM      8  N   UNL     1       2.570   6.679  19.319  0.00  0.00    +0.000 NA
ATOM      9  C   UNL     1       2.826   5.347  19.526  0.00  0.00    +0.000 A 
ATOM     10  C   UNL     1       3.499   4.425  18.724  0.00  0.00    +0.000 A 
ATOM     11  C   UNL     1       3.466   3.095  19.178  0.00  0.00    +0.000 A 
ATOM     12  C   UNL     1       3.133   2.748  20.493  0.00  0.00    +0.000 A 
ATOM     13  C   UNL     1       2.407   3.651  21.257  0.00  0.00    +0.000 A 
ATOM     14  C   UNL     1       2.221   4.913  20.699  0.00  0.00    +0.000 A 
ATOM     15  N   UNL     1       1.430   5.963  21.066  0.00  0.00    +0.000 N 
ATOM     16  H   UNL     1       0.726   5.951  21.789  0.00  0.00    +0.000 HD
BRANCH  11  17
ATOM     17  N   UNL     1       3.180   2.056  18.183  0.00  0.00    +0.000 N 
ATOM     18  O   UNL     1       2.267   2.288  17.376  0.00  0.00    +0.000 OA
ATOM     19  O   UNL     1       3.770   0.973  18.294  0.00  0.00    +0.000 OA
ENDBRANCH  11  17
ENDBRANCH   4   7
BRANCH   1  20
ATOM     20  O   UNL     1      -0.059  12.243  21.514  0.00  0.00    +0.000 OA
BRANCH  20  25
ATOM     21  C   UNL     1       1.419  16.239  18.991  0.00  0.00    +0.000 C 
ATOM     22  C   UNL     1       0.708  15.010  19.439  0.00  0.00    +0.000 A 
ATOM     23  N   UNL     1      -0.476  14.640  18.931  0.00  0.00    +0.000 NA
ATOM     24  N   UNL     1      -0.852  13.526  19.647  0.00  0.00    +0.000 N 
ATOM     25  C   UNL     1       0.107  13.222  20.622  0.00  0.00    +0.000 A 
ATOM     26  C   UNL     1       1.149  14.105  20.413  0.00  0.00    +0.000 A 
BRANCH  24  27
ATOM     27  C   UNL     1      -2.119  12.890  19.380  0.00  0.00    +0.000 A 
ATOM     28  C   UNL     1      -3.238  13.159  20.195  0.00  0.00    +0.000 A 
ATOM     29  C   UNL     1      -4.462  12.538  19.975  0.00  0.00    +0.000 A 
ATOM     30  C   UNL     1      -4.624  11.613  18.937  0.00  0.00    +0.000 A 
ATOM     31  C   UNL     1      -3.516  11.339  18.113  0.00  0.00    +0.000 A 
ATOM     32  C   UNL     1      -2.297  11.968  18.338  0.00  0.00    +0.000 A 
BRANCH  30  33
ATOM     33  C   UNL     1      -5.876  10.954  18.722  0.00  0.00    +0.000 C 
ATOM     34  N   UNL     1      -6.884  10.416  18.547  0.00  0.00    +0.000 NA
ENDBRANCH  30  33
ENDBRANCH  24  27
BRANCH  26  35
ATOM     35  N   UNL     1       2.390  14.136  21.113  0.00  0.00    +0.000 N 
ATOM     36  O   UNL     1       3.385  13.741  20.493  0.00  0.00    +0.000 OA
ATOM     37  O   UNL     1       2.362  14.534  22.282  0.00  0.00    +0.000 OA
ENDBRANCH  26  35
ENDBRANCH  20  25
ENDBRANCH   1  20
TORSDOF 7
ENDMDL
MODEL 4
REMARK VINA RESULT:      -8.0      0.236      1.111
REMARK  Name = 
REMARK  8 active torsions:
REMARK  status: ('A' for Active; 'I' for Inactive)
REMARK    1  A    between atoms: C_1  and  C_2
REMARK    2  A    between atoms: N_4  and  C_5
REMARK    3  A    between atoms: C_8  and  C_9
REMARK    4  A    between atoms: C_13  and  O_14
REMARK    5  A    between atoms: O_14  and  C_15
REMARK    6  A    between atoms: C_18  and  C_19
REMARK    7  A    between atoms: C_23  and  N_24
REMARK    8  A    between atoms: C_33  and  N_34
REMARK                            x       y       z     vdW  Elec       q    Type
REMARK                         _______ _______ _______ _____ _____    ______ ____
ROOT
ATOM      1  C   UNL     1       0.682  10.978  21.044  0.00  0.00    +0.000 A 
ATOM      2  C   UNL     1       0.999  10.663  19.721  0.00  0.00    +0.000 A 
ATOM      3  C   UNL     1       1.330   9.355  19.369  0.00  0.00    +0.000 A 
ATOM      4  C   UNL     1       1.405   8.358  20.344  0.00  0.00    +0.000 A 
ATOM      5  C   UNL     1       1.118   8.689  21.678  0.00  0.00    +0.000 A 
ATOM      6  C   UNL     1       0.755   9.992  22.026  0.00  0.00    +0.000 A 
ENDROOT
BRANCH   4   7
ATOM      7  C   UNL     1       1.868   7.028  19.969  0.00  0.00    +0.000 A 
ATOM      8  N   UNL     1       1.790   5.927  20.696  0.00  0.00    +0.000 NA
ATOM      9  C   UNL     1       2.177   4.906  19.867  0.00  0.00    +0.000 A 
ATOM     10  C   UNL     1       2.380   3.552  20.141  0.00  0.00    +0.000 A 
ATOM     11  C   UNL     1       2.908   2.796  19.081  0.00  0.00    +0.000 A 
ATOM     12  C   UNL     1       2.887   3.232  17.750  0.00  0.00    +0.000 A 
ATOM     13  C   UNL     1       2.748   4.590  17.496  0.00  0.00    +0.000 A 
ATOM     14  C   UNL     1       2.464   5.392  18.597  0.00  0.00    +0.000 A 
ATOM     15  N   UNL     1       2.443   6.747  18.755  0.00  0.00    +0.000 N 
ATOM     16  H   UNL     1       2.756   7.428  18.080  0.00  0.00    +0.000 HD
BRANCH  11  17
ATOM     17  N   UNL     1       3.999   1.868  19.400  0.00  0.00    +0.000 N 
ATOM     18  O   UNL     1       4.836   2.251  20.231  0.00  0.00    +0.000 OA
ATOM     19  O   UNL     1       4.088   0.831  18.729  0.00  0.00    +0.000 OA
ENDBRANCH  11  17
ENDBRANCH   4   7
BRANCH   1  20
ATOM     20  O   UNL     1       0.348  12.243  21.474  0.00  0.00    +0.000 OA
BRANCH  20  25
ATOM     21  C   UNL     1       1.638  16.487  19.271  0.00  0.00    +0.000 C 
ATOM     22  C   UNL     1       0.971  15.206  19.633  0.00  0.00    +0.000 A 
ATOM     23  N   UNL     1      -0.227  14.857  19.144  0.00  0.00    +0.000 NA
ATOM     24  N   UNL     1      -0.550  13.673  19.768  0.00  0.00    +0.000 N 
ATOM     25  C   UNL     1       0.456  13.304  20.670  0.00  0.00    +0.000 A 
ATOM     26  C   UNL     1       1.471  14.225  20.500  0.00  0.00    +0.000 A 
BRANCH  24  27
ATOM     27  C   UNL     1      -1.815  13.035  19.497  0.00  0.00    +0.000 A 
ATOM     28  C   UNL     1      -2.924  13.264  20.339  0.00  0.00    +0.000 A 
ATOM     29  C   UNL     1      -4.145  12.639  20.114  0.00  0.00    +0.000 A 
ATOM     30  C   UNL     1      -4.315  11.752  19.045  0.00  0.00    +0.000 A 
ATOM     31  C   UNL     1      -3.218  11.520  18.195  0.00  0.00    +0.000 A 
ATOM     32  C   UNL     1      -2.001  12.151  18.425  0.00  0.00    +0.000 A 
BRANCH  30  33
ATOM     33  C   UNL     1      -5.564  11.089  18.824  0.00  0.00    +0.000 C 
ATOM     34  N   UNL     1      -6.576  10.558  18.649  0.00  0.00    +0.000 NA
ENDBRANCH  30  33
ENDBRANCH  24  27
BRANCH  26  35
ATOM     35  N   UNL     1       2.741  14.221  21.147  0.00  0.00    +0.000 N 
ATOM     36  O   UNL     1       3.718  13.931  20.446  0.00  0.00    +0.000 OA
ATOM     37  O   UNL     1       2.754  14.486  22.354  0.00  0.00    +0.000 OA
ENDBRANCH  26  35
ENDBRANCH  20  25
ENDBRANCH   1  20
TORSDOF 7
ENDMDL
MODEL 5
REMARK VINA RESULT:      -8.0      3.483     10.526
REMARK  Name = 
REMARK  8 active torsions:
REMARK  status: ('A' for Active; 'I' for Inactive)
REMARK    1  A    between atoms: C_1  and  C_2
REMARK    2  A    between atoms: N_4  and  C_5
REMARK    3  A    between atoms: C_8  and  C_9
REMARK    4  A    between atoms: C_13  and  O_14
REMARK    5  A    between atoms: O_14  and  C_15
REMARK    6  A    between atoms: C_18  and  C_19
REMARK    7  A    between atoms: C_23  and  N_24
REMARK    8  A    between atoms: C_33  and  N_34
REMARK                            x       y       z     vdW  Elec       q    Type
REMARK                         _______ _______ _______ _____ _____    ______ ____
ROOT
ATOM      1  C   UNL     1       2.597   6.683  18.289  0.00  0.00    +0.000 A 
ATOM      2  C   UNL     1       2.244   7.914  17.731  0.00  0.00    +0.000 A 
ATOM      3  C   UNL     1       1.626   8.889  18.511  0.00  0.00    +0.000 A 
ATOM      4  C   UNL     1       1.299   8.626  19.843  0.00  0.00    +0.000 A 
ATOM      5  C   UNL     1       1.626   7.374  20.389  0.00  0.00    +0.000 A 
ATOM      6  C   UNL     1       2.275   6.409  19.617  0.00  0.00    +0.000 A 
ENDROOT
BRANCH   4   7
ATOM      7  C   UNL     1       0.547   9.618  20.602  0.00  0.00    +0.000 A 
ATOM      8  N   UNL     1      -0.176   9.404  21.687  0.00  0.00    +0.000 NA
ATOM      9  C   UNL     1      -0.535  10.646  22.145  0.00  0.00    +0.000 A 
ATOM     10  C   UNL     1      -1.383  11.008  23.194  0.00  0.00    +0.000 A 
ATOM     11  C   UNL     1      -1.640  12.385  23.312  0.00  0.00    +0.000 A 
ATOM     12  C   UNL     1      -0.844  13.362  22.702  0.00  0.00    +0.000 A 
ATOM     13  C   UNL     1      -0.056  12.999  21.618  0.00  0.00    +0.000 A 
ATOM     14  C   UNL     1       0.009  11.638  21.339  0.00  0.00    +0.000 A 
ATOM     15  N   UNL     1       0.520  10.950  20.276  0.00  0.00    +0.000 N 
ATOM     16  H   UNL     1       0.859  11.353  19.416  0.00  0.00    +0.000 HD
BRANCH  11  17
ATOM     17  N   UNL     1      -3.032  12.787  23.540  0.00  0.00    +0.000 N 
ATOM     18  O   UNL     1      -3.891  12.275  22.807  0.00  0.00    +0.000 OA
ATOM     19  O   UNL     1      -3.242  13.701  24.349  0.00  0.00    +0.000 OA
ENDBRANCH  11  17
ENDBRANCH   4   7
BRANCH   1  20
ATOM     20  O   UNL     1       3.207   5.667  17.587  0.00  0.00    +0.000 OA
BRANCH  20  25
ATOM     21  C   UNL     1       4.653   1.663  20.117  0.00  0.00    +0.000 C 
ATOM     22  C   UNL     1       4.623   2.937  19.348  0.00  0.00    +0.000 A 
ATOM     23  N   UNL     1       5.673   3.768  19.292  0.00  0.00    +0.000 NA
ATOM     24  N   UNL     1       5.240   4.862  18.577  0.00  0.00    +0.000 N 
ATOM     25  C   UNL     1       3.898   4.707  18.208  0.00  0.00    +0.000 A 
ATOM     26  C   UNL     1       3.542   3.434  18.607  0.00  0.00    +0.000 A 
BRANCH  24  27
ATOM     27  C   UNL     1       6.124   5.981  18.364  0.00  0.00    +0.000 A 
ATOM     28  C   UNL     1       7.345   6.070  19.067  0.00  0.00    +0.000 A 
ATOM     29  C   UNL     1       8.201   7.152  18.899  0.00  0.00    +0.000 A 
ATOM     30  C   UNL     1       7.876   8.200  18.031  0.00  0.00    +0.000 A 
ATOM     31  C   UNL     1       6.664   8.121  17.320  0.00  0.00    +0.000 A 
ATOM     32  C   UNL     1       5.815   7.033  17.490  0.00  0.00    +0.000 A 
BRANCH  30  33
ATOM     33  C   UNL     1       8.744   9.328  17.873  0.00  0.00    +0.000 C 
ATOM     34  N   UNL     1       9.445  10.237  17.740  0.00  0.00    +0.000 NA
ENDBRANCH  30  33
ENDBRANCH  24  27
BRANCH  26  35
ATOM     35  N   UNL     1       2.290   2.791  18.381  0.00  0.00    +0.000 N 
ATOM     36  O   UNL     1       1.524   2.715  19.350  0.00  0.00    +0.000 OA
ATOM     37  O   UNL     1       2.087   2.346  17.246  0.00  0.00    +0.000 OA
ENDBRANCH  26  35
ENDBRANCH  20  25
ENDBRANCH   1  20
TORSDOF 7
ENDMDL
MODEL 6
REMARK VINA RESULT:      -8.0      2.213      3.284
REMARK  Name = 
REMARK  8 active torsions:
REMARK  status: ('A' for Active; 'I' for Inactive)
REMARK    1  A    between atoms: C_1  and  C_2
REMARK    2  A    between atoms: N_4  and  C_5
REMARK    3  A    between atoms: C_8  and  C_9
REMARK    4  A    between atoms: C_13  and  O_14
REMARK    5  A    between atoms: O_14  and  C_15
REMARK    6  A    between atoms: C_18  and  C_19
REMARK    7  A    between atoms: C_23  and  N_24
REMARK    8  A    between atoms: C_33  and  N_34
REMARK                            x       y       z     vdW  Elec       q    Type
REMARK                         _______ _______ _______ _____ _____    ______ ____
ROOT
ATOM      1  C   UNL     1       0.321  10.569  19.628  0.00  0.00    +0.000 A 
ATOM      2  C   UNL     1       0.148   9.792  20.776  0.00  0.00    +0.000 A 
ATOM      3  C   UNL     1       0.748   8.537  20.872  0.00  0.00    +0.000 A 
ATOM      4  C   UNL     1       1.478   8.018  19.802  0.00  0.00    +0.000 A 
ATOM      5  C   UNL     1       1.619   8.791  18.637  0.00  0.00    +0.000 A 
ATOM      6  C   UNL     1       1.047  10.061  18.553  0.00  0.00    +0.000 A 
ENDROOT
BRANCH   4   7
ATOM      7  C   UNL     1       1.993   6.657  19.883  0.00  0.00    +0.000 A 
ATOM      8  N   UNL     1       3.107   6.197  19.339  0.00  0.00    +0.000 NA
ATOM      9  C   UNL     1       3.267   4.929  19.836  0.00  0.00    +0.000 A 
ATOM     10  C   UNL     1       4.212   3.951  19.520  0.00  0.00    +0.000 A 
ATOM     11  C   UNL     1       4.009   2.700  20.127  0.00  0.00    +0.000 A 
ATOM     12  C   UNL     1       3.179   2.520  21.241  0.00  0.00    +0.000 A 
ATOM     13  C   UNL     1       2.201   3.469  21.504  0.00  0.00    +0.000 A 
ATOM     14  C   UNL     1       2.246   4.624  20.728  0.00  0.00    +0.000 A 
ATOM     15  N   UNL     1       1.367   5.658  20.583  0.00  0.00    +0.000 N 
ATOM     16  H   UNL     1       0.433   5.700  20.961  0.00  0.00    +0.000 HD
BRANCH  11  17
ATOM     17  N   UNL     1       4.152   1.513  19.276  0.00  0.00    +0.000 N 
ATOM     18  O   UNL     1       5.026   0.694  19.599  0.00  0.00    +0.000 OA
ATOM     19  O   UNL     1       3.493   1.472  18.229  0.00  0.00    +0.000 OA
ENDBRANCH  11  17
ENDBRANCH   4   7
BRANCH   1  20
ATOM     20  O   UNL     1      -0.238  11.816  19.452  0.00  0.00    +0.000 OA
BRANCH  20  25
ATOM     21  C   UNL     1      -3.818  13.057  22.641  0.00  0.00    +0.000 C 
ATOM     22  C   UNL     1      -3.053  12.698  21.416  0.00  0.00    +0.000 A 
ATOM     23  N   UNL     1      -3.654  12.305  20.283  0.00  0.00    +0.000 NA
ATOM     24  N   UNL     1      -2.633  11.978  19.419  0.00  0.00    +0.000 N 
ATOM     25  C   UNL     1      -1.389  12.152  20.040  0.00  0.00    +0.000 A 
ATOM     26  C   UNL     1      -1.659  12.714  21.273  0.00  0.00    +0.000 A 
BRANCH  24  27
ATOM     27  C   UNL     1      -2.936  11.469  18.104  0.00  0.00    +0.000 A 
ATOM     28  C   UNL     1      -2.038  10.596  17.453  0.00  0.00    +0.000 A 
ATOM     29  C   UNL     1      -2.295  10.114  16.175  0.00  0.00    +0.000 A 
ATOM     30  C   UNL     1      -3.453  10.486  15.483  0.00  0.00    +0.000 A 
ATOM     31  C   UNL     1      -4.359  11.352  16.124  0.00  0.00    +0.000 A 
ATOM     32  C   UNL     1      -4.097  11.827  17.404  0.00  0.00    +0.000 A 
BRANCH  30  33
ATOM     33  C   UNL     1      -3.709  10.010  14.158  0.00  0.00    +0.000 C 
ATOM     34  N   UNL     1      -3.912   9.630  13.085  0.00  0.00    +0.000 NA
ENDBRANCH  30  33
ENDBRANCH  24  27
BRANCH  26  35
ATOM     35  N   UNL     1      -0.704  13.143  22.239  0.00  0.00    +0.000 N 
ATOM     36  O   UNL     1      -0.416  12.334  23.130  0.00  0.00    +0.000 OA
ATOM     37  O   UNL     1      -0.262  14.291  22.116  0.00  0.00    +0.000 OA
ENDBRANCH  26  35
ENDBRANCH  20  25
ENDBRANCH   1  20
TORSDOF 7
ENDMDL
MODEL 7
REMARK VINA RESULT:      -8.0      0.430      1.317
REMARK  Name = 
REMARK  8 active torsions:
REMARK  status: ('A' for Active; 'I' for Inactive)
REMARK    1  A    between atoms: C_1  and  C_2
REMARK    2  A    between atoms: N_4  and  C_5
REMARK    3  A    between atoms: C_8  and  C_9
REMARK    4  A    between atoms: C_13  and  O_14
REMARK    5  A    between atoms: O_14  and  C_15
REMARK    6  A    between atoms: C_18  and  C_19
REMARK    7  A    between atoms: C_23  and  N_24
REMARK    8  A    between atoms: C_33  and  N_34
REMARK                            x       y       z     vdW  Elec       q    Type
REMARK                         _______ _______ _______ _____ _____    ______ ____
ROOT
ATOM      1  C   UNL     1       0.556  10.860  21.096  0.00  0.00    +0.000 A 
ATOM      2  C   UNL     1       0.618   9.831  22.039  0.00  0.00    +0.000 A 
ATOM      3  C   UNL     1       1.112   8.578  21.682  0.00  0.00    +0.000 A 
ATOM      4  C   UNL     1       1.496   8.319  20.365  0.00  0.00    +0.000 A 
ATOM      5  C   UNL     1       1.399   9.348  19.413  0.00  0.00    +0.000 A 
ATOM      6  C   UNL     1       0.935  10.613  19.779  0.00  0.00    +0.000 A 
ENDROOT
BRANCH   4   7
ATOM      7  C   UNL     1       1.897   6.968  19.991  0.00  0.00    +0.000 A 
ATOM      8  N   UNL     1       1.993   5.921  20.791  0.00  0.00    +0.000 NA
ATOM      9  C   UNL     1       2.218   4.846  19.970  0.00  0.00    +0.000 A 
ATOM     10  C   UNL     1       2.500   3.515  20.287  0.00  0.00    +0.000 A 
ATOM     11  C   UNL     1       2.811   2.690  19.192  0.00  0.00    +0.000 A 
ATOM     12  C   UNL     1       2.504   3.032  17.870  0.00  0.00    +0.000 A 
ATOM     13  C   UNL     1       2.290   4.368  17.559  0.00  0.00    +0.000 A 
ATOM     14  C   UNL     1       2.225   5.243  18.639  0.00  0.00    +0.000 A 
ATOM     15  N   UNL     1       2.212   6.607  18.706  0.00  0.00    +0.000 N 
ATOM     16  H   UNL     1       2.364   7.240  17.936  0.00  0.00    +0.000 HD
BRANCH  11  17
ATOM     17  N   UNL     1       3.962   1.792  19.338  0.00  0.00    +0.000 N 
ATOM     18  O   UNL     1       4.785   2.074  20.222  0.00  0.00    +0.000 OA
ATOM     19  O   UNL     1       4.106   0.898  18.493  0.00  0.00    +0.000 OA
ENDBRANCH  11  17
ENDBRANCH   4   7
BRANCH   1  20
ATOM     20  O   UNL     1       0.078  12.124  21.368  0.00  0.00    +0.000 OA
BRANCH  20  25
ATOM     21  C   UNL     1       1.545  16.176  18.928  0.00  0.00    +0.000 C 
ATOM     22  C   UNL     1       0.828  14.944  19.358  0.00  0.00    +0.000 A 
ATOM     23  N   UNL     1      -0.375  14.606  18.873  0.00  0.00    +0.000 NA
ATOM     24  N   UNL     1      -0.747  13.475  19.564  0.00  0.00    +0.000 N 
ATOM     25  C   UNL     1       0.234  13.128  20.502  0.00  0.00    +0.000 A 
ATOM     26  C   UNL     1       1.283  14.002  20.291  0.00  0.00    +0.000 A 
BRANCH  24  27
ATOM     27  C   UNL     1      -2.030  12.866  19.314  0.00  0.00    +0.000 A 
ATOM     28  C   UNL     1      -3.133  13.159  20.143  0.00  0.00    +0.000 A 
ATOM     29  C   UNL     1      -4.373  12.563  19.938  0.00  0.00    +0.000 A 
ATOM     30  C   UNL     1      -4.567  11.641  18.904  0.00  0.00    +0.000 A 
ATOM     31  C   UNL     1      -3.476  11.344  18.066  0.00  0.00    +0.000 A 
ATOM     32  C   UNL     1      -2.240  11.947  18.275  0.00  0.00    +0.000 A 
BRANCH  30  33
ATOM     33  C   UNL     1      -5.835  11.008  18.705  0.00  0.00    +0.000 C 
ATOM     34  N   UNL     1      -6.860  10.497  18.550  0.00  0.00    +0.000 NA
ENDBRANCH  30  33
ENDBRANCH  24  27
BRANCH  26  35
ATOM     35  N   UNL     1       2.543  13.994  20.955  0.00  0.00    +0.000 N 
ATOM     36  O   UNL     1       2.536  14.281  22.159  0.00  0.00    +0.000 OA
ATOM     37  O   UNL     1       3.534  13.722  20.270  0.00  0.00    +0.000 OA
ENDBRANCH  26  35
ENDBRANCH  20  25
ENDBRANCH   1  20
TORSDOF 7
ENDMDL
MODEL 8
REMARK VINA RESULT:      -7.9      0.753      1.296
REMARK  Name = 
REMARK  8 active torsions:
REMARK  status: ('A' for Active; 'I' for Inactive)
REMARK    1  A    between atoms: C_1  and  C_2
REMARK    2  A    between atoms: N_4  and  C_5
REMARK    3  A    between atoms: C_8  and  C_9
REMARK    4  A    between atoms: C_13  and  O_14
REMARK    5  A    between atoms: O_14  and  C_15
REMARK    6  A    between atoms: C_18  and  C_19
REMARK    7  A    between atoms: C_23  and  N_24
REMARK    8  A    between atoms: C_33  and  N_34
REMARK                            x       y       z     vdW  Elec       q    Type
REMARK                         _______ _______ _______ _____ _____    ______ ____
ROOT
ATOM      1  C   UNL     1       0.505  10.982  21.237  0.00  0.00    +0.000 A 
ATOM      2  C   UNL     1       0.928  10.637  19.951  0.00  0.00    +0.000 A 
ATOM      3  C   UNL     1       1.301   9.326  19.661  0.00  0.00    +0.000 A 
ATOM      4  C   UNL     1       1.312   8.355  20.664  0.00  0.00    +0.000 A 
ATOM      5  C   UNL     1       0.917   8.716  21.963  0.00  0.00    +0.000 A 
ATOM      6  C   UNL     1       0.512  10.022  22.246  0.00  0.00    +0.000 A 
ENDROOT
BRANCH   4   7
ATOM      7  C   UNL     1       1.819   7.022  20.362  0.00  0.00    +0.000 A 
ATOM      8  N   UNL     1       2.828   6.721  19.564  0.00  0.00    +0.000 NA
ATOM      9  C   UNL     1       3.051   5.379  19.737  0.00  0.00    +0.000 A 
ATOM     10  C   UNL     1       3.924   4.518  19.070  0.00  0.00    +0.000 A 
ATOM     11  C   UNL     1       3.805   3.159  19.409  0.00  0.00    +0.000 A 
ATOM     12  C   UNL     1       3.158   2.718  20.569  0.00  0.00    +0.000 A 
ATOM     13  C   UNL     1       2.244   3.562  21.185  0.00  0.00    +0.000 A 
ATOM     14  C   UNL     1       2.179   4.860  20.686  0.00  0.00    +0.000 A 
ATOM     15  N   UNL     1       1.299   5.879  20.912  0.00  0.00    +0.000 N 
ATOM     16  H   UNL     1       0.436   5.813  21.430  0.00  0.00    +0.000 HD
BRANCH  11  17
ATOM     17  N   UNL     1       3.801   2.193  18.304  0.00  0.00    +0.000 N 
ATOM     18  O   UNL     1       3.802   2.656  17.154  0.00  0.00    +0.000 OA
ATOM     19  O   UNL     1       3.664   0.995  18.587  0.00  0.00    +0.000 OA
ENDBRANCH  11  17
ENDBRANCH   4   7
BRANCH   1  20
ATOM     20  O   UNL     1       0.123  12.253  21.606  0.00  0.00    +0.000 OA
BRANCH  20  25
ATOM     21  C   UNL     1       1.425  16.412  19.254  0.00  0.00    +0.000 C 
ATOM     22  C   UNL     1       0.753  15.148  19.662  0.00  0.00    +0.000 A 
ATOM     23  N   UNL     1      -0.449  14.789  19.191  0.00  0.00    +0.000 NA
ATOM     24  N   UNL     1      -0.776  13.629  19.856  0.00  0.00    +0.000 N 
ATOM     25  C   UNL     1       0.233  13.285  20.765  0.00  0.00    +0.000 A 
ATOM     26  C   UNL     1       1.252  14.194  20.560  0.00  0.00    +0.000 A 
BRANCH  24  27
ATOM     27  C   UNL     1      -2.045  12.989  19.613  0.00  0.00    +0.000 A 
ATOM     28  C   UNL     1      -2.192  12.082  18.542  0.00  0.00    +0.000 A 
ATOM     29  C   UNL     1      -3.413  11.473  18.271  0.00  0.00    +0.000 A 
ATOM     30  C   UNL     1      -4.543  11.747  19.048  0.00  0.00    +0.000 A 
ATOM     31  C   UNL     1      -4.408  12.645  20.123  0.00  0.00    +0.000 A 
ATOM     32  C   UNL     1      -3.183  13.248  20.390  0.00  0.00    +0.000 A 
BRANCH  30  33
ATOM     33  C   UNL     1      -5.806  11.140  18.758  0.00  0.00    +0.000 C 
ATOM     34  N   UNL     1      -6.824  10.644  18.522  0.00  0.00    +0.000 NA
ENDBRANCH  30  33
ENDBRANCH  24  27
BRANCH  26  35
ATOM     35  N   UNL     1       2.525  14.205  21.201  0.00  0.00    +0.000 N 
ATOM     36  O   UNL     1       2.550  14.597  22.374  0.00  0.00    +0.000 OA
ATOM     37  O   UNL     1       3.494  13.843  20.525  0.00  0.00    +0.000 OA
ENDBRANCH  26  35
ENDBRANCH  20  25
ENDBRANCH   1  20
TORSDOF 7
ENDMDL
MODEL 9
REMARK VINA RESULT:      -7.9      2.570      4.777
REMARK  Name = 
REMARK  8 active torsions:
REMARK  status: ('A' for Active; 'I' for Inactive)
REMARK    1  A    between atoms: C_1  and  C_2
REMARK    2  A    between atoms: N_4  and  C_5
REMARK    3  A    between atoms: C_8  and  C_9
REMARK    4  A    between atoms: C_13  and  O_14
REMARK    5  A    between atoms: O_14  and  C_15
REMARK    6  A    between atoms: C_18  and  C_19
REMARK    7  A    between atoms: C_23  and  N_24
REMARK    8  A    between atoms: C_33  and  N_34
REMARK                            x       y       z     vdW  Elec       q    Type
REMARK                         _______ _______ _______ _____ _____    ______ ____
ROOT
ATOM      1  C   UNL     1      -0.904  11.668  20.368  0.00  0.00    +0.000 A 
ATOM      2  C   UNL     1      -0.407  11.459  19.079  0.00  0.00    +0.000 A 
ATOM      3  C   UNL     1       0.378  10.342  18.800  0.00  0.00    +0.000 A 
ATOM      4  C   UNL     1       0.726   9.451  19.817  0.00  0.00    +0.000 A 
ATOM      5  C   UNL     1       0.252   9.685  21.118  0.00  0.00    +0.000 A 
ATOM      6  C   UNL     1      -0.562  10.786  21.391  0.00  0.00    +0.000 A 
ENDROOT
BRANCH   4   7
ATOM      7  C   UNL     1       1.645   8.357  19.524  0.00  0.00    +0.000 A 
ATOM      8  N   UNL     1       1.785   7.235  20.208  0.00  0.00    +0.000 NA
ATOM      9  C   UNL     1       2.618   6.445  19.459  0.00  0.00    +0.000 A 
ATOM     10  C   UNL     1       3.184   5.203  19.751  0.00  0.00    +0.000 A 
ATOM     11  C   UNL     1       4.107   4.725  18.805  0.00  0.00    +0.000 A 
ATOM     12  C   UNL     1       4.193   5.230  17.502  0.00  0.00    +0.000 A 
ATOM     13  C   UNL     1       3.684   6.495  17.243  0.00  0.00    +0.000 A 
ATOM     14  C   UNL     1       2.965   7.087  18.277  0.00  0.00    +0.000 A 
ATOM     15  N   UNL     1       2.490   8.356  18.444  0.00  0.00    +0.000 N 
ATOM     16  H   UNL     1       2.691   9.148  17.852  0.00  0.00    +0.000 HD
BRANCH  11  17
ATOM     17  N   UNL     1       5.357   4.155  19.321  0.00  0.00    +0.000 N 
ATOM     18  O   UNL     1       5.305   2.997  19.762  0.00  0.00    +0.000 OA
ATOM     19  O   UNL     1       6.340   4.903  19.405  0.00  0.00    +0.000 OA
ENDBRANCH  11  17
ENDBRANCH   4   7
BRANCH   1  20
ATOM     20  O   UNL     1      -1.683  12.746  20.726  0.00  0.00    +0.000 OA
BRANCH  20  25
ATOM     21  C   UNL     1      -2.007  15.136  25.051  0.00  0.00    +0.000 C 
ATOM     22  C   UNL     1      -1.518  14.537  23.779  0.00  0.00    +0.000 A 
ATOM     23  N   UNL     1      -0.350  14.887  23.223  0.00  0.00    +0.000 NA
ATOM     24  N   UNL     1      -0.288  14.201  22.031  0.00  0.00    +0.000 N 
ATOM     25  C   UNL     1      -1.447  13.435  21.845  0.00  0.00    +0.000 A 
ATOM     26  C   UNL     1      -2.177  13.568  23.010  0.00  0.00    +0.000 A 
BRANCH  24  27
ATOM     27  C   UNL     1       0.838  14.384  21.149  0.00  0.00    +0.000 A 
ATOM     28  C   UNL     1       0.731  15.225  20.021  0.00  0.00    +0.000 A 
ATOM     29  C   UNL     1       1.794  15.397  19.141  0.00  0.00    +0.000 A 
ATOM     30  C   UNL     1       3.009  14.732  19.340  0.00  0.00    +0.000 A 
ATOM     31  C   UNL     1       3.130  13.894  20.465  0.00  0.00    +0.000 A 
ATOM     32  C   UNL     1       2.064  13.731  21.342  0.00  0.00    +0.000 A 
BRANCH  30  33
ATOM     33  C   UNL     1       4.097  14.888  18.424  0.00  0.00    +0.000 C 
ATOM     34  N   UNL     1       4.972  15.016  17.680  0.00  0.00    +0.000 NA
ENDBRANCH  30  33
ENDBRANCH  24  27
BRANCH  26  35
ATOM     35  N   UNL     1      -3.402  12.912  23.326  0.00  0.00    +0.000 N 
ATOM     36  O   UNL     1      -4.443  13.532  23.074  0.00  0.00    +0.000 OA
ATOM     37  O   UNL     1      -3.319  11.793  23.842  0.00  0.00    +0.000 OA
ENDBRANCH  26  35
ENDBRANCH  20  25
ENDBRANCH   1  20
TORSDOF 7
ENDMDL
