MODEL 1
REMARK VINA RESULT:      -7.8      0.000      0.000
REMARK  Name = 
REMARK  8 active torsions:
REMARK  status: ('A' for Active; 'I' for Inactive)
REMARK    1  A    between atoms: C_1  and  O_2
REMARK    2  A    between atoms: O_2  and  C_3
REMARK    3  A    between atoms: C_7  and  C_8
REMARK    4  A    between atoms: C_13  and  O_14
REMARK    5  A    between atoms: C_15  and  C_16
REMARK    6  A    between atoms: C_16  and  C_17
REMARK    7  A    between atoms: C_17  and  C_18
REMARK    8  A    between atoms: C_17  and  C_19
REMARK                            x       y       z     vdW  Elec       q    Type
REMARK                         _______ _______ _______ _____ _____    ______ ____
ROOT
ATOM      1  C   UNL     1       4.081   4.524  18.931  0.00  0.00    +0.000 A 
ATOM      2  C   UNL     1       3.205   5.108  19.860  0.00  0.00    +0.000 A 
ATOM      3  C   UNL     1       2.640   6.349  19.630  0.00  0.00    +0.000 A 
ATOM      4  O   UNL     1       1.830   6.840  20.614  0.00  0.00    +0.000 OA
ATOM      5  C   UNL     1       1.313   8.114  20.464  0.00  0.00    +0.000 A 
ATOM      6  C   UNL     1       0.465   8.563  21.612  0.00  0.00    +0.000 C 
ATOM      7  C   UNL     1       1.548   8.889  19.402  0.00  0.00    +0.000 A 
ATOM      8  C   UNL     1       2.385   8.370  18.306  0.00  0.00    +0.000 A 
ATOM      9  O   UNL     1       2.617   9.042  17.308  0.00  0.00    +0.000 OA
ATOM     10  C   UNL     1       2.941   7.024  18.459  0.00  0.00    +0.000 A 
ATOM     11  C   UNL     1       3.743   6.420  17.475  0.00  0.00    +0.000 A 
ATOM     12  C   UNL     1       4.284   5.126  17.672  0.00  0.00    +0.000 A 
ENDROOT
BRANCH   1  14
ATOM     13  C   UNL     1       3.891   2.226  19.397  0.00  0.00    +0.000 C 
ATOM     14  O   UNL     1       4.753   3.364  19.237  0.00  0.00    +0.000 OA
ENDBRANCH   1  14
BRANCH  11  15
ATOM     15  O   UNL     1       4.032   7.063  16.297  0.00  0.00    +0.000 OA
ATOM     16  H   UNL     1       4.406   7.947  16.512  0.00  0.00    +0.000 HD
ENDBRANCH  11  15
BRANCH  12  17
ATOM     17  C   UNL     1       4.966   4.402  16.511  0.00  0.00    +0.000 C 
BRANCH  17  18
ATOM     18  C   UNL     1       6.507   4.455  16.427  0.00  0.00    +0.000 C 
ATOM     19  C   UNL     1       7.012   4.532  14.984  0.00  0.00    +0.000 C 
BRANCH  18  20
ATOM     20  C   UNL     1       7.059   5.623  17.210  0.00  0.00    +0.000 A 
ATOM     21  C   UNL     1       7.629   5.740  18.463  0.00  0.00    +0.000 A 
ATOM     22  C   UNL     1       8.021   7.095  18.608  0.00  0.00    +0.000 A 
ATOM     23  C   UNL     1       7.652   7.724  17.444  0.00  0.00    +0.000 A 
ATOM     24  O   UNL     1       7.065   6.843  16.592  0.00  0.00    +0.000 OA
ENDBRANCH  18  20
ENDBRANCH  17  18
ENDBRANCH  12  17
TORSDOF 5
ENDMDL
MODEL 2
REMARK VINA RESULT:      -7.4      1.199      2.299
REMARK  Name = 
REMARK  8 active torsions:
REMARK  status: ('A' for Active; 'I' for Inactive)
REMARK    1  A    between atoms: C_1  and  O_2
REMARK    2  A    between atoms: O_2  and  C_3
REMARK    3  A    between atoms: C_7  and  C_8
REMARK    4  A    between atoms: C_13  and  O_14
REMARK    5  A    between atoms: C_15  and  C_16
REMARK    6  A    between atoms: C_16  and  C_17
REMARK    7  A    between atoms: C_17  and  C_18
REMARK    8  A    between atoms: C_17  and  C_19
REMARK                            x       y       z     vdW  Elec       q    Type
REMARK                         _______ _______ _______ _____ _____    ______ ____
ROOT
ATOM      1  C   UNL     1       4.059   4.708  19.041  0.00  0.00    +0.000 A 
ATOM      2  C   UNL     1       3.152   5.267  19.954  0.00  0.00    +0.000 A 
ATOM      3  C   UNL     1       2.547   6.486  19.708  0.00  0.00    +0.000 A 
ATOM      4  O   UNL     1       1.708   6.956  20.677  0.00  0.00    +0.000 OA
ATOM      5  C   UNL     1       1.148   8.210  20.511  0.00  0.00    +0.000 A 
ATOM      6  C   UNL     1       0.271   8.637  21.644  0.00  0.00    +0.000 C 
ATOM      7  C   UNL     1       1.370   8.984  19.446  0.00  0.00    +0.000 A 
ATOM      8  C   UNL     1       2.237   8.487  18.364  0.00  0.00    +0.000 A 
ATOM      9  O   UNL     1       2.459   9.160  17.364  0.00  0.00    +0.000 OA
ATOM     10  C   UNL     1       2.839   7.163  18.534  0.00  0.00    +0.000 A 
ATOM     11  C   UNL     1       3.673   6.580  17.565  0.00  0.00    +0.000 A 
ATOM     12  C   UNL     1       4.257   5.307  17.779  0.00  0.00    +0.000 A 
ENDROOT
BRANCH   1  14
ATOM     13  C   UNL     1       3.950   2.517  19.890  0.00  0.00    +0.000 C 
ATOM     14  O   UNL     1       4.767   3.574  19.364  0.00  0.00    +0.000 OA
ENDBRANCH   1  14
BRANCH  11  15
ATOM     15  O   UNL     1       3.955   7.223  16.386  0.00  0.00    +0.000 OA
ATOM     16  H   UNL     1       4.749   6.802  15.987  0.00  0.00    +0.000 HD
ENDBRANCH  11  15
BRANCH  12  17
ATOM     17  C   UNL     1       4.978   4.599  16.633  0.00  0.00    +0.000 C 
BRANCH  17  18
ATOM     18  C   UNL     1       6.376   5.113  16.226  0.00  0.00    +0.000 C 
ATOM     19  C   UNL     1       7.487   4.565  17.126  0.00  0.00    +0.000 C 
BRANCH  18  20
ATOM     20  C   UNL     1       6.689   4.772  14.788  0.00  0.00    +0.000 A 
ATOM     21  C   UNL     1       6.127   3.898  13.877  0.00  0.00    +0.000 A 
ATOM     22  C   UNL     1       6.819   4.083  12.653  0.00  0.00    +0.000 A 
ATOM     23  C   UNL     1       7.769   5.046  12.896  0.00  0.00    +0.000 A 
ATOM     24  O   UNL     1       7.702   5.466  14.186  0.00  0.00    +0.000 OA
ENDBRANCH  18  20
ENDBRANCH  17  18
ENDBRANCH  12  17
TORSDOF 5
ENDMDL
MODEL 3
REMARK VINA RESULT:      -7.0      1.099      1.285
REMARK  Name = 
REMARK  8 active torsions:
REMARK  status: ('A' for Active; 'I' for Inactive)
REMARK    1  A    between atoms: C_1  and  O_2
REMARK    2  A    between atoms: O_2  and  C_3
REMARK    3  A    between atoms: C_7  and  C_8
REMARK    4  A    between atoms: C_13  and  O_14
REMARK    5  A    between atoms: C_15  and  C_16
REMARK    6  A    between atoms: C_16  and  C_17
REMARK    7  A    between atoms: C_17  and  C_18
REMARK    8  A    between atoms: C_17  and  C_19
REMARK                            x       y       z     vdW  Elec       q    Type
REMARK                         _______ _______ _______ _____ _____    ______ ____
ROOT
ATOM      1  C   UNL     1       3.241   4.964  19.266  0.00  0.00    +0.000 A 
ATOM      2  C   UNL     1       2.421   5.559  20.237  0.00  0.00    +0.000 A 
ATOM      3  C   UNL     1       1.960   6.854  20.089  0.00  0.00    +0.000 A 
ATOM      4  O   UNL     1       1.197   7.349  21.108  0.00  0.00    +0.000 OA
ATOM      5  C   UNL     1       0.787   8.668  21.041  0.00  0.00    +0.000 A 
ATOM      6  C   UNL     1      -0.016   9.113  22.222  0.00  0.00    +0.000 C 
ATOM      7  C   UNL     1       1.081   9.485  20.027  0.00  0.00    +0.000 A 
ATOM      8  C   UNL     1       1.867   8.968  18.893  0.00  0.00    +0.000 A 
ATOM      9  O   UNL     1       2.150   9.679  17.937  0.00  0.00    +0.000 OA
ATOM     10  C   UNL     1       2.311   7.573  18.958  0.00  0.00    +0.000 A 
ATOM     11  C   UNL     1       3.056   6.967  17.931  0.00  0.00    +0.000 A 
ATOM     12  C   UNL     1       3.488   5.624  18.043  0.00  0.00    +0.000 A 
ENDROOT
BRANCH   1  14
ATOM     13  C   UNL     1       2.861   2.675  19.651  0.00  0.00    +0.000 C 
ATOM     14  O   UNL     1       3.816   3.736  19.493  0.00  0.00    +0.000 OA
ENDBRANCH   1  14
BRANCH  11  15
ATOM     15  O   UNL     1       3.392   7.656  16.793  0.00  0.00    +0.000 OA
ATOM     16  H   UNL     1       2.640   7.596  16.162  0.00  0.00    +0.000 HD
ENDBRANCH  11  15
BRANCH  12  17
ATOM     17  C   UNL     1       4.103   4.919  16.835  0.00  0.00    +0.000 C 
BRANCH  17  18
ATOM     18  C   UNL     1       5.496   4.273  17.001  0.00  0.00    +0.000 C 
ATOM     19  C   UNL     1       6.062   3.753  15.677  0.00  0.00    +0.000 C 
BRANCH  18  20
ATOM     20  C   UNL     1       6.479   5.240  17.617  0.00  0.00    +0.000 A 
ATOM     21  C   UNL     1       6.955   6.480  17.236  0.00  0.00    +0.000 A 
ATOM     22  C   UNL     1       7.812   6.925  18.275  0.00  0.00    +0.000 A 
ATOM     23  C   UNL     1       7.819   5.924  19.216  0.00  0.00    +0.000 A 
ATOM     24  O   UNL     1       7.020   4.898  18.826  0.00  0.00    +0.000 OA
ENDBRANCH  18  20
ENDBRANCH  17  18
ENDBRANCH  12  17
TORSDOF 5
ENDMDL
MODEL 4
REMARK VINA RESULT:      -6.9      1.393      2.345
REMARK  Name = 
REMARK  8 active torsions:
REMARK  status: ('A' for Active; 'I' for Inactive)
REMARK    1  A    between atoms: C_1  and  O_2
REMARK    2  A    between atoms: O_2  and  C_3
REMARK    3  A    between atoms: C_7  and  C_8
REMARK    4  A    between atoms: C_13  and  O_14
REMARK    5  A    between atoms: C_15  and  C_16
REMARK    6  A    between atoms: C_16  and  C_17
REMARK    7  A    between atoms: C_17  and  C_18
REMARK    8  A    between atoms: C_17  and  C_19
REMARK                            x       y       z     vdW  Elec       q    Type
REMARK                         _______ _______ _______ _____ _____    ______ ____
ROOT
ATOM      1  C   UNL     1       3.236   5.197  19.481  0.00  0.00    +0.000 A 
ATOM      2  C   UNL     1       2.350   5.772  20.406  0.00  0.00    +0.000 A 
ATOM      3  C   UNL     1       1.832   7.039  20.209  0.00  0.00    +0.000 A 
ATOM      4  O   UNL     1       1.007   7.519  21.185  0.00  0.00    +0.000 OA
ATOM      5  C   UNL     1       0.537   8.814  21.071  0.00  0.00    +0.000 A 
ATOM      6  C   UNL     1      -0.333   9.245  22.209  0.00  0.00    +0.000 C 
ATOM      7  C   UNL     1       0.830   9.621  20.049  0.00  0.00    +0.000 A 
ATOM      8  C   UNL     1       1.684   9.118  18.959  0.00  0.00    +0.000 A 
ATOM      9  O   UNL     1       1.970   9.821  17.997  0.00  0.00    +0.000 OA
ATOM     10  C   UNL     1       2.192   7.749  19.075  0.00  0.00    +0.000 A 
ATOM     11  C   UNL     1       3.006   7.158  18.092  0.00  0.00    +0.000 A 
ATOM     12  C   UNL     1       3.498   5.840  18.254  0.00  0.00    +0.000 A 
ENDROOT
BRANCH   1  14
ATOM     13  C   UNL     1       3.037   3.082  20.492  0.00  0.00    +0.000 C 
ATOM     14  O   UNL     1       3.860   4.004  19.761  0.00  0.00    +0.000 OA
ENDBRANCH   1  14
BRANCH  11  15
ATOM     15  O   UNL     1       3.353   7.836  16.951  0.00  0.00    +0.000 OA
ATOM     16  H   UNL     1       4.028   8.512  17.186  0.00  0.00    +0.000 HD
ENDBRANCH  11  15
BRANCH  12  17
ATOM     17  C   UNL     1       4.194   5.140  17.087  0.00  0.00    +0.000 C 
BRANCH  17  18
ATOM     18  C   UNL     1       5.683   5.459  16.831  0.00  0.00    +0.000 C 
ATOM     19  C   UNL     1       6.601   4.870  17.905  0.00  0.00    +0.000 C 
BRANCH  18  20
ATOM     20  C   UNL     1       6.124   4.964  15.474  0.00  0.00    +0.000 A 
ATOM     21  C   UNL     1       5.572   4.088  14.559  0.00  0.00    +0.000 A 
ATOM     22  C   UNL     1       6.428   4.087  13.427  0.00  0.00    +0.000 A 
ATOM     23  C   UNL     1       7.456   4.948  13.728  0.00  0.00    +0.000 A 
ATOM     24  O   UNL     1       7.284   5.481  14.966  0.00  0.00    +0.000 OA
ENDBRANCH  18  20
ENDBRANCH  17  18
ENDBRANCH  12  17
TORSDOF 5
ENDMDL
MODEL 5
REMARK VINA RESULT:      -6.8      1.649      3.839
REMARK  Name = 
REMARK  8 active torsions:
REMARK  status: ('A' for Active; 'I' for Inactive)
REMARK    1  A    between atoms: C_1  and  O_2
REMARK    2  A    between atoms: O_2  and  C_3
REMARK    3  A    between atoms: C_7  and  C_8
REMARK    4  A    between atoms: C_13  and  O_14
REMARK    5  A    between atoms: C_15  and  C_16
REMARK    6  A    between atoms: C_16  and  C_17
REMARK    7  A    between atoms: C_17  and  C_18
REMARK    8  A    between atoms: C_17  and  C_19
REMARK                            x       y       z     vdW  Elec       q    Type
REMARK                         _______ _______ _______ _____ _____    ______ ____
ROOT
ATOM      1  C   UNL     1       3.476   6.282  17.985  0.00  0.00    +0.000 A 
ATOM      2  C   UNL     1       2.840   5.850  19.160  0.00  0.00    +0.000 A 
ATOM      3  C   UNL     1       2.750   4.507  19.473  0.00  0.00    +0.000 A 
ATOM      4  O   UNL     1       2.080   4.192  20.621  0.00  0.00    +0.000 OA
ATOM      5  C   UNL     1       1.892   2.857  20.927  0.00  0.00    +0.000 A 
ATOM      6  C   UNL     1       1.122   2.628  22.189  0.00  0.00    +0.000 C 
ATOM      7  C   UNL     1       2.341   1.853  20.171  0.00  0.00    +0.000 A 
ATOM      8  C   UNL     1       3.103   2.160  18.948  0.00  0.00    +0.000 A 
ATOM      9  O   UNL     1       3.544   1.270  18.231  0.00  0.00    +0.000 OA
ATOM     10  C   UNL     1       3.303   3.572  18.613  0.00  0.00    +0.000 A 
ATOM     11  C   UNL     1       4.022   3.986  17.478  0.00  0.00    +0.000 A 
ATOM     12  C   UNL     1       4.171   5.361  17.174  0.00  0.00    +0.000 A 
ENDROOT
BRANCH   1  14
ATOM     13  C   UNL     1       2.181   8.245  17.924  0.00  0.00    +0.000 C 
ATOM     14  O   UNL     1       3.427   7.604  17.610  0.00  0.00    +0.000 OA
ENDBRANCH   1  14
BRANCH  11  15
ATOM     15  O   UNL     1       4.598   3.076  16.628  0.00  0.00    +0.000 OA
ATOM     16  H   UNL     1       5.574   3.117  16.746  0.00  0.00    +0.000 HD
ENDBRANCH  11  15
BRANCH  12  17
ATOM     17  C   UNL     1       5.132   5.796  16.069  0.00  0.00    +0.000 C 
BRANCH  17  18
ATOM     18  C   UNL     1       6.636   5.498  16.254  0.00  0.00    +0.000 C 
ATOM     19  C   UNL     1       7.400   5.494  14.928  0.00  0.00    +0.000 C 
BRANCH  18  20
ATOM     20  C   UNL     1       7.279   6.489  17.196  0.00  0.00    +0.000 A 
ATOM     21  C   UNL     1       7.895   6.366  18.427  0.00  0.00    +0.000 A 
ATOM     22  C   UNL     1       8.368   7.656  18.777  0.00  0.00    +0.000 A 
ATOM     23  C   UNL     1       7.999   8.489  17.748  0.00  0.00    +0.000 A 
ATOM     24  O   UNL     1       7.335   7.794  16.788  0.00  0.00    +0.000 OA
ENDBRANCH  18  20
ENDBRANCH  17  18
ENDBRANCH  12  17
TORSDOF 5
ENDMDL
MODEL 6
REMARK VINA RESULT:      -6.7      2.441      4.982
REMARK  Name = 
REMARK  8 active torsions:
REMARK  status: ('A' for Active; 'I' for Inactive)
REMARK    1  A    between atoms: C_1  and  O_2
REMARK    2  A    between atoms: O_2  and  C_3
REMARK    3  A    between atoms: C_7  and  C_8
REMARK    4  A    between atoms: C_13  and  O_14
REMARK    5  A    between atoms: C_15  and  C_16
REMARK    6  A    between atoms: C_16  and  C_17
REMARK    7  A    between atoms: C_17  and  C_18
REMARK    8  A    between atoms: C_17  and  C_19
REMARK                            x       y       z     vdW  Elec       q    Type
REMARK                         _______ _______ _______ _____ _____    ______ ____
ROOT
ATOM      1  C   UNL     1       6.103   6.080  16.937  0.00  0.00    +0.000 A 
ATOM      2  C   UNL     1       5.306   6.145  18.091  0.00  0.00    +0.000 A 
ATOM      3  C   UNL     1       4.539   5.067  18.494  0.00  0.00    +0.000 A 
ATOM      4  O   UNL     1       3.775   5.247  19.611  0.00  0.00    +0.000 OA
ATOM      5  C   UNL     1       2.927   4.225  19.999  0.00  0.00    +0.000 A 
ATOM      6  C   UNL     1       2.117   4.540  21.216  0.00  0.00    +0.000 C 
ATOM      7  C   UNL     1       2.824   3.062  19.351  0.00  0.00    +0.000 A 
ATOM      8  C   UNL     1       3.667   2.822  18.167  0.00  0.00    +0.000 A 
ATOM      9  O   UNL     1       3.613   1.765  17.549  0.00  0.00    +0.000 OA
ATOM     10  C   UNL     1       4.563   3.901  17.745  0.00  0.00    +0.000 A 
ATOM     11  C   UNL     1       5.421   3.783  16.638  0.00  0.00    +0.000 A 
ATOM     12  C   UNL     1       6.254   4.860  16.246  0.00  0.00    +0.000 A 
ENDROOT
BRANCH   1  14
ATOM     13  C   UNL     1       7.572   7.847  17.443  0.00  0.00    +0.000 C 
ATOM     14  O   UNL     1       6.740   7.203  16.464  0.00  0.00    +0.000 OA
ENDBRANCH   1  14
BRANCH  11  15
ATOM     15  O   UNL     1       5.477   2.629  15.899  0.00  0.00    +0.000 OA
ATOM     16  H   UNL     1       5.934   2.827  15.050  0.00  0.00    +0.000 HD
ENDBRANCH  11  15
BRANCH  12  17
ATOM     17  C   UNL     1       7.330   4.641  15.184  0.00  0.00    +0.000 C 
BRANCH  17  18
ATOM     18  C   UNL     1       7.063   5.172  13.759  0.00  0.00    +0.000 C 
ATOM     19  C   UNL     1       8.340   5.651  13.064  0.00  0.00    +0.000 C 
BRANCH  18  20
ATOM     20  C   UNL     1       6.394   4.125  12.900  0.00  0.00    +0.000 A 
ATOM     21  C   UNL     1       6.873   3.147  12.050  0.00  0.00    +0.000 A 
ATOM     22  C   UNL     1       5.746   2.422  11.585  0.00  0.00    +0.000 A 
ATOM     23  C   UNL     1       4.649   3.011  12.166  0.00  0.00    +0.000 A 
ATOM     24  O   UNL     1       5.029   4.046  12.960  0.00  0.00    +0.000 OA
ENDBRANCH  18  20
ENDBRANCH  17  18
ENDBRANCH  12  17
TORSDOF 5
ENDMDL
MODEL 7
REMARK VINA RESULT:      -6.7      1.923      6.179
REMARK  Name = 
REMARK  8 active torsions:
REMARK  status: ('A' for Active; 'I' for Inactive)
REMARK    1  A    between atoms: C_1  and  O_2
REMARK    2  A    between atoms: O_2  and  C_3
REMARK    3  A    between atoms: C_7  and  C_8
REMARK    4  A    between atoms: C_13  and  O_14
REMARK    5  A    between atoms: C_15  and  C_16
REMARK    6  A    between atoms: C_16  and  C_17
REMARK    7  A    between atoms: C_17  and  C_18
REMARK    8  A    between atoms: C_17  and  C_19
REMARK                            x       y       z     vdW  Elec       q    Type
REMARK                         _______ _______ _______ _____ _____    ______ ____
ROOT
ATOM      1  C   UNL     1       3.350   6.441  17.912  0.00  0.00    +0.000 A 
ATOM      2  C   UNL     1       3.920   6.340  16.634  0.00  0.00    +0.000 A 
ATOM      3  C   UNL     1       5.151   5.740  16.443  0.00  0.00    +0.000 A 
ATOM      4  O   UNL     1       5.631   5.726  15.165  0.00  0.00    +0.000 OA
ATOM      5  C   UNL     1       6.896   5.212  14.943  0.00  0.00    +0.000 A 
ATOM      6  C   UNL     1       7.331   5.273  13.513  0.00  0.00    +0.000 C 
ATOM      7  C   UNL     1       7.672   4.713  15.907  0.00  0.00    +0.000 A 
ATOM      8  C   UNL     1       7.166   4.677  17.290  0.00  0.00    +0.000 A 
ATOM      9  O   UNL     1       7.840   4.218  18.204  0.00  0.00    +0.000 OA
ATOM     10  C   UNL     1       5.829   5.224  17.536  0.00  0.00    +0.000 A 
ATOM     11  C   UNL     1       5.237   5.233  18.811  0.00  0.00    +0.000 A 
ATOM     12  C   UNL     1       3.953   5.795  19.012  0.00  0.00    +0.000 A 
ENDROOT
BRANCH   1  14
ATOM     13  C   UNL     1       2.341   8.562  17.778  0.00  0.00    +0.000 C 
ATOM     14  O   UNL     1       2.202   7.171  18.110  0.00  0.00    +0.000 OA
ENDBRANCH   1  14
BRANCH  11  15
ATOM     15  O   UNL     1       5.883   4.704  19.900  0.00  0.00    +0.000 OA
ATOM     16  H   UNL     1       6.587   4.098  19.578  0.00  0.00    +0.000 HD
ENDBRANCH  11  15
BRANCH  12  17
ATOM     17  C   UNL     1       3.239   5.601  20.349  0.00  0.00    +0.000 C 
BRANCH  17  18
ATOM     18  C   UNL     1       2.294   4.389  20.499  0.00  0.00    +0.000 C 
ATOM     19  C   UNL     1       0.817   4.784  20.413  0.00  0.00    +0.000 C 
BRANCH  18  20
ATOM     20  C   UNL     1       2.586   3.334  19.459  0.00  0.00    +0.000 A 
ATOM     21  C   UNL     1       2.054   3.055  18.214  0.00  0.00    +0.000 A 
ATOM     22  C   UNL     1       2.803   1.974  17.683  0.00  0.00    +0.000 A 
ATOM     23  C   UNL     1       3.733   1.649  18.640  0.00  0.00    +0.000 A 
ATOM     24  O   UNL     1       3.608   2.463  19.721  0.00  0.00    +0.000 OA
ENDBRANCH  18  20
ENDBRANCH  17  18
ENDBRANCH  12  17
TORSDOF 5
ENDMDL
MODEL 8
REMARK VINA RESULT:      -6.7      1.914      5.560
REMARK  Name = 
REMARK  8 active torsions:
REMARK  status: ('A' for Active; 'I' for Inactive)
REMARK    1  A    between atoms: C_1  and  O_2
REMARK    2  A    between atoms: O_2  and  C_3
REMARK    3  A    between atoms: C_7  and  C_8
REMARK    4  A    between atoms: C_13  and  O_14
REMARK    5  A    between atoms: C_15  and  C_16
REMARK    6  A    between atoms: C_16  and  C_17
REMARK    7  A    between atoms: C_17  and  C_18
REMARK    8  A    between atoms: C_17  and  C_19
REMARK                            x       y       z     vdW  Elec       q    Type
REMARK                         _______ _______ _______ _____ _____    ______ ____
ROOT
ATOM      1  C   UNL     1       3.134   5.459  18.194  0.00  0.00    +0.000 A 
ATOM      2  C   UNL     1       3.952   6.599  18.241  0.00  0.00    +0.000 A 
ATOM      3  C   UNL     1       5.244   6.575  17.749  0.00  0.00    +0.000 A 
ATOM      4  O   UNL     1       5.966   7.727  17.875  0.00  0.00    +0.000 OA
ATOM      5  C   UNL     1       7.290   7.721  17.475  0.00  0.00    +0.000 A 
ATOM      6  C   UNL     1       7.992   9.024  17.686  0.00  0.00    +0.000 C 
ATOM      7  C   UNL     1       7.901   6.654  16.956  0.00  0.00    +0.000 A 
ATOM      8  C   UNL     1       7.137   5.408  16.768  0.00  0.00    +0.000 A 
ATOM      9  O   UNL     1       7.655   4.409  16.285  0.00  0.00    +0.000 OA
ATOM     10  C   UNL     1       5.736   5.404  17.195  0.00  0.00    +0.000 A 
ATOM     11  C   UNL     1       4.906   4.278  17.055  0.00  0.00    +0.000 A 
ATOM     12  C   UNL     1       3.563   4.306  17.504  0.00  0.00    +0.000 A 
ENDROOT
BRANCH   1  14
ATOM     13  C   UNL     1       1.890   6.189  20.052  0.00  0.00    +0.000 C 
ATOM     14  O   UNL     1       1.910   5.451  18.820  0.00  0.00    +0.000 OA
ENDBRANCH   1  14
BRANCH  11  15
ATOM     15  O   UNL     1       5.367   3.118  16.486  0.00  0.00    +0.000 OA
ATOM     16  H   UNL     1       5.355   3.227  15.509  0.00  0.00    +0.000 HD
ENDBRANCH  11  15
BRANCH  12  17
ATOM     17  C   UNL     1       2.618   3.158  17.149  0.00  0.00    +0.000 C 
BRANCH  17  18
ATOM     18  C   UNL     1       2.560   1.944  18.101  0.00  0.00    +0.000 C 
ATOM     19  C   UNL     1       3.888   1.184  18.163  0.00  0.00    +0.000 C 
BRANCH  18  20
ATOM     20  C   UNL     1       2.161   2.361  19.497  0.00  0.00    +0.000 A 
ATOM     21  C   UNL     1       0.942   2.589  20.107  0.00  0.00    +0.000 A 
ATOM     22  C   UNL     1       1.215   2.886  21.467  0.00  0.00    +0.000 A 
ATOM     23  C   UNL     1       2.582   2.835  21.600  0.00  0.00    +0.000 A 
ATOM     24  O   UNL     1       3.164   2.523  20.413  0.00  0.00    +0.000 OA
ENDBRANCH  18  20
ENDBRANCH  17  18
ENDBRANCH  12  17
TORSDOF 5
ENDMDL
MODEL 9
REMARK VINA RESULT:      -6.7      1.696      3.936
REMARK  Name = 
REMARK  8 active torsions:
REMARK  status: ('A' for Active; 'I' for Inactive)
REMARK    1  A    between atoms: C_1  and  O_2
REMARK    2  A    between atoms: O_2  and  C_3
REMARK    3  A    between atoms: C_7  and  C_8
REMARK    4  A    between atoms: C_13  and  O_14
REMARK    5  A    between atoms: C_15  and  C_16
REMARK    6  A    between atoms: C_16  and  C_17
REMARK    7  A    between atoms: C_17  and  C_18
REMARK    8  A    between atoms: C_17  and  C_19
REMARK                            x       y       z     vdW  Elec       q    Type
REMARK                         _______ _______ _______ _____ _____    ______ ____
ROOT
ATOM      1  C   UNL     1       3.546   6.103  17.777  0.00  0.00    +0.000 A 
ATOM      2  C   UNL     1       2.930   5.755  18.989  0.00  0.00    +0.000 A 
ATOM      3  C   UNL     1       2.831   4.436  19.390  0.00  0.00    +0.000 A 
ATOM      4  O   UNL     1       2.183   4.205  20.569  0.00  0.00    +0.000 OA
ATOM      5  C   UNL     1       1.985   2.894  20.965  0.00  0.00    +0.000 A 
ATOM      6  C   UNL     1       1.240   2.757  22.255  0.00  0.00    +0.000 C 
ATOM      7  C   UNL     1       2.407   1.838  20.266  0.00  0.00    +0.000 A 
ATOM      8  C   UNL     1       3.146   2.056  19.010  0.00  0.00    +0.000 A 
ATOM      9  O   UNL     1       3.561   1.116  18.343  0.00  0.00    +0.000 OA
ATOM     10  C   UNL     1       3.355   3.441  18.580  0.00  0.00    +0.000 A 
ATOM     11  C   UNL     1       4.054   3.772  17.407  0.00  0.00    +0.000 A 
ATOM     12  C   UNL     1       4.212   5.122  17.012  0.00  0.00    +0.000 A 
ENDROOT
BRANCH   1  14
ATOM     13  C   UNL     1       2.472   8.191  17.925  0.00  0.00    +0.000 C 
ATOM     14  O   UNL     1       3.504   7.398  17.317  0.00  0.00    +0.000 OA
ENDBRANCH   1  14
BRANCH  11  15
ATOM     15  O   UNL     1       4.601   2.802  16.605  0.00  0.00    +0.000 OA
ATOM     16  H   UNL     1       5.318   2.354  17.108  0.00  0.00    +0.000 HD
ENDBRANCH  11  15
BRANCH  12  17
ATOM     17  C   UNL     1       5.155   5.473  15.861  0.00  0.00    +0.000 C 
BRANCH  17  18
ATOM     18  C   UNL     1       6.639   5.065  15.987  0.00  0.00    +0.000 C 
ATOM     19  C   UNL     1       7.447   5.400  14.731  0.00  0.00    +0.000 C 
BRANCH  18  20
ATOM     20  C   UNL     1       7.287   5.719  17.184  0.00  0.00    +0.000 A 
ATOM     21  C   UNL     1       7.647   7.022  17.474  0.00  0.00    +0.000 A 
ATOM     22  C   UNL     1       8.151   7.020  18.800  0.00  0.00    +0.000 A 
ATOM     23  C   UNL     1       8.083   5.717  19.231  0.00  0.00    +0.000 A 
ATOM     24  O   UNL     1       7.566   4.921  18.260  0.00  0.00    +0.000 OA
ENDBRANCH  18  20
ENDBRANCH  17  18
ENDBRANCH  12  17
TORSDOF 5
ENDMDL
