MODEL 1
REMARK VINA RESULT:      -6.9      0.000      0.000
REMARK  Name = 
REMARK  9 active torsions:
REMARK  status: ('A' for Active; 'I' for Inactive)
REMARK    1  A    between atoms: C_1  and  O_2
REMARK    2  A    between atoms: O_2  and  C_3
REMARK    3  A    between atoms: C_3  and  C_4
REMARK    4  A    between atoms: C_7  and  C_8
REMARK    5  A    between atoms: C_8  and  N_9
REMARK    6  A    between atoms: N_9  and  C_10
REMARK    7  A    between atoms: N_9  and  C_11
REMARK    8  A    between atoms: C_11  and  C_12
REMARK    9  A    between atoms: C_15  and  C_16
REMARK                            x       y       z     vdW  Elec       q    Type
REMARK                         _______ _______ _______ _____ _____    ______ ____
ROOT
ATOM      1  N   UNL     1       6.611   5.961  17.963  0.00  0.00    +0.000 NA
ATOM      2  C   UNL     1       7.553   7.086  17.894  0.00  0.00    +0.000 C 
ENDROOT
BRANCH   1   3
ATOM      3  C   UNL     1       7.181   4.750  17.326  0.00  0.00    +0.000 C 
BRANCH   3   7
ATOM      4  C   UNL     1       6.493   4.150  13.878  0.00  0.00    +0.000 A 
ATOM      5  N   UNL     1       7.358   5.164  13.739  0.00  0.00    +0.000 NA
ATOM      6  O   UNL     1       7.662   5.509  15.060  0.00  0.00    +0.000 OA
ATOM      7  C   UNL     1       6.958   4.650  15.855  0.00  0.00    +0.000 A 
ATOM      8  N   UNL     1       6.231   3.787  15.180  0.00  0.00    +0.000 NA
BRANCH   4   9
ATOM      9  C   UNL     1       5.934   3.402  12.719  0.00  0.00    +0.000 C 
BRANCH   9  11
ATOM     10  C   UNL     1       6.912   1.791  11.306  0.00  0.00    +0.000 C 
ATOM     11  O   UNL     1       6.916   3.154  11.705  0.00  0.00    +0.000 OA
ENDBRANCH   9  11
ENDBRANCH   4   9
ENDBRANCH   3   7
ENDBRANCH   1   3
BRANCH   1  12
ATOM     12  C   UNL     1       5.345   6.355  17.293  0.00  0.00    +0.000 C 
BRANCH  12  13
ATOM     13  C   UNL     1       4.158   6.240  18.201  0.00  0.00    +0.000 A 
ATOM     14  N   UNL     1       3.131   7.097  18.178  0.00  0.00    +0.000 NA
ATOM     15  O   UNL     1       2.302   6.629  19.199  0.00  0.00    +0.000 OA
ATOM     16  C   UNL     1       2.914   5.527  19.731  0.00  0.00    +0.000 A 
ATOM     17  N   UNL     1       4.054   5.239  19.141  0.00  0.00    +0.000 NA
BRANCH  16  18
ATOM     18  C   UNL     1       2.321   4.730  20.884  0.00  0.00    +0.000 C 
ATOM     19  C   UNL     1       1.152   3.809  20.592  0.00  0.00    +0.000 C 
ATOM     20  C   UNL     1       2.487   3.223  20.900  0.00  0.00    +0.000 C 
ENDBRANCH  16  18
ENDBRANCH  12  13
ENDBRANCH   1  12
TORSDOF 7
ENDMDL
MODEL 2
REMARK VINA RESULT:      -6.9      1.286      1.487
REMARK  Name = 
REMARK  9 active torsions:
REMARK  status: ('A' for Active; 'I' for Inactive)
REMARK    1  A    between atoms: C_1  and  O_2
REMARK    2  A    between atoms: O_2  and  C_3
REMARK    3  A    between atoms: C_3  and  C_4
REMARK    4  A    between atoms: C_7  and  C_8
REMARK    5  A    between atoms: C_8  and  N_9
REMARK    6  A    between atoms: N_9  and  C_10
REMARK    7  A    between atoms: N_9  and  C_11
REMARK    8  A    between atoms: C_11  and  C_12
REMARK    9  A    between atoms: C_15  and  C_16
REMARK                            x       y       z     vdW  Elec       q    Type
REMARK                         _______ _______ _______ _____ _____    ______ ____
ROOT
ATOM      1  N   UNL     1       6.496   5.920  17.681  0.00  0.00    +0.000 NA
ATOM      2  C   UNL     1       7.163   7.207  17.439  0.00  0.00    +0.000 C 
ENDROOT
BRANCH   1   3
ATOM      3  C   UNL     1       7.235   4.809  17.036  0.00  0.00    +0.000 C 
BRANCH   3   7
ATOM      4  C   UNL     1       6.646   4.229  13.566  0.00  0.00    +0.000 A 
ATOM      5  N   UNL     1       7.557   5.206  13.457  0.00  0.00    +0.000 NA
ATOM      6  O   UNL     1       7.827   5.542  14.787  0.00  0.00    +0.000 OA
ATOM      7  C   UNL     1       7.061   4.714  15.558  0.00  0.00    +0.000 A 
ATOM      8  N   UNL     1       6.323   3.881  14.858  0.00  0.00    +0.000 NA
BRANCH   4   9
ATOM      9  C   UNL     1       6.098   3.502  12.388  0.00  0.00    +0.000 C 
BRANCH   9  11
ATOM     10  C   UNL     1       4.042   3.384  11.245  0.00  0.00    +0.000 C 
ATOM     11  O   UNL     1       4.690   3.260  12.503  0.00  0.00    +0.000 OA
ENDBRANCH   9  11
ENDBRANCH   4   9
ENDBRANCH   3   7
ENDBRANCH   1   3
BRANCH   1  12
ATOM     12  C   UNL     1       5.108   5.995  17.160  0.00  0.00    +0.000 C 
BRANCH  12  13
ATOM     13  C   UNL     1       4.171   5.088  17.899  0.00  0.00    +0.000 A 
ATOM     14  N   UNL     1       3.721   3.932  17.397  0.00  0.00    +0.000 NA
ATOM     15  O   UNL     1       2.867   3.462  18.397  0.00  0.00    +0.000 OA
ATOM     16  C   UNL     1       2.894   4.385  19.406  0.00  0.00    +0.000 A 
ATOM     17  N   UNL     1       3.694   5.398  19.153  0.00  0.00    +0.000 NA
BRANCH  16  18
ATOM     18  C   UNL     1       2.080   4.235  20.683  0.00  0.00    +0.000 C 
ATOM     19  C   UNL     1       1.083   3.096  20.770  0.00  0.00    +0.000 C 
ATOM     20  C   UNL     1       2.331   3.041  21.583  0.00  0.00    +0.000 C 
ENDBRANCH  16  18
ENDBRANCH  12  13
ENDBRANCH   1  12
TORSDOF 7
ENDMDL
MODEL 3
REMARK VINA RESULT:      -6.8      1.758      2.042
REMARK  Name = 
REMARK  9 active torsions:
REMARK  status: ('A' for Active; 'I' for Inactive)
REMARK    1  A    between atoms: C_1  and  O_2
REMARK    2  A    between atoms: O_2  and  C_3
REMARK    3  A    between atoms: C_3  and  C_4
REMARK    4  A    between atoms: C_7  and  C_8
REMARK    5  A    between atoms: C_8  and  N_9
REMARK    6  A    between atoms: N_9  and  C_10
REMARK    7  A    between atoms: N_9  and  C_11
REMARK    8  A    between atoms: C_11  and  C_12
REMARK    9  A    between atoms: C_15  and  C_16
REMARK                            x       y       z     vdW  Elec       q    Type
REMARK                         _______ _______ _______ _____ _____    ______ ____
ROOT
ATOM      1  N   UNL     1       7.156   4.988  18.713  0.00  0.00    +0.000 NA
ATOM      2  C   UNL     1       7.715   6.298  19.071  0.00  0.00    +0.000 C 
ENDROOT
BRANCH   1   3
ATOM      3  C   UNL     1       7.898   4.386  17.580  0.00  0.00    +0.000 C 
BRANCH   3   7
ATOM      4  C   UNL     1       6.193   4.359  14.447  0.00  0.00    +0.000 A 
ATOM      5  N   UNL     1       6.989   5.417  14.237  0.00  0.00    +0.000 NA
ATOM      6  O   UNL     1       7.681   5.542  15.444  0.00  0.00    +0.000 OA
ATOM      7  C   UNL     1       7.240   4.530  16.250  0.00  0.00    +0.000 A 
ATOM      8  N   UNL     1       6.332   3.768  15.682  0.00  0.00    +0.000 NA
BRANCH   4   9
ATOM      9  C   UNL     1       5.300   3.800  13.396  0.00  0.00    +0.000 C 
BRANCH   9  11
ATOM     10  C   UNL     1       5.257   2.520  11.419  0.00  0.00    +0.000 C 
ATOM     11  O   UNL     1       6.020   3.411  12.219  0.00  0.00    +0.000 OA
ENDBRANCH   9  11
ENDBRANCH   4   9
ENDBRANCH   3   7
ENDBRANCH   1   3
BRANCH   1  12
ATOM     12  C   UNL     1       5.722   5.159  18.364  0.00  0.00    +0.000 C 
BRANCH  12  13
ATOM     13  C   UNL     1       4.851   4.122  19.007  0.00  0.00    +0.000 A 
ATOM     14  N   UNL     1       5.327   2.983  19.525  0.00  0.00    +0.000 NA
ATOM     15  O   UNL     1       4.175   2.329  19.965  0.00  0.00    +0.000 OA
ATOM     16  C   UNL     1       3.118   3.146  19.670  0.00  0.00    +0.000 A 
ATOM     17  N   UNL     1       3.485   4.269  19.092  0.00  0.00    +0.000 NA
BRANCH  16  18
ATOM     18  C   UNL     1       1.676   2.778  19.990  0.00  0.00    +0.000 C 
ATOM     19  C   UNL     1       1.217   2.863  21.433  0.00  0.00    +0.000 C 
ATOM     20  C   UNL     1       0.722   3.864  20.446  0.00  0.00    +0.000 C 
ENDBRANCH  16  18
ENDBRANCH  12  13
ENDBRANCH   1  12
TORSDOF 7
ENDMDL
MODEL 4
REMARK VINA RESULT:      -6.8      1.251      1.356
REMARK  Name = 
REMARK  9 active torsions:
REMARK  status: ('A' for Active; 'I' for Inactive)
REMARK    1  A    between atoms: C_1  and  O_2
REMARK    2  A    between atoms: O_2  and  C_3
REMARK    3  A    between atoms: C_3  and  C_4
REMARK    4  A    between atoms: C_7  and  C_8
REMARK    5  A    between atoms: C_8  and  N_9
REMARK    6  A    between atoms: N_9  and  C_10
REMARK    7  A    between atoms: N_9  and  C_11
REMARK    8  A    between atoms: C_11  and  C_12
REMARK    9  A    between atoms: C_15  and  C_16
REMARK                            x       y       z     vdW  Elec       q    Type
REMARK                         _______ _______ _______ _____ _____    ______ ____
ROOT
ATOM      1  N   UNL     1       6.674   4.804  18.618  0.00  0.00    +0.000 NA
ATOM      2  C   UNL     1       7.301   5.479  19.762  0.00  0.00    +0.000 C 
ENDROOT
BRANCH   1   3
ATOM      3  C   UNL     1       7.661   4.558  17.539  0.00  0.00    +0.000 C 
BRANCH   3   7
ATOM      4  C   UNL     1       6.162   4.219  14.320  0.00  0.00    +0.000 A 
ATOM      5  N   UNL     1       7.017   5.214  14.043  0.00  0.00    +0.000 NA
ATOM      6  O   UNL     1       7.635   5.457  15.273  0.00  0.00    +0.000 OA
ATOM      7  C   UNL     1       7.098   4.566  16.159  0.00  0.00    +0.000 A 
ATOM      8  N   UNL     1       6.194   3.775  15.623  0.00  0.00    +0.000 NA
BRANCH   4   9
ATOM      9  C   UNL     1       5.316   3.571  13.282  0.00  0.00    +0.000 C 
BRANCH   9  11
ATOM     10  C   UNL     1       5.926   2.133  11.519  0.00  0.00    +0.000 C 
ATOM     11  O   UNL     1       5.987   3.461  12.021  0.00  0.00    +0.000 OA
ENDBRANCH   9  11
ENDBRANCH   4   9
ENDBRANCH   3   7
ENDBRANCH   1   3
BRANCH   1  12
ATOM     12  C   UNL     1       5.557   5.645  18.120  0.00  0.00    +0.000 C 
BRANCH  12  13
ATOM     13  C   UNL     1       4.214   5.055  18.433  0.00  0.00    +0.000 A 
ATOM     14  N   UNL     1       3.063   5.574  17.987  0.00  0.00    +0.000 NA
ATOM     15  O   UNL     1       2.098   4.736  18.548  0.00  0.00    +0.000 OA
ATOM     16  C   UNL     1       2.769   3.791  19.274  0.00  0.00    +0.000 A 
ATOM     17  N   UNL     1       4.076   3.937  19.222  0.00  0.00    +0.000 NA
BRANCH  16  18
ATOM     18  C   UNL     1       2.061   2.690  20.051  0.00  0.00    +0.000 C 
ATOM     19  C   UNL     1       2.110   2.735  21.566  0.00  0.00    +0.000 C 
ATOM     20  C   UNL     1       0.830   3.036  20.865  0.00  0.00    +0.000 C 
ENDBRANCH  16  18
ENDBRANCH  12  13
ENDBRANCH   1  12
TORSDOF 7
ENDMDL
MODEL 5
REMARK VINA RESULT:      -6.7      1.481      1.803
REMARK  Name = 
REMARK  9 active torsions:
REMARK  status: ('A' for Active; 'I' for Inactive)
REMARK    1  A    between atoms: C_1  and  O_2
REMARK    2  A    between atoms: O_2  and  C_3
REMARK    3  A    between atoms: C_3  and  C_4
REMARK    4  A    between atoms: C_7  and  C_8
REMARK    5  A    between atoms: C_8  and  N_9
REMARK    6  A    between atoms: N_9  and  C_10
REMARK    7  A    between atoms: N_9  and  C_11
REMARK    8  A    between atoms: C_11  and  C_12
REMARK    9  A    between atoms: C_15  and  C_16
REMARK                            x       y       z     vdW  Elec       q    Type
REMARK                         _______ _______ _______ _____ _____    ______ ____
ROOT
ATOM      1  N   UNL     1       6.673   5.807  17.692  0.00  0.00    +0.000 NA
ATOM      2  C   UNL     1       5.752   6.829  17.179  0.00  0.00    +0.000 C 
ENDROOT
BRANCH   1   3
ATOM      3  C   UNL     1       6.504   4.526  16.965  0.00  0.00    +0.000 C 
BRANCH   3   7
ATOM      4  C   UNL     1       6.903   4.352  13.425  0.00  0.00    +0.000 A 
ATOM      5  N   UNL     1       7.803   5.311  13.684  0.00  0.00    +0.000 NA
ATOM      6  O   UNL     1       7.693   5.488  15.066  0.00  0.00    +0.000 OA
ATOM      7  C   UNL     1       6.747   4.600  15.496  0.00  0.00    +0.000 A 
ATOM      8  N   UNL     1       6.237   3.870  14.529  0.00  0.00    +0.000 NA
BRANCH   4   9
ATOM      9  C   UNL     1       6.708   3.775  12.067  0.00  0.00    +0.000 C 
BRANCH   9  11
ATOM     10  C   UNL     1       5.845   1.684  11.409  0.00  0.00    +0.000 C 
ATOM     11  O   UNL     1       5.542   2.945  11.989  0.00  0.00    +0.000 OA
ENDBRANCH   9  11
ENDBRANCH   4   9
ENDBRANCH   3   7
ENDBRANCH   1   3
BRANCH   1  12
ATOM     12  C   UNL     1       6.419   5.619  19.144  0.00  0.00    +0.000 C 
BRANCH  12  13
ATOM     13  C   UNL     1       5.240   4.730  19.407  0.00  0.00    +0.000 A 
ATOM     14  N   UNL     1       5.335   3.400  19.517  0.00  0.00    +0.000 NA
ATOM     15  O   UNL     1       4.012   3.002  19.716  0.00  0.00    +0.000 OA
ATOM     16  C   UNL     1       3.252   4.139  19.712  0.00  0.00    +0.000 A 
ATOM     17  N   UNL     1       3.965   5.231  19.539  0.00  0.00    +0.000 NA
BRANCH  16  18
ATOM     18  C   UNL     1       1.741   4.123  19.894  0.00  0.00    +0.000 C 
ATOM     19  C   UNL     1       0.963   2.950  19.329  0.00  0.00    +0.000 C 
ATOM     20  C   UNL     1       1.119   3.084  20.805  0.00  0.00    +0.000 C 
ENDBRANCH  16  18
ENDBRANCH  12  13
ENDBRANCH   1  12
TORSDOF 7
ENDMDL
MODEL 6
REMARK VINA RESULT:      -6.7      1.953      7.167
REMARK  Name = 
REMARK  9 active torsions:
REMARK  status: ('A' for Active; 'I' for Inactive)
REMARK    1  A    between atoms: C_1  and  O_2
REMARK    2  A    between atoms: O_2  and  C_3
REMARK    3  A    between atoms: C_3  and  C_4
REMARK    4  A    between atoms: C_7  and  C_8
REMARK    5  A    between atoms: C_8  and  N_9
REMARK    6  A    between atoms: N_9  and  C_10
REMARK    7  A    between atoms: N_9  and  C_11
REMARK    8  A    between atoms: C_11  and  C_12
REMARK    9  A    between atoms: C_15  and  C_16
REMARK                            x       y       z     vdW  Elec       q    Type
REMARK                         _______ _______ _______ _____ _____    ______ ____
ROOT
ATOM      1  N   UNL     1       5.464   5.269  16.734  0.00  0.00    +0.000 NA
ATOM      2  C   UNL     1       5.124   6.497  16.004  0.00  0.00    +0.000 C 
ENDROOT
BRANCH   1   3
ATOM      3  C   UNL     1       5.358   5.474  18.198  0.00  0.00    +0.000 C 
BRANCH   3   7
ATOM      4  C   UNL     1       3.381   3.110  19.995  0.00  0.00    +0.000 A 
ATOM      5  N   UNL     1       4.582   2.539  20.161  0.00  0.00    +0.000 NA
ATOM      6  O   UNL     1       5.439   3.380  19.445  0.00  0.00    +0.000 OA
ATOM      7  C   UNL     1       4.661   4.382  18.937  0.00  0.00    +0.000 A 
ATOM      8  N   UNL     1       3.390   4.270  19.253  0.00  0.00    +0.000 NA
BRANCH   4   9
ATOM      9  C   UNL     1       2.145   2.594  20.643  0.00  0.00    +0.000 C 
BRANCH   9  11
ATOM     10  C   UNL     1       0.643   2.289  18.854  0.00  0.00    +0.000 C 
ATOM     11  O   UNL     1       0.954   3.066  20.002  0.00  0.00    +0.000 OA
ENDBRANCH   9  11
ENDBRANCH   4   9
ENDBRANCH   3   7
ENDBRANCH   1   3
BRANCH   1  12
ATOM     12  C   UNL     1       6.842   4.859  16.363  0.00  0.00    +0.000 C 
BRANCH  12  13
ATOM     13  C   UNL     1       7.024   4.740  14.880  0.00  0.00    +0.000 A 
ATOM     14  N   UNL     1       7.862   5.513  14.179  0.00  0.00    +0.000 NA
ATOM     15  O   UNL     1       7.671   5.080  12.866  0.00  0.00    +0.000 OA
ATOM     16  C   UNL     1       6.738   4.081  12.910  0.00  0.00    +0.000 A 
ATOM     17  N   UNL     1       6.319   3.825  14.131  0.00  0.00    +0.000 NA
BRANCH  16  18
ATOM     18  C   UNL     1       6.251   3.351  11.667  0.00  0.00    +0.000 C 
ATOM     19  C   UNL     1       7.062   2.173  11.163  0.00  0.00    +0.000 C 
ATOM     20  C   UNL     1       5.736   1.932  11.799  0.00  0.00    +0.000 C 
ENDBRANCH  16  18
ENDBRANCH  12  13
ENDBRANCH   1  12
TORSDOF 7
ENDMDL
MODEL 7
REMARK VINA RESULT:      -6.6      2.038      6.507
REMARK  Name = 
REMARK  9 active torsions:
REMARK  status: ('A' for Active; 'I' for Inactive)
REMARK    1  A    between atoms: C_1  and  O_2
REMARK    2  A    between atoms: O_2  and  C_3
REMARK    3  A    between atoms: C_3  and  C_4
REMARK    4  A    between atoms: C_7  and  C_8
REMARK    5  A    between atoms: C_8  and  N_9
REMARK    6  A    between atoms: N_9  and  C_10
REMARK    7  A    between atoms: N_9  and  C_11
REMARK    8  A    between atoms: C_11  and  C_12
REMARK    9  A    between atoms: C_15  and  C_16
REMARK                            x       y       z     vdW  Elec       q    Type
REMARK                         _______ _______ _______ _____ _____    ______ ____
ROOT
ATOM      1  N   UNL     1       6.724   6.279  17.551  0.00  0.00    +0.000 NA
ATOM      2  C   UNL     1       7.522   7.508  17.455  0.00  0.00    +0.000 C 
ENDROOT
BRANCH   1   3
ATOM      3  C   UNL     1       6.561   5.860  18.964  0.00  0.00    +0.000 C 
BRANCH   3   7
ATOM      4  C   UNL     1       3.647   3.922  19.656  0.00  0.00    +0.000 A 
ATOM      5  N   UNL     1       4.558   2.939  19.689  0.00  0.00    +0.000 NA
ATOM      6  O   UNL     1       5.752   3.598  19.381  0.00  0.00    +0.000 OA
ATOM      7  C   UNL     1       5.434   4.916  19.213  0.00  0.00    +0.000 A 
ATOM      8  N   UNL     1       4.155   5.172  19.381  0.00  0.00    +0.000 NA
BRANCH   4   9
ATOM      9  C   UNL     1       2.214   3.705  19.991  0.00  0.00    +0.000 C 
BRANCH   9  11
ATOM     10  C   UNL     1       0.701   2.369  18.775  0.00  0.00    +0.000 C 
ATOM     11  O   UNL     1       1.781   2.370  19.697  0.00  0.00    +0.000 OA
ENDBRANCH   9  11
ENDBRANCH   4   9
ENDBRANCH   3   7
ENDBRANCH   1   3
BRANCH   1  12
ATOM     12  C   UNL     1       7.393   5.211  16.766  0.00  0.00    +0.000 C 
BRANCH  12  13
ATOM     13  C   UNL     1       6.545   4.720  15.631  0.00  0.00    +0.000 A 
ATOM     14  N   UNL     1       5.254   4.392  15.769  0.00  0.00    +0.000 NA
ATOM     15  O   UNL     1       4.897   3.963  14.490  0.00  0.00    +0.000 OA
ATOM     16  C   UNL     1       6.012   4.081  13.707  0.00  0.00    +0.000 A 
ATOM     17  N   UNL     1       7.049   4.557  14.361  0.00  0.00    +0.000 NA
BRANCH  16  18
ATOM     18  C   UNL     1       6.030   3.701  12.233  0.00  0.00    +0.000 C 
ATOM     19  C   UNL     1       5.793   2.249  11.864  0.00  0.00    +0.000 C 
ATOM     20  C   UNL     1       4.740   3.262  11.569  0.00  0.00    +0.000 C 
ENDBRANCH  16  18
ENDBRANCH  12  13
ENDBRANCH   1  12
TORSDOF 7
ENDMDL
MODEL 8
REMARK VINA RESULT:      -6.6      1.586      1.918
REMARK  Name = 
REMARK  9 active torsions:
REMARK  status: ('A' for Active; 'I' for Inactive)
REMARK    1  A    between atoms: C_1  and  O_2
REMARK    2  A    between atoms: O_2  and  C_3
REMARK    3  A    between atoms: C_3  and  C_4
REMARK    4  A    between atoms: C_7  and  C_8
REMARK    5  A    between atoms: C_8  and  N_9
REMARK    6  A    between atoms: N_9  and  C_10
REMARK    7  A    between atoms: N_9  and  C_11
REMARK    8  A    between atoms: C_11  and  C_12
REMARK    9  A    between atoms: C_15  and  C_16
REMARK                            x       y       z     vdW  Elec       q    Type
REMARK                         _______ _______ _______ _____ _____    ______ ____
ROOT
ATOM      1  N   UNL     1       6.788   5.738  18.111  0.00  0.00    +0.000 NA
ATOM      2  C   UNL     1       7.829   6.763  18.262  0.00  0.00    +0.000 C 
ENDROOT
BRANCH   1   3
ATOM      3  C   UNL     1       5.852   6.089  17.016  0.00  0.00    +0.000 C 
BRANCH   3   7
ATOM      4  C   UNL     1       6.339   4.416  13.903  0.00  0.00    +0.000 A 
ATOM      5  N   UNL     1       7.534   5.016  14.002  0.00  0.00    +0.000 NA
ATOM      6  O   UNL     1       7.430   5.746  15.189  0.00  0.00    +0.000 OA
ATOM      7  C   UNL     1       6.184   5.492  15.690  0.00  0.00    +0.000 A 
ATOM      8  N   UNL     1       5.476   4.673  14.944  0.00  0.00    +0.000 NA
BRANCH   4   9
ATOM      9  C   UNL     1       6.002   3.465  12.810  0.00  0.00    +0.000 C 
BRANCH   9  11
ATOM     10  C   UNL     1       7.032   2.024  11.257  0.00  0.00    +0.000 C 
ATOM     11  O   UNL     1       7.078   3.300  11.878  0.00  0.00    +0.000 OA
ENDBRANCH   9  11
ENDBRANCH   4   9
ENDBRANCH   3   7
ENDBRANCH   1   3
BRANCH   1  12
ATOM     12  C   UNL     1       6.058   5.604  19.397  0.00  0.00    +0.000 C 
BRANCH  12  13
ATOM     13  C   UNL     1       5.065   4.481  19.376  0.00  0.00    +0.000 A 
ATOM     14  N   UNL     1       5.394   3.217  19.084  0.00  0.00    +0.000 NA
ATOM     15  O   UNL     1       4.171   2.547  19.147  0.00  0.00    +0.000 OA
ATOM     16  C   UNL     1       3.226   3.480  19.478  0.00  0.00    +0.000 A 
ATOM     17  N   UNL     1       3.731   4.684  19.644  0.00  0.00    +0.000 NA
BRANCH  16  18
ATOM     18  C   UNL     1       1.751   3.140  19.638  0.00  0.00    +0.000 C 
ATOM     19  C   UNL     1       1.234   2.822  21.028  0.00  0.00    +0.000 C 
ATOM     20  C   UNL     1       0.848   4.106  20.378  0.00  0.00    +0.000 C 
ENDBRANCH  16  18
ENDBRANCH  12  13
ENDBRANCH   1  12
TORSDOF 7
ENDMDL
MODEL 9
REMARK VINA RESULT:      -6.5      1.991      6.845
REMARK  Name = 
REMARK  9 active torsions:
REMARK  status: ('A' for Active; 'I' for Inactive)
REMARK    1  A    between atoms: C_1  and  O_2
REMARK    2  A    between atoms: O_2  and  C_3
REMARK    3  A    between atoms: C_3  and  C_4
REMARK    4  A    between atoms: C_7  and  C_8
REMARK    5  A    between atoms: C_8  and  N_9
REMARK    6  A    between atoms: N_9  and  C_10
REMARK    7  A    between atoms: N_9  and  C_11
REMARK    8  A    between atoms: C_11  and  C_12
REMARK    9  A    between atoms: C_15  and  C_16
REMARK                            x       y       z     vdW  Elec       q    Type
REMARK                         _______ _______ _______ _____ _____    ______ ____
ROOT
ATOM      1  N   UNL     1       5.011   5.843  17.440  0.00  0.00    +0.000 NA
ATOM      2  C   UNL     1       4.086   6.970  17.608  0.00  0.00    +0.000 C 
ENDROOT
BRANCH   1   3
ATOM      3  C   UNL     1       5.469   5.331  18.754  0.00  0.00    +0.000 C 
BRANCH   3   7
ATOM      4  C   UNL     1       3.091   3.153  20.278  0.00  0.00    +0.000 A 
ATOM      5  N   UNL     1       4.177   2.376  20.387  0.00  0.00    +0.000 NA
ATOM      6  O   UNL     1       5.176   3.133  19.768  0.00  0.00    +0.000 OA
ATOM      7  C   UNL     1       4.586   4.299  19.368  0.00  0.00    +0.000 A 
ATOM      8  N   UNL     1       3.307   4.367  19.666  0.00  0.00    +0.000 NA
BRANCH   4   9
ATOM      9  C   UNL     1       1.773   2.784  20.863  0.00  0.00    +0.000 C 
BRANCH   9  11
ATOM     10  C   UNL     1       0.861   2.306  18.744  0.00  0.00    +0.000 C 
ATOM     11  O   UNL     1       0.688   3.023  19.958  0.00  0.00    +0.000 OA
ENDBRANCH   9  11
ENDBRANCH   4   9
ENDBRANCH   3   7
ENDBRANCH   1   3
BRANCH   1  12
ATOM     12  C   UNL     1       6.169   6.291  16.624  0.00  0.00    +0.000 C 
BRANCH  12  13
ATOM     13  C   UNL     1       6.373   5.440  15.407  0.00  0.00    +0.000 A 
ATOM     14  N   UNL     1       7.473   5.502  14.646  0.00  0.00    +0.000 NA
ATOM     15  O   UNL     1       7.209   4.581  13.630  0.00  0.00    +0.000 OA
ATOM     16  C   UNL     1       5.974   4.052  13.888  0.00  0.00    +0.000 A 
ATOM     17  N   UNL     1       5.425   4.539  14.980  0.00  0.00    +0.000 NA
BRANCH  16  18
ATOM     18  C   UNL     1       5.321   3.007  12.995  0.00  0.00    +0.000 C 
ATOM     19  C   UNL     1       4.710   3.464  11.684  0.00  0.00    +0.000 C 
ATOM     20  C   UNL     1       5.967   2.664  11.667  0.00  0.00    +0.000 C 
ENDBRANCH  16  18
ENDBRANCH  12  13
ENDBRANCH   1  12
TORSDOF 7
ENDMDL
