MODEL 1
REMARK VINA RESULT:      -9.1      0.000      0.000
REMARK  Name = 
REMARK  4 active torsions:
REMARK  status: ('A' for Active; 'I' for Inactive)
REMARK    1  A    between atoms: N_1  and  C_2
REMARK    2  A    between atoms: C_6  and  C_7
REMARK    3  A    between atoms: C_8  and  C_9
REMARK    4  A    between atoms: C_21  and  C_22
REMARK                            x       y       z     vdW  Elec       q    Type
REMARK                         _______ _______ _______ _____ _____    ______ ____
ROOT
ATOM      1  C   UNL     1       3.821   2.740  20.039  0.00  0.00    +0.000 A 
ATOM      2  N   UNL     1       3.116   2.059  20.954  0.00  0.00    +0.000 NA
ATOM      3  C   UNL     1       2.164   2.739  21.600  0.00  0.00    +0.000 A 
ATOM      4  N   UNL     1       1.837   4.018  21.397  0.00  0.00    +0.000 NA
ATOM      5  C   UNL     1       2.562   4.659  20.456  0.00  0.00    +0.000 A 
ATOM      6  C   UNL     1       3.601   4.088  19.726  0.00  0.00    +0.000 A 
ENDROOT
BRANCH   6   7
ATOM      7  C   UNL     1       4.482   4.836  18.798  0.00  0.00    +0.000 A 
ATOM      8  C   UNL     1       5.703   5.401  19.262  0.00  0.00    +0.000 A 
ATOM      9  C   UNL     1       6.684   5.868  18.383  0.00  0.00    +0.000 A 
ATOM     10  C   UNL     1       6.448   5.696  17.043  0.00  0.00    +0.000 A 
ATOM     11  C   UNL     1       5.247   5.214  16.572  0.00  0.00    +0.000 A 
ATOM     12  C   UNL     1       4.225   4.844  17.416  0.00  0.00    +0.000 A 
ATOM     13  O   UNL     1       5.264   5.026  15.223  0.00  0.00    +0.000 OA
ATOM     14  C   UNL     1       6.680   5.153  14.984  0.00  0.00    +0.000 C 
ATOM     15  O   UNL     1       7.356   5.863  16.043  0.00  0.00    +0.000 OA
ENDBRANCH   6   7
BRANCH   1  16
ATOM     16  N   UNL     1       4.792   1.971  19.388  0.00  0.00    +0.000 N 
ATOM     17  H   UNL     1       4.567   0.989  19.513  0.00  0.00    +0.000 HD
ATOM     18  H   UNL     1       5.736   2.199  19.682  0.00  0.00    +0.000 HD
ENDBRANCH   1  16
BRANCH   5  19
ATOM     19  C   UNL     1       2.182   6.034  20.289  0.00  0.00    +0.000 C 
ATOM     20  C   UNL     1       1.855   7.185  20.186  0.00  0.00    +0.000 C 
BRANCH  20  21
ATOM     21  C   UNL     1       1.475   8.558  20.052  0.00  0.00    +0.000 A 
ATOM     22  C   UNL     1       1.647   9.211  18.845  0.00  0.00    +0.000 A 
ATOM     23  C   UNL     1       1.342  10.571  18.748  0.00  0.00    +0.000 A 
ATOM     24  C   UNL     1       0.866  11.284  19.850  0.00  0.00    +0.000 A 
ATOM     25  N   UNL     1       0.677  12.646  19.789  0.00  0.00    +0.000 N 
ATOM     26  C   UNL     1       0.351  13.380  18.561  0.00  0.00    +0.000 C 
ATOM     27  C   UNL     1       1.166  14.682  18.541  0.00  0.00    +0.000 C 
ATOM     28  O   UNL     1       0.892  15.483  19.703  0.00  0.00    +0.000 OA
ATOM     29  C   UNL     1       1.214  14.754  20.905  0.00  0.00    +0.000 C 
ATOM     30  C   UNL     1       0.430  13.428  21.010  0.00  0.00    +0.000 C 
ATOM     31  N   UNL     1       0.671  10.637  21.021  0.00  0.00    +0.000 NA
ATOM     32  C   UNL     1       0.967   9.307  21.100  0.00  0.00    +0.000 A 
ENDBRANCH  20  21
ENDBRANCH   5  19
TORSDOF 4
ENDMDL
MODEL 2
REMARK VINA RESULT:      -8.7      1.497      1.947
REMARK  Name = 
REMARK  4 active torsions:
REMARK  status: ('A' for Active; 'I' for Inactive)
REMARK    1  A    between atoms: N_1  and  C_2
REMARK    2  A    between atoms: C_6  and  C_7
REMARK    3  A    between atoms: C_8  and  C_9
REMARK    4  A    between atoms: C_21  and  C_22
REMARK                            x       y       z     vdW  Elec       q    Type
REMARK                         _______ _______ _______ _____ _____    ______ ____
ROOT
ATOM      1  C   UNL     1       3.259   2.214  18.389  0.00  0.00    +0.000 A 
ATOM      2  N   UNL     1       2.253   1.551  18.977  0.00  0.00    +0.000 NA
ATOM      3  C   UNL     1       1.268   2.294  19.490  0.00  0.00    +0.000 A 
ATOM      4  N   UNL     1       1.185   3.627  19.445  0.00  0.00    +0.000 NA
ATOM      5  C   UNL     1       2.212   4.252  18.831  0.00  0.00    +0.000 A 
ATOM      6  C   UNL     1       3.316   3.610  18.277  0.00  0.00    +0.000 A 
ENDROOT
BRANCH   6   7
ATOM      7  C   UNL     1       4.503   4.309  17.731  0.00  0.00    +0.000 A 
ATOM      8  C   UNL     1       4.472   4.864  16.420  0.00  0.00    +0.000 A 
ATOM      9  C   UNL     1       5.449   5.756  15.971  0.00  0.00    +0.000 A 
ATOM     10  C   UNL     1       6.409   6.132  16.877  0.00  0.00    +0.000 A 
ATOM     11  C   UNL     1       6.496   5.557  18.124  0.00  0.00    +0.000 A 
ATOM     12  C   UNL     1       5.606   4.599  18.553  0.00  0.00    +0.000 A 
ATOM     13  O   UNL     1       7.452   6.147  18.895  0.00  0.00    +0.000 OA
ATOM     14  C   UNL     1       7.712   7.318  18.094  0.00  0.00    +0.000 C 
ATOM     15  O   UNL     1       7.300   7.149  16.722  0.00  0.00    +0.000 OA
ENDBRANCH   6   7
BRANCH   1  16
ATOM     16  N   UNL     1       4.251   1.382  17.860  0.00  0.00    +0.000 N 
ATOM     17  H   UNL     1       5.147   1.854  17.937  0.00  0.00    +0.000 HD
ATOM     18  H   UNL     1       4.047   1.077  16.914  0.00  0.00    +0.000 HD
ENDBRANCH   1  16
BRANCH   5  19
ATOM     19  C   UNL     1       2.081   5.681  18.825  0.00  0.00    +0.000 C 
ATOM     20  C   UNL     1       1.954   6.875  18.854  0.00  0.00    +0.000 C 
BRANCH  20  21
ATOM     21  C   UNL     1       1.815   8.300  18.879  0.00  0.00    +0.000 A 
ATOM     22  C   UNL     1       2.315   9.064  17.842  0.00  0.00    +0.000 A 
ATOM     23  C   UNL     1       2.239  10.457  17.914  0.00  0.00    +0.000 A 
ATOM     24  C   UNL     1       1.668  11.092  19.018  0.00  0.00    +0.000 A 
ATOM     25  N   UNL     1       1.697  12.463  19.145  0.00  0.00    +0.000 N 
ATOM     26  C   UNL     1       1.731  13.396  18.015  0.00  0.00    +0.000 C 
ATOM     27  C   UNL     1       2.717  14.527  18.345  0.00  0.00    +0.000 C 
ATOM     28  O   UNL     1       2.342  15.205  19.557  0.00  0.00    +0.000 OA
ATOM     29  C   UNL     1       2.311  14.280  20.662  0.00  0.00    +0.000 C 
ATOM     30  C   UNL     1       1.334  13.109  20.415  0.00  0.00    +0.000 C 
ATOM     31  N   UNL     1       1.152  10.342  20.018  0.00  0.00    +0.000 NA
ATOM     32  C   UNL     1       1.228   8.983  19.931  0.00  0.00    +0.000 A 
ENDBRANCH  20  21
ENDBRANCH   5  19
TORSDOF 4
ENDMDL
MODEL 3
REMARK VINA RESULT:      -8.7      0.952      1.458
REMARK  Name = 
REMARK  4 active torsions:
REMARK  status: ('A' for Active; 'I' for Inactive)
REMARK    1  A    between atoms: N_1  and  C_2
REMARK    2  A    between atoms: C_6  and  C_7
REMARK    3  A    between atoms: C_8  and  C_9
REMARK    4  A    between atoms: C_21  and  C_22
REMARK                            x       y       z     vdW  Elec       q    Type
REMARK                         _______ _______ _______ _____ _____    ______ ____
ROOT
ATOM      1  C   UNL     1       3.563   2.585  19.802  0.00  0.00    +0.000 A 
ATOM      2  N   UNL     1       2.819   1.927  20.703  0.00  0.00    +0.000 NA
ATOM      3  C   UNL     1       1.915   2.649  21.371  0.00  0.00    +0.000 A 
ATOM      4  N   UNL     1       1.670   3.952  21.203  0.00  0.00    +0.000 NA
ATOM      5  C   UNL     1       2.432   4.570  20.275  0.00  0.00    +0.000 A 
ATOM      6  C   UNL     1       3.429   3.952  19.525  0.00  0.00    +0.000 A 
ENDROOT
BRANCH   6   7
ATOM      7  C   UNL     1       4.353   4.666  18.613  0.00  0.00    +0.000 A 
ATOM      8  C   UNL     1       3.851   5.348  17.469  0.00  0.00    +0.000 A 
ATOM      9  C   UNL     1       4.633   6.251  16.743  0.00  0.00    +0.000 A 
ATOM     10  C   UNL     1       5.893   6.506  17.223  0.00  0.00    +0.000 A 
ATOM     11  C   UNL     1       6.420   5.809  18.287  0.00  0.00    +0.000 A 
ATOM     12  C   UNL     1       5.706   4.840  18.954  0.00  0.00    +0.000 A 
ATOM     13  O   UNL     1       7.638   6.291  18.662  0.00  0.00    +0.000 OA
ATOM     14  C   UNL     1       7.642   7.527  17.919  0.00  0.00    +0.000 C 
ATOM     15  O   UNL     1       6.718   7.506  16.811  0.00  0.00    +0.000 OA
ENDBRANCH   6   7
BRANCH   1  16
ATOM     16  N   UNL     1       4.480   1.773  19.127  0.00  0.00    +0.000 N 
ATOM     17  H   UNL     1       4.881   1.114  19.789  0.00  0.00    +0.000 HD
ATOM     18  H   UNL     1       5.185   2.305  18.627  0.00  0.00    +0.000 HD
ENDBRANCH   1  16
BRANCH   5  19
ATOM     19  C   UNL     1       2.140   5.969  20.146  0.00  0.00    +0.000 C 
ATOM     20  C   UNL     1       1.865   7.135  20.059  0.00  0.00    +0.000 C 
BRANCH  20  21
ATOM     21  C   UNL     1       1.551   8.528  19.953  0.00  0.00    +0.000 A 
ATOM     22  C   UNL     1       1.745   9.193  18.757  0.00  0.00    +0.000 A 
ATOM     23  C   UNL     1       1.506  10.568  18.687  0.00  0.00    +0.000 A 
ATOM     24  C   UNL     1       1.075  11.283  19.806  0.00  0.00    +0.000 A 
ATOM     25  N   UNL     1       0.951  12.654  19.771  0.00  0.00    +0.000 N 
ATOM     26  C   UNL     1       0.652  13.425  18.560  0.00  0.00    +0.000 C 
ATOM     27  C   UNL     1       1.529  14.687  18.556  0.00  0.00    +0.000 C 
ATOM     28  O   UNL     1       1.305  15.478  19.735  0.00  0.00    +0.000 OA
ATOM     29  C   UNL     1       1.600  14.712  20.920  0.00  0.00    +0.000 C 
ATOM     30  C   UNL     1       0.753  13.424  21.008  0.00  0.00    +0.000 C 
ATOM     31  N   UNL     1       0.857  10.625  20.967  0.00  0.00    +0.000 NA
ATOM     32  C   UNL     1       1.089   9.281  21.019  0.00  0.00    +0.000 A 
ENDBRANCH  20  21
ENDBRANCH   5  19
TORSDOF 4
ENDMDL
MODEL 4
REMARK VINA RESULT:      -8.6      2.839      4.495
REMARK  Name = 
REMARK  4 active torsions:
REMARK  status: ('A' for Active; 'I' for Inactive)
REMARK    1  A    between atoms: N_1  and  C_2
REMARK    2  A    between atoms: C_6  and  C_7
REMARK    3  A    between atoms: C_8  and  C_9
REMARK    4  A    between atoms: C_21  and  C_22
REMARK                            x       y       z     vdW  Elec       q    Type
REMARK                         _______ _______ _______ _____ _____    ______ ____
ROOT
ATOM      1  C   UNL     1       4.918   4.354  16.728  0.00  0.00    +0.000 A 
ATOM      2  N   UNL     1       5.821   4.720  15.806  0.00  0.00    +0.000 NA
ATOM      3  C   UNL     1       5.849   6.017  15.483  0.00  0.00    +0.000 A 
ATOM      4  N   UNL     1       5.083   6.975  16.011  0.00  0.00    +0.000 NA
ATOM      5  C   UNL     1       4.200   6.563  16.945  0.00  0.00    +0.000 A 
ATOM      6  C   UNL     1       4.039   5.244  17.360  0.00  0.00    +0.000 A 
ENDROOT
BRANCH   6   7
ATOM      7  C   UNL     1       2.975   4.780  18.280  0.00  0.00    +0.000 A 
ATOM      8  C   UNL     1       1.833   4.096  17.775  0.00  0.00    +0.000 A 
ATOM      9  C   UNL     1       0.952   3.408  18.613  0.00  0.00    +0.000 A 
ATOM     10  C   UNL     1       1.273   3.360  19.946  0.00  0.00    +0.000 A 
ATOM     11  C   UNL     1       2.333   4.069  20.464  0.00  0.00    +0.000 A 
ATOM     12  C   UNL     1       3.155   4.839  19.674  0.00  0.00    +0.000 A 
ATOM     13  O   UNL     1       2.535   3.799  21.784  0.00  0.00    +0.000 OA
ATOM     14  C   UNL     1       1.688   2.640  21.920  0.00  0.00    +0.000 C 
ATOM     15  O   UNL     1       0.690   2.563  20.881  0.00  0.00    +0.000 OA
ENDBRANCH   6   7
BRANCH   1  16
ATOM     16  N   UNL     1       4.946   2.989  17.033  0.00  0.00    +0.000 N 
ATOM     17  H   UNL     1       5.902   2.656  16.948  0.00  0.00    +0.000 HD
ATOM     18  H   UNL     1       4.291   2.448  16.479  0.00  0.00    +0.000 HD
ENDBRANCH   1  16
BRANCH   5  19
ATOM     19  C   UNL     1       3.392   7.628  17.468  0.00  0.00    +0.000 C 
ATOM     20  C   UNL     1       2.696   8.494  17.925  0.00  0.00    +0.000 C 
BRANCH  20  21
ATOM     21  C   UNL     1       1.877   9.535  18.468  0.00  0.00    +0.000 A 
ATOM     22  C   UNL     1       2.050  10.842  18.052  0.00  0.00    +0.000 A 
ATOM     23  C   UNL     1       1.296  11.858  18.643  0.00  0.00    +0.000 A 
ATOM     24  C   UNL     1       0.370  11.578  19.649  0.00  0.00    +0.000 A 
ATOM     25  N   UNL     1      -0.288  12.588  20.314  0.00  0.00    +0.000 N 
ATOM     26  C   UNL     1      -0.590  13.899  19.731  0.00  0.00    +0.000 C 
ATOM     27  C   UNL     1      -0.325  14.978  20.792  0.00  0.00    +0.000 C 
ATOM     28  O   UNL     1      -1.113  14.750  21.973  0.00  0.00    +0.000 OA
ATOM     29  C   UNL     1      -0.810  13.459  22.538  0.00  0.00    +0.000 C 
ATOM     30  C   UNL     1      -1.056  12.310  21.536  0.00  0.00    +0.000 C 
ATOM     31  N   UNL     1       0.181  10.295  20.034  0.00  0.00    +0.000 NA
ATOM     32  C   UNL     1       0.920   9.312  19.443  0.00  0.00    +0.000 A 
ENDBRANCH  20  21
ENDBRANCH   5  19
TORSDOF 4
ENDMDL
MODEL 5
REMARK VINA RESULT:      -8.6      3.259      4.931
REMARK  Name = 
REMARK  4 active torsions:
REMARK  status: ('A' for Active; 'I' for Inactive)
REMARK    1  A    between atoms: N_1  and  C_2
REMARK    2  A    between atoms: C_6  and  C_7
REMARK    3  A    between atoms: C_8  and  C_9
REMARK    4  A    between atoms: C_21  and  C_22
REMARK                            x       y       z     vdW  Elec       q    Type
REMARK                         _______ _______ _______ _____ _____    ______ ____
ROOT
ATOM      1  C   UNL     1       4.649   4.634  16.923  0.00  0.00    +0.000 A 
ATOM      2  N   UNL     1       5.494   5.143  16.014  0.00  0.00    +0.000 NA
ATOM      3  C   UNL     1       5.404   6.457  15.787  0.00  0.00    +0.000 A 
ATOM      4  N   UNL     1       4.573   7.305  16.400  0.00  0.00    +0.000 NA
ATOM      5  C   UNL     1       3.752   6.751  17.317  0.00  0.00    +0.000 A 
ATOM      6  C   UNL     1       3.714   5.397  17.636  0.00  0.00    +0.000 A 
ENDROOT
BRANCH   6   7
ATOM      7  C   UNL     1       2.717   4.777  18.540  0.00  0.00    +0.000 A 
ATOM      8  C   UNL     1       1.684   3.951  18.014  0.00  0.00    +0.000 A 
ATOM      9  C   UNL     1       0.899   3.135  18.834  0.00  0.00    +0.000 A 
ATOM     10  C   UNL     1       1.214   3.112  20.170  0.00  0.00    +0.000 A 
ATOM     11  C   UNL     1       2.163   3.952  20.707  0.00  0.00    +0.000 A 
ATOM     12  C   UNL     1       2.877   4.840  19.935  0.00  0.00    +0.000 A 
ATOM     13  O   UNL     1       2.390   3.692  22.025  0.00  0.00    +0.000 OA
ATOM     14  C   UNL     1       1.709   2.426  22.137  0.00  0.00    +0.000 C 
ATOM     15  O   UNL     1       0.739   2.228  21.088  0.00  0.00    +0.000 OA
ENDBRANCH   6   7
BRANCH   1  16
ATOM     16  N   UNL     1       4.801   3.258  17.126  0.00  0.00    +0.000 N 
ATOM     17  H   UNL     1       4.007   2.919  17.661  0.00  0.00    +0.000 HD
ATOM     18  H   UNL     1       5.691   3.018  17.549  0.00  0.00    +0.000 HD
ENDBRANCH   1  16
BRANCH   5  19
ATOM     19  C   UNL     1       2.870   7.702  17.933  0.00  0.00    +0.000 C 
ATOM     20  C   UNL     1       2.146   8.487  18.482  0.00  0.00    +0.000 C 
BRANCH  20  21
ATOM     21  C   UNL     1       1.282   9.430  19.125  0.00  0.00    +0.000 A 
ATOM     22  C   UNL     1       1.026   9.327  20.479  0.00  0.00    +0.000 A 
ATOM     23  C   UNL     1       0.124  10.208  21.079  0.00  0.00    +0.000 A 
ATOM     24  C   UNL     1      -0.527  11.193  20.333  0.00  0.00    +0.000 A 
ATOM     25  N   UNL     1      -1.502  11.986  20.896  0.00  0.00    +0.000 N 
ATOM     26  C   UNL     1      -1.558  12.340  22.318  0.00  0.00    +0.000 C 
ATOM     27  C   UNL     1      -3.020  12.256  22.784  0.00  0.00    +0.000 C 
ATOM     28  O   UNL     1      -3.863  13.123  22.008  0.00  0.00    +0.000 OA
ATOM     29  C   UNL     1      -3.801  12.768  20.612  0.00  0.00    +0.000 C 
ATOM     30  C   UNL     1      -2.361  12.833  20.056  0.00  0.00    +0.000 C 
ATOM     31  N   UNL     1      -0.252  11.312  19.014  0.00  0.00    +0.000 NA
ATOM     32  C   UNL     1       0.636  10.448  18.443  0.00  0.00    +0.000 A 
ENDBRANCH  20  21
ENDBRANCH   5  19
TORSDOF 4
ENDMDL
MODEL 6
REMARK VINA RESULT:      -8.4      0.821      1.442
REMARK  Name = 
REMARK  4 active torsions:
REMARK  status: ('A' for Active; 'I' for Inactive)
REMARK    1  A    between atoms: N_1  and  C_2
REMARK    2  A    between atoms: C_6  and  C_7
REMARK    3  A    between atoms: C_8  and  C_9
REMARK    4  A    between atoms: C_21  and  C_22
REMARK                            x       y       z     vdW  Elec       q    Type
REMARK                         _______ _______ _______ _____ _____    ______ ____
ROOT
ATOM      1  C   UNL     1       3.226   2.486  19.524  0.00  0.00    +0.000 A 
ATOM      2  N   UNL     1       2.377   1.794  20.298  0.00  0.00    +0.000 NA
ATOM      3  C   UNL     1       1.456   2.506  20.956  0.00  0.00    +0.000 A 
ATOM      4  N   UNL     1       1.292   3.830  20.889  0.00  0.00    +0.000 NA
ATOM      5  C   UNL     1       2.159   4.483  20.086  0.00  0.00    +0.000 A 
ATOM      6  C   UNL     1       3.184   3.878  19.365  0.00  0.00    +0.000 A 
ENDROOT
BRANCH   6   7
ATOM      7  C   UNL     1       4.216   4.614  18.599  0.00  0.00    +0.000 A 
ATOM      8  C   UNL     1       5.410   5.056  19.237  0.00  0.00    +0.000 A 
ATOM      9  C   UNL     1       6.516   5.503  18.511  0.00  0.00    +0.000 A 
ATOM     10  C   UNL     1       6.429   5.434  17.143  0.00  0.00    +0.000 A 
ATOM     11  C   UNL     1       5.263   5.074  16.507  0.00  0.00    +0.000 A 
ATOM     12  C   UNL     1       4.126   4.729  17.200  0.00  0.00    +0.000 A 
ATOM     13  O   UNL     1       5.426   4.971  15.157  0.00  0.00    +0.000 OA
ATOM     14  C   UNL     1       6.866   5.007  15.090  0.00  0.00    +0.000 C 
ATOM     15  O   UNL     1       7.458   5.596  16.267  0.00  0.00    +0.000 OA
ENDBRANCH   6   7
BRANCH   1  16
ATOM     16  N   UNL     1       4.156   1.685  18.852  0.00  0.00    +0.000 N 
ATOM     17  H   UNL     1       3.683   1.207  18.090  0.00  0.00    +0.000 HD
ATOM     18  H   UNL     1       4.647   1.048  19.471  0.00  0.00    +0.000 HD
ENDBRANCH   1  16
BRANCH   5  19
ATOM     19  C   UNL     1       1.949   5.903  20.063  0.00  0.00    +0.000 C 
ATOM     20  C   UNL     1       1.756   7.088  20.078  0.00  0.00    +0.000 C 
BRANCH  20  21
ATOM     21  C   UNL     1       1.539   8.503  20.086  0.00  0.00    +0.000 A 
ATOM     22  C   UNL     1       1.079   9.128  21.231  0.00  0.00    +0.000 A 
ATOM     23  C   UNL     1       0.800  10.496  21.203  0.00  0.00    +0.000 A 
ATOM     24  C   UNL     1       0.977  11.245  20.039  0.00  0.00    +0.000 A 
ATOM     25  N   UNL     1       0.593  12.566  19.976  0.00  0.00    +0.000 N 
ATOM     26  C   UNL     1       0.553  13.469  21.131  0.00  0.00    +0.000 C 
ATOM     27  C   UNL     1      -0.722  14.322  21.040  0.00  0.00    +0.000 C 
ATOM     28  O   UNL     1      -0.763  15.064  19.809  0.00  0.00    +0.000 OA
ATOM     29  C   UNL     1      -0.722  14.168  18.680  0.00  0.00    +0.000 C 
ATOM     30  C   UNL     1       0.537  13.274  18.689  0.00  0.00    +0.000 C 
ATOM     31  N   UNL     1       1.456  10.639  18.930  0.00  0.00    +0.000 NA
ATOM     32  C   UNL     1       1.730   9.303  18.972  0.00  0.00    +0.000 A 
ENDBRANCH  20  21
ENDBRANCH   5  19
TORSDOF 4
ENDMDL
MODEL 7
REMARK VINA RESULT:      -8.3      3.478      5.040
REMARK  Name = 
REMARK  4 active torsions:
REMARK  status: ('A' for Active; 'I' for Inactive)
REMARK    1  A    between atoms: N_1  and  C_2
REMARK    2  A    between atoms: C_6  and  C_7
REMARK    3  A    between atoms: C_8  and  C_9
REMARK    4  A    between atoms: C_21  and  C_22
REMARK                            x       y       z     vdW  Elec       q    Type
REMARK                         _______ _______ _______ _____ _____    ______ ____
ROOT
ATOM      1  C   UNL     1       5.208   4.954  17.572  0.00  0.00    +0.000 A 
ATOM      2  N   UNL     1       6.167   5.480  16.797  0.00  0.00    +0.000 NA
ATOM      3  C   UNL     1       5.983   6.741  16.395  0.00  0.00    +0.000 A 
ATOM      4  N   UNL     1       4.951   7.526  16.716  0.00  0.00    +0.000 NA
ATOM      5  C   UNL     1       4.018   6.960  17.510  0.00  0.00    +0.000 A 
ATOM      6  C   UNL     1       4.062   5.650  17.981  0.00  0.00    +0.000 A 
ENDROOT
BRANCH   6   7
ATOM      7  C   UNL     1       2.968   4.994  18.733  0.00  0.00    +0.000 A 
ATOM      8  C   UNL     1       1.967   4.249  18.047  0.00  0.00    +0.000 A 
ATOM      9  C   UNL     1       1.087   3.397  18.720  0.00  0.00    +0.000 A 
ATOM     10  C   UNL     1       1.274   3.254  20.072  0.00  0.00    +0.000 A 
ATOM     11  C   UNL     1       2.190   4.014  20.763  0.00  0.00    +0.000 A 
ATOM     12  C   UNL     1       2.997   4.936  20.138  0.00  0.00    +0.000 A 
ATOM     13  O   UNL     1       2.285   3.639  22.070  0.00  0.00    +0.000 OA
ATOM     14  C   UNL     1       1.562   2.392  22.011  0.00  0.00    +0.000 C 
ATOM     15  O   UNL     1       0.690   2.315  20.864  0.00  0.00    +0.000 OA
ENDBRANCH   6   7
BRANCH   1  16
ATOM     16  N   UNL     1       5.464   3.638  17.971  0.00  0.00    +0.000 N 
ATOM     17  H   UNL     1       4.754   3.357  18.641  0.00  0.00    +0.000 HD
ATOM     18  H   UNL     1       6.407   3.508  18.321  0.00  0.00    +0.000 HD
ENDBRANCH   1  16
BRANCH   5  19
ATOM     19  C   UNL     1       2.923   7.839  17.811  0.00  0.00    +0.000 C 
ATOM     20  C   UNL     1       2.031   8.604  18.058  0.00  0.00    +0.000 C 
BRANCH  20  21
ATOM     21  C   UNL     1       0.958   9.506  18.349  0.00  0.00    +0.000 A 
ATOM     22  C   UNL     1       0.933  10.190  19.549  0.00  0.00    +0.000 A 
ATOM     23  C   UNL     1      -0.158  11.010  19.851  0.00  0.00    +0.000 A 
ATOM     24  C   UNL     1      -1.224  11.150  18.961  0.00  0.00    +0.000 A 
ATOM     25  N   UNL     1      -2.351  11.862  19.306  0.00  0.00    +0.000 N 
ATOM     26  C   UNL     1      -2.362  12.982  20.253  0.00  0.00    +0.000 C 
ATOM     27  C   UNL     1      -3.608  12.856  21.142  0.00  0.00    +0.000 C 
ATOM     28  O   UNL     1      -4.810  12.842  20.353  0.00  0.00    +0.000 OA
ATOM     29  C   UNL     1      -4.790  11.739  19.425  0.00  0.00    +0.000 C 
ATOM     30  C   UNL     1      -3.567  11.791  18.482  0.00  0.00    +0.000 C 
ATOM     31  N   UNL     1      -1.183  10.503  17.775  0.00  0.00    +0.000 NA
ATOM     32  C   UNL     1      -0.109   9.711  17.490  0.00  0.00    +0.000 A 
ENDBRANCH  20  21
ENDBRANCH   5  19
TORSDOF 4
ENDMDL
MODEL 8
REMARK VINA RESULT:      -8.3      5.580      7.214
REMARK  Name = 
REMARK  4 active torsions:
REMARK  status: ('A' for Active; 'I' for Inactive)
REMARK    1  A    between atoms: N_1  and  C_2
REMARK    2  A    between atoms: C_6  and  C_7
REMARK    3  A    between atoms: C_8  and  C_9
REMARK    4  A    between atoms: C_21  and  C_22
REMARK                            x       y       z     vdW  Elec       q    Type
REMARK                         _______ _______ _______ _____ _____    ______ ____
ROOT
ATOM      1  C   UNL     1       5.256   4.178  16.183  0.00  0.00    +0.000 A 
ATOM      2  N   UNL     1       5.992   3.666  15.185  0.00  0.00    +0.000 NA
ATOM      3  C   UNL     1       7.088   4.350  14.841  0.00  0.00    +0.000 A 
ATOM      4  N   UNL     1       7.525   5.474  15.417  0.00  0.00    +0.000 NA
ATOM      5  C   UNL     1       6.762   5.944  16.426  0.00  0.00    +0.000 A 
ATOM      6  C   UNL     1       5.582   5.354  16.872  0.00  0.00    +0.000 A 
ENDROOT
BRANCH   6   7
ATOM      7  C   UNL     1       4.679   5.951  17.883  0.00  0.00    +0.000 A 
ATOM      8  C   UNL     1       3.889   7.091  17.561  0.00  0.00    +0.000 A 
ATOM      9  C   UNL     1       2.836   7.516  18.375  0.00  0.00    +0.000 A 
ATOM     10  C   UNL     1       2.548   6.742  19.471  0.00  0.00    +0.000 A 
ATOM     11  C   UNL     1       3.339   5.677  19.836  0.00  0.00    +0.000 A 
ATOM     12  C   UNL     1       4.444   5.301  19.108  0.00  0.00    +0.000 A 
ATOM     13  O   UNL     1       2.816   4.988  20.889  0.00  0.00    +0.000 OA
ATOM     14  C   UNL     1       1.494   5.564  20.915  0.00  0.00    +0.000 C 
ATOM     15  O   UNL     1       1.438   6.843  20.251  0.00  0.00    +0.000 OA
ENDBRANCH   6   7
BRANCH   1  16
ATOM     16  N   UNL     1       4.132   3.411  16.505  0.00  0.00    +0.000 N 
ATOM     17  H   UNL     1       4.213   2.507  16.048  0.00  0.00    +0.000 HD
ATOM     18  H   UNL     1       3.259   3.882  16.293  0.00  0.00    +0.000 HD
ENDBRANCH   1  16
BRANCH   5  19
ATOM     19  C   UNL     1       7.267   7.160  16.997  0.00  0.00    +0.000 C 
ATOM     20  C   UNL     1       7.712   8.182  17.445  0.00  0.00    +0.000 C 
BRANCH  20  21
ATOM     21  C   UNL     1       8.230   9.401  17.987  0.00  0.00    +0.000 A 
ATOM     22  C   UNL     1       7.909  10.612  17.402  0.00  0.00    +0.000 A 
ATOM     23  C   UNL     1       8.480  11.788  17.894  0.00  0.00    +0.000 A 
ATOM     24  C   UNL     1       9.371  11.762  18.968  0.00  0.00    +0.000 A 
ATOM     25  N   UNL     1      10.025  12.903  19.379  0.00  0.00    +0.000 N 
ATOM     26  C   UNL     1       9.490  14.260  19.226  0.00  0.00    +0.000 C 
ATOM     27  C   UNL     1      10.633  15.187  18.784  0.00  0.00    +0.000 C 
ATOM     28  O   UNL     1      11.714  15.166  19.731  0.00  0.00    +0.000 OA
ATOM     29  C   UNL     1      12.232  13.829  19.875  0.00  0.00    +0.000 C 
ATOM     30  C   UNL     1      11.146  12.828  20.327  0.00  0.00    +0.000 C 
ATOM     31  N   UNL     1       9.661  10.580  19.558  0.00  0.00    +0.000 NA
ATOM     32  C   UNL     1       9.091   9.441  19.070  0.00  0.00    +0.000 A 
ENDBRANCH  20  21
ENDBRANCH   5  19
TORSDOF 4
ENDMDL
MODEL 9
REMARK VINA RESULT:      -8.2      1.246      2.022
REMARK  Name = 
REMARK  4 active torsions:
REMARK  status: ('A' for Active; 'I' for Inactive)
REMARK    1  A    between atoms: N_1  and  C_2
REMARK    2  A    between atoms: C_6  and  C_7
REMARK    3  A    between atoms: C_8  and  C_9
REMARK    4  A    between atoms: C_21  and  C_22
REMARK                            x       y       z     vdW  Elec       q    Type
REMARK                         _______ _______ _______ _____ _____    ______ ____
ROOT
ATOM      1  C   UNL     1       3.212   2.518  19.376  0.00  0.00    +0.000 A 
ATOM      2  N   UNL     1       2.388   1.832  20.182  0.00  0.00    +0.000 NA
ATOM      3  C   UNL     1       1.518   2.552  20.897  0.00  0.00    +0.000 A 
ATOM      4  N   UNL     1       1.379   3.880  20.859  0.00  0.00    +0.000 NA
ATOM      5  C   UNL     1       2.218   4.527  20.023  0.00  0.00    +0.000 A 
ATOM      6  C   UNL     1       3.192   3.913  19.240  0.00  0.00    +0.000 A 
ENDROOT
BRANCH   6   7
ATOM      7  C   UNL     1       4.199   4.641  18.434  0.00  0.00    +0.000 A 
ATOM      8  C   UNL     1       3.792   5.468  17.349  0.00  0.00    +0.000 A 
ATOM      9  C   UNL     1       4.664   6.376  16.742  0.00  0.00    +0.000 A 
ATOM     10  C   UNL     1       5.919   6.488  17.286  0.00  0.00    +0.000 A 
ATOM     11  C   UNL     1       6.353   5.651  18.289  0.00  0.00    +0.000 A 
ATOM     12  C   UNL     1       5.547   4.678  18.832  0.00  0.00    +0.000 A 
ATOM     13  O   UNL     1       7.588   6.001  18.749  0.00  0.00    +0.000 OA
ATOM     14  C   UNL     1       7.710   7.300  18.134  0.00  0.00    +0.000 C 
ATOM     15  O   UNL     1       6.830   7.458  17.002  0.00  0.00    +0.000 OA
ENDBRANCH   6   7
BRANCH   1  16
ATOM     16  N   UNL     1       4.089   1.710  18.645  0.00  0.00    +0.000 N 
ATOM     17  H   UNL     1       4.417   2.232  17.838  0.00  0.00    +0.000 HD
ATOM     18  H   UNL     1       3.683   0.814  18.395  0.00  0.00    +0.000 HD
ENDBRANCH   1  16
BRANCH   5  19
ATOM     19  C   UNL     1       2.037   5.952  20.032  0.00  0.00    +0.000 C 
ATOM     20  C   UNL     1       1.850   7.138  20.029  0.00  0.00    +0.000 C 
BRANCH  20  21
ATOM     21  C   UNL     1       1.638   8.554  20.037  0.00  0.00    +0.000 A 
ATOM     22  C   UNL     1       1.203   9.184  21.187  0.00  0.00    +0.000 A 
ATOM     23  C   UNL     1       0.929  10.554  21.160  0.00  0.00    +0.000 A 
ATOM     24  C   UNL     1       1.086  11.298  19.989  0.00  0.00    +0.000 A 
ATOM     25  N   UNL     1       0.705  12.620  19.929  0.00  0.00    +0.000 N 
ATOM     26  C   UNL     1       0.691  13.528  21.081  0.00  0.00    +0.000 C 
ATOM     27  C   UNL     1      -0.582  14.385  21.011  0.00  0.00    +0.000 C 
ATOM     28  O   UNL     1      -0.645  15.122  19.779  0.00  0.00    +0.000 OA
ATOM     29  C   UNL     1      -0.630  14.222  18.652  0.00  0.00    +0.000 C 
ATOM     30  C   UNL     1       0.626  13.323  18.640  0.00  0.00    +0.000 C 
ATOM     31  N   UNL     1       1.540  10.685  18.873  0.00  0.00    +0.000 NA
ATOM     32  C   UNL     1       1.809   9.348  18.916  0.00  0.00    +0.000 A 
ENDBRANCH  20  21
ENDBRANCH   5  19
TORSDOF 4
ENDMDL
