MODEL 1
REMARK VINA RESULT:      -7.5      0.000      0.000
REMARK  Name = 
REMARK  8 active torsions:
REMARK  status: ('A' for Active; 'I' for Inactive)
REMARK    1  A    between atoms: C_1  and  C_2
REMARK    2  A    between atoms: C_5  and  N_6
REMARK    3  A    between atoms: C_7  and  C_8
REMARK    4  A    between atoms: N_10  and  C_11
REMARK    5  A    between atoms: C_14  and  C_15
REMARK    6  A    between atoms: C_15  and  C_16
REMARK    7  A    between atoms: C_15  and  C_17
REMARK    8  A    between atoms: C_15  and  C_18
REMARK                            x       y       z     vdW  Elec       q    Type
REMARK                         _______ _______ _______ _____ _____    ______ ____
ROOT
ATOM      1  C   UNL     1       2.635   4.907  19.342  0.00  0.00    +0.000 C 
ATOM      2  O   UNL     1       1.870   4.758  18.395  0.00  0.00    +0.000 OA
ATOM      3  N   UNL     1       2.890   6.106  19.987  0.00  0.00    +0.000 N 
ATOM      4  H   UNL     1       3.707   6.133  20.589  0.00  0.00    +0.000 HD
ENDROOT
BRANCH   1  10
ATOM      5  C   UNL     1       1.765   2.816  21.623  0.00  0.00    +0.000 C 
ATOM      6  C   UNL     1       3.038   2.872  20.861  0.00  0.00    +0.000 A 
ATOM      7  N   UNL     1       3.999   1.966  21.079  0.00  0.00    +0.000 NA
ATOM      8  O   UNL     1       5.012   2.280  20.191  0.00  0.00    +0.000 OA
ATOM      9  C   UNL     1       4.658   3.369  19.457  0.00  0.00    +0.000 A 
ATOM     10  C   UNL     1       3.403   3.786  19.835  0.00  0.00    +0.000 A 
BRANCH   9  11
ATOM     11  N   UNL     1       5.566   3.822  18.566  0.00  0.00    +0.000 N 
ATOM     12  H   UNL     1       5.179   4.330  17.771  0.00  0.00    +0.000 HD
ATOM     13  H   UNL     1       6.314   3.197  18.276  0.00  0.00    +0.000 HD
ENDBRANCH   9  11
ENDBRANCH   1  10
BRANCH   3  14
ATOM     14  C   UNL     1       2.209   7.321  19.772  0.00  0.00    +0.000 A 
ATOM     15  C   UNL     1       2.254   8.006  18.560  0.00  0.00    +0.000 A 
ATOM     16  C   UNL     1       1.538   9.194  18.381  0.00  0.00    +0.000 A 
ATOM     17  C   UNL     1       0.754   9.743  19.406  0.00  0.00    +0.000 A 
ATOM     18  C   UNL     1       0.730   9.049  20.630  0.00  0.00    +0.000 A 
ATOM     19  C   UNL     1       1.432   7.845  20.806  0.00  0.00    +0.000 A 
BRANCH  17  20
ATOM     20  C   UNL     1      -0.080  11.020  19.202  0.00  0.00    +0.000 C 
ATOM     21  C   UNL     1       0.758  12.232  18.726  0.00  0.00    +0.000 C 
ATOM     22  C   UNL     1      -1.153  10.761  18.123  0.00  0.00    +0.000 C 
ATOM     23  C   UNL     1      -0.772  11.434  20.518  0.00  0.00    +0.000 C 
ENDBRANCH  17  20
ENDBRANCH   3  14
TORSDOF 4
ENDMDL
MODEL 2
REMARK VINA RESULT:      -7.3      0.213      1.436
REMARK  Name = 
REMARK  8 active torsions:
REMARK  status: ('A' for Active; 'I' for Inactive)
REMARK    1  A    between atoms: C_1  and  C_2
REMARK    2  A    between atoms: C_5  and  N_6
REMARK    3  A    between atoms: C_7  and  C_8
REMARK    4  A    between atoms: N_10  and  C_11
REMARK    5  A    between atoms: C_14  and  C_15
REMARK    6  A    between atoms: C_15  and  C_16
REMARK    7  A    between atoms: C_15  and  C_17
REMARK    8  A    between atoms: C_15  and  C_18
REMARK                            x       y       z     vdW  Elec       q    Type
REMARK                         _______ _______ _______ _____ _____    ______ ____
ROOT
ATOM      1  C   UNL     1       2.557   4.814  19.479  0.00  0.00    +0.000 C 
ATOM      2  O   UNL     1       1.686   4.630  18.637  0.00  0.00    +0.000 OA
ATOM      3  N   UNL     1       2.887   6.037  20.040  0.00  0.00    +0.000 N 
ATOM      4  H   UNL     1       3.770   6.084  20.539  0.00  0.00    +0.000 HD
ENDROOT
BRANCH   1  10
ATOM      5  C   UNL     1       1.824   2.628  21.718  0.00  0.00    +0.000 C 
ATOM      6  C   UNL     1       3.075   2.754  20.929  0.00  0.00    +0.000 A 
ATOM      7  N   UNL     1       4.075   1.881  21.099  0.00  0.00    +0.000 NA
ATOM      8  O   UNL     1       5.054   2.260  20.198  0.00  0.00    +0.000 OA
ATOM      9  C   UNL     1       4.641   3.354  19.503  0.00  0.00    +0.000 A 
ATOM     10  C   UNL     1       3.380   3.710  19.921  0.00  0.00    +0.000 A 
BRANCH   9  11
ATOM     11  N   UNL     1       5.509   3.867  18.605  0.00  0.00    +0.000 N 
ATOM     12  H   UNL     1       6.495   3.702  18.809  0.00  0.00    +0.000 HD
ATOM     13  H   UNL     1       5.356   4.816  18.271  0.00  0.00    +0.000 HD
ENDBRANCH   9  11
ENDBRANCH   1  10
BRANCH   3  14
ATOM     14  C   UNL     1       2.184   7.245  19.858  0.00  0.00    +0.000 A 
ATOM     15  C   UNL     1       1.413   7.827  20.861  0.00  0.00    +0.000 A 
ATOM     16  C   UNL     1       0.756   9.043  20.646  0.00  0.00    +0.000 A 
ATOM     17  C   UNL     1       0.845   9.721  19.421  0.00  0.00    +0.000 A 
ATOM     18  C   UNL     1       1.615   9.113  18.412  0.00  0.00    +0.000 A 
ATOM     19  C   UNL     1       2.292   7.903  18.632  0.00  0.00    +0.000 A 
BRANCH  17  20
ATOM     20  C   UNL     1       0.171  11.085  19.192  0.00  0.00    +0.000 C 
ATOM     21  C   UNL     1      -0.396  11.716  20.486  0.00  0.00    +0.000 C 
ATOM     22  C   UNL     1       1.207  12.077  18.621  0.00  0.00    +0.000 C 
ATOM     23  C   UNL     1      -1.004  10.952  18.199  0.00  0.00    +0.000 C 
ENDBRANCH  17  20
ENDBRANCH   3  14
TORSDOF 4
ENDMDL
MODEL 3
REMARK VINA RESULT:      -7.2      0.777      2.026
REMARK  Name = 
REMARK  8 active torsions:
REMARK  status: ('A' for Active; 'I' for Inactive)
REMARK    1  A    between atoms: C_1  and  C_2
REMARK    2  A    between atoms: C_5  and  N_6
REMARK    3  A    between atoms: C_7  and  C_8
REMARK    4  A    between atoms: N_10  and  C_11
REMARK    5  A    between atoms: C_14  and  C_15
REMARK    6  A    between atoms: C_15  and  C_16
REMARK    7  A    between atoms: C_15  and  C_17
REMARK    8  A    between atoms: C_15  and  C_18
REMARK                            x       y       z     vdW  Elec       q    Type
REMARK                         _______ _______ _______ _____ _____    ______ ____
ROOT
ATOM      1  C   UNL     1       2.392   4.912  19.599  0.00  0.00    +0.000 C 
ATOM      2  O   UNL     1       1.441   4.699  18.855  0.00  0.00    +0.000 OA
ATOM      3  N   UNL     1       2.815   6.161  20.025  0.00  0.00    +0.000 N 
ATOM      4  H   UNL     1       3.741   6.211  20.437  0.00  0.00    +0.000 HD
ENDROOT
BRANCH   1  10
ATOM      5  C   UNL     1       5.190   3.935  18.354  0.00  0.00    +0.000 C 
ATOM      6  C   UNL     1       4.439   3.358  19.496  0.00  0.00    +0.000 A 
ATOM      7  N   UNL     1       4.920   2.300  20.159  0.00  0.00    +0.000 NA
ATOM      8  O   UNL     1       4.008   2.048  21.168  0.00  0.00    +0.000 OA
ATOM      9  C   UNL     1       2.989   2.946  21.100  0.00  0.00    +0.000 A 
ATOM     10  C   UNL     1       3.213   3.814  20.056  0.00  0.00    +0.000 A 
BRANCH   9  11
ATOM     11  N   UNL     1       1.994   2.806  22.003  0.00  0.00    +0.000 N 
ATOM     12  H   UNL     1       1.485   1.924  21.956  0.00  0.00    +0.000 HD
ATOM     13  H   UNL     1       1.362   3.590  22.153  0.00  0.00    +0.000 HD
ENDBRANCH   9  11
ENDBRANCH   1  10
BRANCH   3  14
ATOM     14  C   UNL     1       2.140   7.379  19.806  0.00  0.00    +0.000 A 
ATOM     15  C   UNL     1       2.175   8.052  18.588  0.00  0.00    +0.000 A 
ATOM     16  C   UNL     1       1.466   9.244  18.407  0.00  0.00    +0.000 A 
ATOM     17  C   UNL     1       0.699   9.808  19.436  0.00  0.00    +0.000 A 
ATOM     18  C   UNL     1       0.685   9.125  20.667  0.00  0.00    +0.000 A 
ATOM     19  C   UNL     1       1.380   7.918  20.846  0.00  0.00    +0.000 A 
BRANCH  17  20
ATOM     20  C   UNL     1      -0.128  11.090  19.231  0.00  0.00    +0.000 C 
ATOM     21  C   UNL     1      -1.240  10.940  18.165  0.00  0.00    +0.000 C 
ATOM     22  C   UNL     1      -0.821  11.468  20.558  0.00  0.00    +0.000 C 
ATOM     23  C   UNL     1       0.779  12.256  18.781  0.00  0.00    +0.000 C 
ENDBRANCH  17  20
ENDBRANCH   3  14
TORSDOF 4
ENDMDL
MODEL 4
REMARK VINA RESULT:      -7.0      0.795      2.087
REMARK  Name = 
REMARK  8 active torsions:
REMARK  status: ('A' for Active; 'I' for Inactive)
REMARK    1  A    between atoms: C_1  and  C_2
REMARK    2  A    between atoms: C_5  and  N_6
REMARK    3  A    between atoms: C_7  and  C_8
REMARK    4  A    between atoms: N_10  and  C_11
REMARK    5  A    between atoms: C_14  and  C_15
REMARK    6  A    between atoms: C_15  and  C_16
REMARK    7  A    between atoms: C_15  and  C_17
REMARK    8  A    between atoms: C_15  and  C_18
REMARK                            x       y       z     vdW  Elec       q    Type
REMARK                         _______ _______ _______ _____ _____    ______ ____
ROOT
ATOM      1  C   UNL     1       2.375   4.898  19.641  0.00  0.00    +0.000 C 
ATOM      2  O   UNL     1       1.476   4.708  18.830  0.00  0.00    +0.000 OA
ATOM      3  N   UNL     1       2.736   6.128  20.167  0.00  0.00    +0.000 N 
ATOM      4  H   UNL     1       3.634   6.175  20.637  0.00  0.00    +0.000 HD
ENDROOT
BRANCH   1  10
ATOM      5  C   UNL     1       5.162   3.932  18.365  0.00  0.00    +0.000 C 
ATOM      6  C   UNL     1       4.418   3.343  19.507  0.00  0.00    +0.000 A 
ATOM      7  N   UNL     1       4.903   2.277  20.154  0.00  0.00    +0.000 NA
ATOM      8  O   UNL     1       3.998   2.015  21.168  0.00  0.00    +0.000 OA
ATOM      9  C   UNL     1       2.980   2.915  21.117  0.00  0.00    +0.000 A 
ATOM     10  C   UNL     1       3.198   3.794  20.081  0.00  0.00    +0.000 A 
BRANCH   9  11
ATOM     11  N   UNL     1       1.992   2.767  22.025  0.00  0.00    +0.000 N 
ATOM     12  H   UNL     1       2.025   3.413  22.814  0.00  0.00    +0.000 HD
ATOM     13  H   UNL     1       1.750   1.826  22.329  0.00  0.00    +0.000 HD
ENDBRANCH   9  11
ENDBRANCH   1  10
BRANCH   3  14
ATOM     14  C   UNL     1       2.042   7.341  19.982  0.00  0.00    +0.000 A 
ATOM     15  C   UNL     1       1.261   7.922  20.977  0.00  0.00    +0.000 A 
ATOM     16  C   UNL     1       0.613   9.143  20.760  0.00  0.00    +0.000 A 
ATOM     17  C   UNL     1       0.721   9.826  19.540  0.00  0.00    +0.000 A 
ATOM     18  C   UNL     1       1.501   9.219  18.538  0.00  0.00    +0.000 A 
ATOM     19  C   UNL     1       2.168   8.004  18.760  0.00  0.00    +0.000 A 
BRANCH  17  20
ATOM     20  C   UNL     1       0.057  11.194  19.309  0.00  0.00    +0.000 C 
ATOM     21  C   UNL     1       1.029  12.263  18.754  0.00  0.00    +0.000 C 
ATOM     22  C   UNL     1      -1.083  11.041  18.279  0.00  0.00    +0.000 C 
ATOM     23  C   UNL     1      -0.523  11.748  20.628  0.00  0.00    +0.000 C 
ENDBRANCH  17  20
ENDBRANCH   3  14
TORSDOF 4
ENDMDL
MODEL 5
REMARK VINA RESULT:      -6.8      0.744      1.209
REMARK  Name = 
REMARK  8 active torsions:
REMARK  status: ('A' for Active; 'I' for Inactive)
REMARK    1  A    between atoms: C_1  and  C_2
REMARK    2  A    between atoms: C_5  and  N_6
REMARK    3  A    between atoms: C_7  and  C_8
REMARK    4  A    between atoms: N_10  and  C_11
REMARK    5  A    between atoms: C_14  and  C_15
REMARK    6  A    between atoms: C_15  and  C_16
REMARK    7  A    between atoms: C_15  and  C_17
REMARK    8  A    between atoms: C_15  and  C_18
REMARK                            x       y       z     vdW  Elec       q    Type
REMARK                         _______ _______ _______ _____ _____    ______ ____
ROOT
ATOM      1  C   UNL     1       3.221   5.656  19.058  0.00  0.00    +0.000 C 
ATOM      2  O   UNL     1       3.453   6.005  17.906  0.00  0.00    +0.000 OA
ATOM      3  N   UNL     1       2.598   6.432  20.022  0.00  0.00    +0.000 N 
ATOM      4  H   UNL     1       2.682   6.116  20.983  0.00  0.00    +0.000 HD
ENDROOT
BRANCH   1  10
ATOM      5  C   UNL     1       1.585   3.611  20.921  0.00  0.00    +0.000 C 
ATOM      6  C   UNL     1       2.955   3.460  20.369  0.00  0.00    +0.000 A 
ATOM      7  N   UNL     1       3.670   2.356  20.619  0.00  0.00    +0.000 NA
ATOM      8  O   UNL     1       4.861   2.523  19.936  0.00  0.00    +0.000 OA
ATOM      9  C   UNL     1       4.856   3.720  19.291  0.00  0.00    +0.000 A 
ATOM     10  C   UNL     1       3.660   4.360  19.524  0.00  0.00    +0.000 A 
BRANCH   9  11
ATOM     11  N   UNL     1       5.973   4.046  18.605  0.00  0.00    +0.000 N 
ATOM     12  H   UNL     1       6.293   3.345  17.937  0.00  0.00    +0.000 HD
ATOM     13  H   UNL     1       6.753   4.453  19.115  0.00  0.00    +0.000 HD
ENDBRANCH   9  11
ENDBRANCH   1  10
BRANCH   3  14
ATOM     14  C   UNL     1       1.991   7.686  19.808  0.00  0.00    +0.000 A 
ATOM     15  C   UNL     1       2.020   8.337  18.577  0.00  0.00    +0.000 A 
ATOM     16  C   UNL     1       1.378   9.567  18.402  0.00  0.00    +0.000 A 
ATOM     17  C   UNL     1       0.684  10.192  19.448  0.00  0.00    +0.000 A 
ATOM     18  C   UNL     1       0.676   9.529  20.690  0.00  0.00    +0.000 A 
ATOM     19  C   UNL     1       1.303   8.285  20.864  0.00  0.00    +0.000 A 
BRANCH  17  20
ATOM     20  C   UNL     1      -0.071  11.518  19.251  0.00  0.00    +0.000 C 
ATOM     21  C   UNL     1      -0.714  12.058  20.551  0.00  0.00    +0.000 C 
ATOM     22  C   UNL     1       0.914  12.596  18.752  0.00  0.00    +0.000 C 
ATOM     23  C   UNL     1      -1.206  11.349  18.218  0.00  0.00    +0.000 C 
ENDBRANCH  17  20
ENDBRANCH   3  14
TORSDOF 4
ENDMDL
MODEL 6
REMARK VINA RESULT:      -6.7      1.064      2.416
REMARK  Name = 
REMARK  8 active torsions:
REMARK  status: ('A' for Active; 'I' for Inactive)
REMARK    1  A    between atoms: C_1  and  C_2
REMARK    2  A    between atoms: C_5  and  N_6
REMARK    3  A    between atoms: C_7  and  C_8
REMARK    4  A    between atoms: N_10  and  C_11
REMARK    5  A    between atoms: C_14  and  C_15
REMARK    6  A    between atoms: C_15  and  C_16
REMARK    7  A    between atoms: C_15  and  C_17
REMARK    8  A    between atoms: C_15  and  C_18
REMARK                            x       y       z     vdW  Elec       q    Type
REMARK                         _______ _______ _______ _____ _____    ______ ____
ROOT
ATOM      1  C   UNL     1       2.071   5.107  20.100  0.00  0.00    +0.000 C 
ATOM      2  O   UNL     1       0.865   4.883  20.100  0.00  0.00    +0.000 OA
ATOM      3  N   UNL     1       2.656   6.353  19.947  0.00  0.00    +0.000 N 
ATOM      4  H   UNL     1       3.648   6.365  19.731  0.00  0.00    +0.000 HD
ENDROOT
BRANCH   1  10
ATOM      5  C   UNL     1       4.736   4.660  18.360  0.00  0.00    +0.000 C 
ATOM      6  C   UNL     1       4.176   3.793  19.428  0.00  0.00    +0.000 A 
ATOM      7  N   UNL     1       4.804   2.666  19.784  0.00  0.00    +0.000 NA
ATOM      8  O   UNL     1       4.048   2.131  20.811  0.00  0.00    +0.000 OA
ATOM      9  C   UNL     1       2.976   2.930  21.058  0.00  0.00    +0.000 A 
ATOM     10  C   UNL     1       3.010   4.013  20.210  0.00  0.00    +0.000 A 
BRANCH   9  11
ATOM     11  N   UNL     1       2.118   2.519  22.016  0.00  0.00    +0.000 N 
ATOM     12  H   UNL     1       1.202   2.966  22.001  0.00  0.00    +0.000 HD
ATOM     13  H   UNL     1       2.465   2.421  22.968  0.00  0.00    +0.000 HD
ENDBRANCH   9  11
ENDBRANCH   1  10
BRANCH   3  14
ATOM     14  C   UNL     1       1.976   7.587  19.919  0.00  0.00    +0.000 A 
ATOM     15  C   UNL     1       1.335   8.121  21.034  0.00  0.00    +0.000 A 
ATOM     16  C   UNL     1       0.697   9.364  20.968  0.00  0.00    +0.000 A 
ATOM     17  C   UNL     1       0.674  10.118  19.786  0.00  0.00    +0.000 A 
ATOM     18  C   UNL     1       1.313   9.560  18.663  0.00  0.00    +0.000 A 
ATOM     19  C   UNL     1       1.971   8.321  18.731  0.00  0.00    +0.000 A 
BRANCH  17  20
ATOM     20  C   UNL     1       0.022  11.510  19.717  0.00  0.00    +0.000 C 
ATOM     21  C   UNL     1      -1.442  11.479  19.217  0.00  0.00    +0.000 C 
ATOM     22  C   UNL     1       0.005  12.135  21.129  0.00  0.00    +0.000 C 
ATOM     23  C   UNL     1       0.809  12.433  18.763  0.00  0.00    +0.000 C 
ENDBRANCH  17  20
ENDBRANCH   3  14
TORSDOF 4
ENDMDL
MODEL 7
REMARK VINA RESULT:      -6.7      1.051      1.765
REMARK  Name = 
REMARK  8 active torsions:
REMARK  status: ('A' for Active; 'I' for Inactive)
REMARK    1  A    between atoms: C_1  and  C_2
REMARK    2  A    between atoms: C_5  and  N_6
REMARK    3  A    between atoms: C_7  and  C_8
REMARK    4  A    between atoms: N_10  and  C_11
REMARK    5  A    between atoms: C_14  and  C_15
REMARK    6  A    between atoms: C_15  and  C_16
REMARK    7  A    between atoms: C_15  and  C_17
REMARK    8  A    between atoms: C_15  and  C_18
REMARK                            x       y       z     vdW  Elec       q    Type
REMARK                         _______ _______ _______ _____ _____    ______ ____
ROOT
ATOM      1  C   UNL     1       2.542   5.035  18.721  0.00  0.00    +0.000 C 
ATOM      2  O   UNL     1       1.627   4.918  17.913  0.00  0.00    +0.000 OA
ATOM      3  N   UNL     1       2.918   6.213  19.344  0.00  0.00    +0.000 N 
ATOM      4  H   UNL     1       3.825   6.217  19.799  0.00  0.00    +0.000 HD
ENDROOT
BRANCH   1  10
ATOM      5  C   UNL     1       5.701   5.035  19.309  0.00  0.00    +0.000 C 
ATOM      6  C   UNL     1       4.770   3.880  19.284  0.00  0.00    +0.000 A 
ATOM      7  N   UNL     1       5.215   2.644  19.540  0.00  0.00    +0.000 NA
ATOM      8  O   UNL     1       4.100   1.828  19.473  0.00  0.00    +0.000 OA
ATOM      9  C   UNL     1       3.002   2.573  19.173  0.00  0.00    +0.000 A 
ATOM     10  C   UNL     1       3.367   3.894  19.049  0.00  0.00    +0.000 A 
BRANCH   9  11
ATOM     11  N   UNL     1       1.835   1.908  19.035  0.00  0.00    +0.000 N 
ATOM     12  H   UNL     1       1.501   1.438  19.876  0.00  0.00    +0.000 HD
ATOM     13  H   UNL     1       1.703   1.327  18.211  0.00  0.00    +0.000 HD
ENDBRANCH   9  11
ENDBRANCH   1  10
BRANCH   3  14
ATOM     14  C   UNL     1       2.227   7.440  19.277  0.00  0.00    +0.000 A 
ATOM     15  C   UNL     1       2.135   8.191  18.108  0.00  0.00    +0.000 A 
ATOM     16  C   UNL     1       1.413   9.389  18.080  0.00  0.00    +0.000 A 
ATOM     17  C   UNL     1       0.758   9.880  19.218  0.00  0.00    +0.000 A 
ATOM     18  C   UNL     1       0.871   9.118  20.396  0.00  0.00    +0.000 A 
ATOM     19  C   UNL     1       1.579   7.906  20.422  0.00  0.00    +0.000 A 
BRANCH  17  20
ATOM     20  C   UNL     1      -0.084  11.168  19.184  0.00  0.00    +0.000 C 
ATOM     21  C   UNL     1       0.701  12.402  18.675  0.00  0.00    +0.000 C 
ATOM     22  C   UNL     1      -1.282  10.969  18.231  0.00  0.00    +0.000 C 
ATOM     23  C   UNL     1      -0.608  11.513  20.595  0.00  0.00    +0.000 C 
ENDBRANCH  17  20
ENDBRANCH   3  14
TORSDOF 4
ENDMDL
MODEL 8
REMARK VINA RESULT:      -6.7      3.513      7.512
REMARK  Name = 
REMARK  8 active torsions:
REMARK  status: ('A' for Active; 'I' for Inactive)
REMARK    1  A    between atoms: C_1  and  C_2
REMARK    2  A    between atoms: C_5  and  N_6
REMARK    3  A    between atoms: C_7  and  C_8
REMARK    4  A    between atoms: N_10  and  C_11
REMARK    5  A    between atoms: C_14  and  C_15
REMARK    6  A    between atoms: C_15  and  C_16
REMARK    7  A    between atoms: C_15  and  C_17
REMARK    8  A    between atoms: C_15  and  C_18
REMARK                            x       y       z     vdW  Elec       q    Type
REMARK                         _______ _______ _______ _____ _____    ______ ____
ROOT
ATOM      1  C   UNL     1       0.603   9.527  20.228  0.00  0.00    +0.000 C 
ATOM      2  O   UNL     1       0.115   9.543  19.104  0.00  0.00    +0.000 OA
ATOM      3  N   UNL     1       1.402   8.519  20.744  0.00  0.00    +0.000 N 
ATOM      4  H   UNL     1       1.539   8.518  21.749  0.00  0.00    +0.000 HD
ENDROOT
BRANCH   1  10
ATOM      5  C   UNL     1       1.222  12.657  19.842  0.00  0.00    +0.000 C 
ATOM      6  C   UNL     1       0.604  11.977  21.008  0.00  0.00    +0.000 A 
ATOM      7  N   UNL     1       0.213  12.683  22.076  0.00  0.00    +0.000 NA
ATOM      8  O   UNL     1      -0.344  11.763  22.945  0.00  0.00    +0.000 OA
ATOM      9  C   UNL     1      -0.278  10.518  22.400  0.00  0.00    +0.000 A 
ATOM     10  C   UNL     1       0.311  10.594  21.159  0.00  0.00    +0.000 A 
BRANCH   9  11
ATOM     11  N   UNL     1      -0.753   9.500  23.150  0.00  0.00    +0.000 N 
ATOM     12  H   UNL     1      -0.046   8.969  23.658  0.00  0.00    +0.000 HD
ATOM     13  H   UNL     1      -1.455   8.887  22.745  0.00  0.00    +0.000 HD
ENDBRANCH   9  11
ENDBRANCH   1  10
BRANCH   3  14
ATOM     14  C   UNL     1       1.915   7.422  20.022  0.00  0.00    +0.000 A 
ATOM     15  C   UNL     1       2.560   7.560  18.796  0.00  0.00    +0.000 A 
ATOM     16  C   UNL     1       3.080   6.446  18.129  0.00  0.00    +0.000 A 
ATOM     17  C   UNL     1       2.973   5.153  18.661  0.00  0.00    +0.000 A 
ATOM     18  C   UNL     1       2.305   5.026  19.894  0.00  0.00    +0.000 A 
ATOM     19  C   UNL     1       1.799   6.145  20.575  0.00  0.00    +0.000 A 
BRANCH  17  20
ATOM     20  C   UNL     1       3.588   3.929  17.962  0.00  0.00    +0.000 C 
ATOM     21  C   UNL     1       4.544   4.299  16.803  0.00  0.00    +0.000 C 
ATOM     22  C   UNL     1       4.411   3.117  18.986  0.00  0.00    +0.000 C 
ATOM     23  C   UNL     1       2.483   3.027  17.370  0.00  0.00    +0.000 C 
ENDBRANCH  17  20
ENDBRANCH   3  14
TORSDOF 4
ENDMDL
MODEL 9
REMARK VINA RESULT:      -6.5      2.544      3.607
REMARK  Name = 
REMARK  8 active torsions:
REMARK  status: ('A' for Active; 'I' for Inactive)
REMARK    1  A    between atoms: C_1  and  C_2
REMARK    2  A    between atoms: C_5  and  N_6
REMARK    3  A    between atoms: C_7  and  C_8
REMARK    4  A    between atoms: N_10  and  C_11
REMARK    5  A    between atoms: C_14  and  C_15
REMARK    6  A    between atoms: C_15  and  C_16
REMARK    7  A    between atoms: C_15  and  C_17
REMARK    8  A    between atoms: C_15  and  C_18
REMARK                            x       y       z     vdW  Elec       q    Type
REMARK                         _______ _______ _______ _____ _____    ______ ____
ROOT
ATOM      1  C   UNL     1       4.646   5.845  18.337  0.00  0.00    +0.000 C 
ATOM      2  O   UNL     1       4.661   5.548  19.527  0.00  0.00    +0.000 OA
ATOM      3  N   UNL     1       3.764   6.731  17.741  0.00  0.00    +0.000 N 
ATOM      4  H   UNL     1       3.709   6.704  16.728  0.00  0.00    +0.000 HD
ENDROOT
BRANCH   1  10
ATOM      5  C   UNL     1       7.455   7.005  17.291  0.00  0.00    +0.000 C 
ATOM      6  C   UNL     1       6.797   5.723  16.933  0.00  0.00    +0.000 A 
ATOM      7  N   UNL     1       7.383   4.875  16.080  0.00  0.00    +0.000 NA
ATOM      8  O   UNL     1       6.534   3.785  16.000  0.00  0.00    +0.000 OA
ATOM      9  C   UNL     1       5.449   3.988  16.793  0.00  0.00    +0.000 A 
ATOM     10  C   UNL     1       5.565   5.207  17.422  0.00  0.00    +0.000 A 
BRANCH   9  11
ATOM     11  N   UNL     1       4.506   3.022  16.793  0.00  0.00    +0.000 N 
ATOM     12  H   UNL     1       4.720   2.205  17.365  0.00  0.00    +0.000 HD
ATOM     13  H   UNL     1       4.090   2.752  15.905  0.00  0.00    +0.000 HD
ENDBRANCH   9  11
ENDBRANCH   1  10
BRANCH   3  14
ATOM     14  C   UNL     1       2.839   7.555  18.415  0.00  0.00    +0.000 A 
ATOM     15  C   UNL     1       2.366   7.269  19.693  0.00  0.00    +0.000 A 
ATOM     16  C   UNL     1       1.471   8.131  20.335  0.00  0.00    +0.000 A 
ATOM     17  C   UNL     1       1.015   9.308  19.725  0.00  0.00    +0.000 A 
ATOM     18  C   UNL     1       1.490   9.576  18.427  0.00  0.00    +0.000 A 
ATOM     19  C   UNL     1       2.404   8.723  17.787  0.00  0.00    +0.000 A 
BRANCH  17  20
ATOM     20  C   UNL     1       0.074  10.290  20.444  0.00  0.00    +0.000 C 
ATOM     21  C   UNL     1       0.734  11.653  20.763  0.00  0.00    +0.000 C 
ATOM     22  C   UNL     1      -1.147  10.577  19.544  0.00  0.00    +0.000 C 
ATOM     23  C   UNL     1      -0.412   9.695  21.784  0.00  0.00    +0.000 C 
ENDBRANCH  17  20
ENDBRANCH   3  14
TORSDOF 4
ENDMDL
