MODEL 1
REMARK VINA RESULT:      -7.4      0.000      0.000
REMARK  Name = 
REMARK  9 active torsions:
REMARK  status: ('A' for Active; 'I' for Inactive)
REMARK    1  A    between atoms: C_1  and  C_2
REMARK    2  A    between atoms: C_2  and  C_3
REMARK    3  A    between atoms: C_2  and  C_4
REMARK    4  A    between atoms: C_7  and  N_8
REMARK    5  A    between atoms: C_9  and  C_11
REMARK    6  A    between atoms: C_14  and  C_15
REMARK    7  A    between atoms: N_17  and  C_18
REMARK    8  A    between atoms: N_21  and  C_22
REMARK    9  A    between atoms: C_22  and  C_23
REMARK                            x       y       z     vdW  Elec       q    Type
REMARK                         _______ _______ _______ _____ _____    ______ ____
ROOT
ATOM      1  C   UNL     1       1.521   9.025  19.410  0.00  0.00    +0.000 A 
ATOM      2  C   UNL     1       1.391   8.400  20.656  0.00  0.00    +0.000 A 
ATOM      3  C   UNL     1       0.670   9.026  21.670  0.00  0.00    +0.000 A 
ATOM      4  C   UNL     1       0.085  10.282  21.460  0.00  0.00    +0.000 A 
ATOM      5  C   UNL     1       0.252  10.930  20.231  0.00  0.00    +0.000 A 
ATOM      6  C   UNL     1       0.978  10.303  19.209  0.00  0.00    +0.000 A 
ENDROOT
BRANCH   1   8
ATOM      7  N   UNL     1       2.950   7.219  18.655  0.00  0.00    +0.000 N 
ATOM      8  C   UNL     1       2.241   8.357  18.297  0.00  0.00    +0.000 C 
ATOM      9  O   UNL     1       2.099   8.811  17.168  0.00  0.00    +0.000 OA
ATOM     10  H   UNL     1       2.828   6.859  19.592  0.00  0.00    +0.000 HD
BRANCH   7  14
ATOM     11  C   UNL     1       5.263   4.867  15.990  0.00  0.00    +0.000 A 
ATOM     12  C   UNL     1       4.151   4.316  16.638  0.00  0.00    +0.000 A 
ATOM     13  C   UNL     1       3.383   5.080  17.520  0.00  0.00    +0.000 A 
ATOM     14  C   UNL     1       3.704   6.409  17.776  0.00  0.00    +0.000 A 
ATOM     15  C   UNL     1       4.802   6.978  17.123  0.00  0.00    +0.000 A 
ATOM     16  C   UNL     1       5.579   6.209  16.244  0.00  0.00    +0.000 A 
BRANCH  11  18
ATOM     17  C   UNL     1       5.100   3.756  13.776  0.00  0.00    +0.000 C 
ATOM     18  C   UNL     1       6.015   4.029  14.970  0.00  0.00    +0.000 C 
ATOM     19  C   UNL     1       7.334   4.646  14.503  0.00  0.00    +0.000 C 
ENDBRANCH  11  18
ENDBRANCH   7  14
ENDBRANCH   1   8
BRANCH   4  20
ATOM     20  C   UNL     1      -0.660  10.880  22.602  0.00  0.00    +0.000 C 
ATOM     21  O   UNL     1      -0.781  10.255  23.644  0.00  0.00    +0.000 OA
ATOM     22  N   UNL     1      -1.221  12.121  22.397  0.00  0.00    +0.000 N 
ATOM     23  H   UNL     1      -1.304  12.476  21.453  0.00  0.00    +0.000 HD
BRANCH  22  24
ATOM     24  C   UNL     1      -2.043  12.743  23.433  0.00  0.00    +0.000 C 
ATOM     25  C   UNL     1      -3.512  12.374  23.270  0.00  0.00    +0.000 C 
ATOM     26  C   UNL     1      -4.016  13.489  22.368  0.00  0.00    +0.000 C 
ATOM     27  N   UNL     1      -3.378  14.715  22.886  0.00  0.00    +0.000 NA
ATOM     28  C   UNL     1      -2.025  14.277  23.311  0.00  0.00    +0.000 C 
BRANCH  27  29
ATOM     29  C   UNL     1      -4.149  15.278  24.014  0.00  0.00    +0.000 C 
BRANCH  29  30
ATOM     30  C   UNL     1      -5.351  16.044  23.517  0.00  0.00    +0.000 A 
ATOM     31  C   UNL     1      -5.317  17.282  22.786  0.00  0.00    +0.000 A 
ATOM     32  C   UNL     1      -6.576  17.786  22.535  0.00  0.00    +0.000 A 
ATOM     33  S   UNL     1      -7.807  16.750  23.105  0.00  0.00    +0.000 S 
ATOM     34  C   UNL     1      -6.660  15.636  23.707  0.00  0.00    +0.000 A 
ENDBRANCH  29  30
ENDBRANCH  27  29
ENDBRANCH  22  24
ENDBRANCH   4  20
TORSDOF 7
ENDMDL
MODEL 2
REMARK VINA RESULT:      -7.4      0.672      1.222
REMARK  Name = 
REMARK  9 active torsions:
REMARK  status: ('A' for Active; 'I' for Inactive)
REMARK    1  A    between atoms: C_1  and  C_2
REMARK    2  A    between atoms: C_2  and  C_3
REMARK    3  A    between atoms: C_2  and  C_4
REMARK    4  A    between atoms: C_7  and  N_8
REMARK    5  A    between atoms: C_9  and  C_11
REMARK    6  A    between atoms: C_14  and  C_15
REMARK    7  A    between atoms: N_17  and  C_18
REMARK    8  A    between atoms: N_21  and  C_22
REMARK    9  A    between atoms: C_22  and  C_23
REMARK                            x       y       z     vdW  Elec       q    Type
REMARK                         _______ _______ _______ _____ _____    ______ ____
ROOT
ATOM      1  C   UNL     1       1.248   9.185  19.412  0.00  0.00    +0.000 A 
ATOM      2  C   UNL     1       1.293   8.677  20.716  0.00  0.00    +0.000 A 
ATOM      3  C   UNL     1       0.520   9.267  21.713  0.00  0.00    +0.000 A 
ATOM      4  C   UNL     1      -0.292  10.372  21.428  0.00  0.00    +0.000 A 
ATOM      5  C   UNL     1      -0.304  10.911  20.136  0.00  0.00    +0.000 A 
ATOM      6  C   UNL     1       0.473  10.321  19.131  0.00  0.00    +0.000 A 
ENDROOT
BRANCH   1   8
ATOM      7  N   UNL     1       2.720   7.401  18.687  0.00  0.00    +0.000 N 
ATOM      8  C   UNL     1       2.022   8.543  18.320  0.00  0.00    +0.000 C 
ATOM      9  O   UNL     1       1.931   9.021  17.195  0.00  0.00    +0.000 OA
ATOM     10  H   UNL     1       2.556   7.021  19.608  0.00  0.00    +0.000 HD
BRANCH   7  14
ATOM     11  C   UNL     1       5.072   4.958  16.140  0.00  0.00    +0.000 A 
ATOM     12  C   UNL     1       5.339   6.327  16.252  0.00  0.00    +0.000 A 
ATOM     13  C   UNL     1       4.570   7.143  17.086  0.00  0.00    +0.000 A 
ATOM     14  C   UNL     1       3.518   6.613  17.827  0.00  0.00    +0.000 A 
ATOM     15  C   UNL     1       3.250   5.244  17.738  0.00  0.00    +0.000 A 
ATOM     16  C   UNL     1       4.015   4.426  16.894  0.00  0.00    +0.000 A 
BRANCH  11  18
ATOM     17  C   UNL     1       5.382   3.937  13.899  0.00  0.00    +0.000 C 
ATOM     18  C   UNL     1       5.989   4.092  15.294  0.00  0.00    +0.000 C 
ATOM     19  C   UNL     1       7.425   4.609  15.197  0.00  0.00    +0.000 C 
ENDBRANCH  11  18
ENDBRANCH   7  14
ENDBRANCH   1   8
BRANCH   4  20
ATOM     20  C   UNL     1      -1.077  10.944  22.556  0.00  0.00    +0.000 C 
ATOM     21  O   UNL     1      -1.028  10.419  23.658  0.00  0.00    +0.000 OA
ATOM     22  N   UNL     1      -1.868  12.036  22.274  0.00  0.00    +0.000 N 
ATOM     23  H   UNL     1      -2.061  12.270  21.309  0.00  0.00    +0.000 HD
BRANCH  22  24
ATOM     24  C   UNL     1      -2.737  12.605  23.300  0.00  0.00    +0.000 C 
ATOM     25  C   UNL     1      -4.149  12.823  22.771  0.00  0.00    +0.000 C 
ATOM     26  C   UNL     1      -4.064  14.240  22.226  0.00  0.00    +0.000 C 
ATOM     27  N   UNL     1      -3.280  14.987  23.229  0.00  0.00    +0.000 NA
ATOM     28  C   UNL     1      -2.268  14.013  23.709  0.00  0.00    +0.000 C 
BRANCH  27  29
ATOM     29  C   UNL     1      -4.145  15.462  24.330  0.00  0.00    +0.000 C 
BRANCH  29  30
ATOM     30  C   UNL     1      -5.152  16.469  23.829  0.00  0.00    +0.000 A 
ATOM     31  C   UNL     1      -6.569  16.258  23.717  0.00  0.00    +0.000 A 
ATOM     32  C   UNL     1      -7.224  17.333  23.153  0.00  0.00    +0.000 A 
ATOM     33  S   UNL     1      -6.163  18.629  22.823  0.00  0.00    +0.000 S 
ATOM     34  C   UNL     1      -4.823  17.749  23.413  0.00  0.00    +0.000 A 
ENDBRANCH  29  30
ENDBRANCH  27  29
ENDBRANCH  22  24
ENDBRANCH   4  20
TORSDOF 7
ENDMDL
MODEL 3
REMARK VINA RESULT:      -7.4      4.332     13.129
REMARK  Name = 
REMARK  9 active torsions:
REMARK  status: ('A' for Active; 'I' for Inactive)
REMARK    1  A    between atoms: C_1  and  C_2
REMARK    2  A    between atoms: C_2  and  C_3
REMARK    3  A    between atoms: C_2  and  C_4
REMARK    4  A    between atoms: C_7  and  N_8
REMARK    5  A    between atoms: C_9  and  C_11
REMARK    6  A    between atoms: C_14  and  C_15
REMARK    7  A    between atoms: N_17  and  C_18
REMARK    8  A    between atoms: N_21  and  C_22
REMARK    9  A    between atoms: C_22  and  C_23
REMARK                            x       y       z     vdW  Elec       q    Type
REMARK                         _______ _______ _______ _____ _____    ______ ____
ROOT
ATOM      1  C   UNL     1       0.258   9.844  20.801  0.00  0.00    +0.000 A 
ATOM      2  C   UNL     1       1.055   9.809  19.650  0.00  0.00    +0.000 A 
ATOM      3  C   UNL     1       1.768   8.654  19.340  0.00  0.00    +0.000 A 
ATOM      4  C   UNL     1       1.707   7.530  20.174  0.00  0.00    +0.000 A 
ATOM      5  C   UNL     1       0.948   7.578  21.350  0.00  0.00    +0.000 A 
ATOM      6  C   UNL     1       0.231   8.739  21.666  0.00  0.00    +0.000 A 
ENDROOT
BRANCH   1   8
ATOM      7  N   UNL     1      -0.765  11.260  22.482  0.00  0.00    +0.000 N 
ATOM      8  C   UNL     1      -0.552  11.045  21.128  0.00  0.00    +0.000 C 
ATOM      9  O   UNL     1      -0.901  11.769  20.203  0.00  0.00    +0.000 OA
ATOM     10  H   UNL     1      -0.262  10.679  23.139  0.00  0.00    +0.000 HD
BRANCH   7  14
ATOM     11  C   UNL     1      -2.872  14.540  24.150  0.00  0.00    +0.000 A 
ATOM     12  C   UNL     1      -3.468  13.276  24.083  0.00  0.00    +0.000 A 
ATOM     13  C   UNL     1      -2.785  12.188  23.534  0.00  0.00    +0.000 A 
ATOM     14  C   UNL     1      -1.493  12.335  23.039  0.00  0.00    +0.000 A 
ATOM     15  C   UNL     1      -0.878  13.588  23.114  0.00  0.00    +0.000 A 
ATOM     16  C   UNL     1      -1.566  14.683  23.657  0.00  0.00    +0.000 A 
BRANCH  11  18
ATOM     17  C   UNL     1      -2.685  16.881  24.954  0.00  0.00    +0.000 C 
ATOM     18  C   UNL     1      -3.614  15.673  24.837  0.00  0.00    +0.000 C 
ATOM     19  C   UNL     1      -4.923  16.071  24.152  0.00  0.00    +0.000 C 
ENDBRANCH  11  18
ENDBRANCH   7  14
ENDBRANCH   1   8
BRANCH   4  20
ATOM     20  C   UNL     1       2.508   6.343  19.770  0.00  0.00    +0.000 C 
ATOM     21  O   UNL     1       2.484   5.332  20.455  0.00  0.00    +0.000 OA
ATOM     22  N   UNL     1       3.286   6.472  18.640  0.00  0.00    +0.000 N 
ATOM     23  H   UNL     1       3.460   7.395  18.263  0.00  0.00    +0.000 HD
BRANCH  22  24
ATOM     24  C   UNL     1       4.171   5.387  18.223  0.00  0.00    +0.000 C 
ATOM     25  C   UNL     1       5.575   5.571  18.784  0.00  0.00    +0.000 C 
ATOM     26  C   UNL     1       6.247   6.382  17.687  0.00  0.00    +0.000 C 
ATOM     27  N   UNL     1       5.781   5.774  16.426  0.00  0.00    +0.000 NA
ATOM     28  C   UNL     1       4.373   5.390  16.697  0.00  0.00    +0.000 C 
BRANCH  27  29
ATOM     29  C   UNL     1       6.606   4.602  16.066  0.00  0.00    +0.000 C 
BRANCH  29  30
ATOM     30  C   UNL     1       6.669   4.426  14.567  0.00  0.00    +0.000 A 
ATOM     31  C   UNL     1       5.822   3.567  13.784  0.00  0.00    +0.000 A 
ATOM     32  C   UNL     1       6.166   3.555  12.449  0.00  0.00    +0.000 A 
ATOM     33  S   UNL     1       7.453   4.624  12.108  0.00  0.00    +0.000 S 
ATOM     34  C   UNL     1       7.567   5.089  13.748  0.00  0.00    +0.000 A 
ENDBRANCH  29  30
ENDBRANCH  27  29
ENDBRANCH  22  24
ENDBRANCH   4  20
TORSDOF 7
ENDMDL
MODEL 4
REMARK VINA RESULT:      -7.3      4.290     13.139
REMARK  Name = 
REMARK  9 active torsions:
REMARK  status: ('A' for Active; 'I' for Inactive)
REMARK    1  A    between atoms: C_1  and  C_2
REMARK    2  A    between atoms: C_2  and  C_3
REMARK    3  A    between atoms: C_2  and  C_4
REMARK    4  A    between atoms: C_7  and  N_8
REMARK    5  A    between atoms: C_9  and  C_11
REMARK    6  A    between atoms: C_14  and  C_15
REMARK    7  A    between atoms: N_17  and  C_18
REMARK    8  A    between atoms: N_21  and  C_22
REMARK    9  A    between atoms: C_22  and  C_23
REMARK                            x       y       z     vdW  Elec       q    Type
REMARK                         _______ _______ _______ _____ _____    ______ ____
ROOT
ATOM      1  C   UNL     1       0.709  10.219  19.963  0.00  0.00    +0.000 A 
ATOM      2  C   UNL     1       1.146  10.109  18.637  0.00  0.00    +0.000 A 
ATOM      3  C   UNL     1       1.794   8.949  18.218  0.00  0.00    +0.000 A 
ATOM      4  C   UNL     1       2.023   7.896  19.112  0.00  0.00    +0.000 A 
ATOM      5  C   UNL     1       1.628   8.021  20.449  0.00  0.00    +0.000 A 
ATOM      6  C   UNL     1       0.978   9.187  20.875  0.00  0.00    +0.000 A 
ENDROOT
BRANCH   1   8
ATOM      7  N   UNL     1      -1.154  11.164  21.192  0.00  0.00    +0.000 N 
ATOM      8  C   UNL     1      -0.029  11.422  20.422  0.00  0.00    +0.000 C 
ATOM      9  O   UNL     1       0.441  12.521  20.149  0.00  0.00    +0.000 OA
ATOM     10  H   UNL     1      -1.317  10.212  21.488  0.00  0.00    +0.000 HD
BRANCH   7  14
ATOM     11  C   UNL     1      -3.740  14.129  22.775  0.00  0.00    +0.000 A 
ATOM     12  C   UNL     1      -3.002  13.303  23.630  0.00  0.00    +0.000 A 
ATOM     13  C   UNL     1      -2.149  12.321  23.121  0.00  0.00    +0.000 A 
ATOM     14  C   UNL     1      -2.011  12.141  21.749  0.00  0.00    +0.000 A 
ATOM     15  C   UNL     1      -2.729  12.969  20.881  0.00  0.00    +0.000 A 
ATOM     16  C   UNL     1      -3.592  13.949  21.392  0.00  0.00    +0.000 A 
BRANCH  11  18
ATOM     17  C   UNL     1      -5.957  14.683  23.742  0.00  0.00    +0.000 C 
ATOM     18  C   UNL     1      -4.584  15.242  23.369  0.00  0.00    +0.000 C 
ATOM     19  C   UNL     1      -3.947  15.939  24.573  0.00  0.00    +0.000 C 
ENDBRANCH  11  18
ENDBRANCH   7  14
ENDBRANCH   1   8
BRANCH   4  20
ATOM     20  C   UNL     1       2.730   6.699  18.580  0.00  0.00    +0.000 C 
ATOM     21  O   UNL     1       2.141   5.631  18.500  0.00  0.00    +0.000 OA
ATOM     22  N   UNL     1       4.055   6.858  18.240  0.00  0.00    +0.000 N 
ATOM     23  H   UNL     1       4.551   7.681  18.557  0.00  0.00    +0.000 HD
BRANCH  22  24
ATOM     24  C   UNL     1       4.848   5.715  17.794  0.00  0.00    +0.000 C 
ATOM     25  C   UNL     1       6.231   5.718  18.431  0.00  0.00    +0.000 C 
ATOM     26  C   UNL     1       7.038   6.520  17.423  0.00  0.00    +0.000 C 
ATOM     27  N   UNL     1       6.582   6.041  16.104  0.00  0.00    +0.000 NA
ATOM     28  C   UNL     1       5.130   5.789  16.283  0.00  0.00    +0.000 C 
BRANCH  27  29
ATOM     29  C   UNL     1       7.303   4.814  15.707  0.00  0.00    +0.000 C 
BRANCH  29  30
ATOM     30  C   UNL     1       7.027   4.469  14.263  0.00  0.00    +0.000 A 
ATOM     31  C   UNL     1       7.687   5.038  13.120  0.00  0.00    +0.000 A 
ATOM     32  C   UNL     1       7.168   4.585  11.925  0.00  0.00    +0.000 A 
ATOM     33  S   UNL     1       5.940   3.422  12.159  0.00  0.00    +0.000 S 
ATOM     34  C   UNL     1       6.085   3.537  13.858  0.00  0.00    +0.000 A 
ENDBRANCH  29  30
ENDBRANCH  27  29
ENDBRANCH  22  24
ENDBRANCH   4  20
TORSDOF 7
ENDMDL
MODEL 5
REMARK VINA RESULT:      -7.1      3.803     12.817
REMARK  Name = 
REMARK  9 active torsions:
REMARK  status: ('A' for Active; 'I' for Inactive)
REMARK    1  A    between atoms: C_1  and  C_2
REMARK    2  A    between atoms: C_2  and  C_3
REMARK    3  A    between atoms: C_2  and  C_4
REMARK    4  A    between atoms: C_7  and  N_8
REMARK    5  A    between atoms: C_9  and  C_11
REMARK    6  A    between atoms: C_14  and  C_15
REMARK    7  A    between atoms: N_17  and  C_18
REMARK    8  A    between atoms: N_21  and  C_22
REMARK    9  A    between atoms: C_22  and  C_23
REMARK                            x       y       z     vdW  Elec       q    Type
REMARK                         _______ _______ _______ _____ _____    ______ ____
ROOT
ATOM      1  C   UNL     1      -0.471  10.965  21.144  0.00  0.00    +0.000 A 
ATOM      2  C   UNL     1       0.281   9.901  21.658  0.00  0.00    +0.000 A 
ATOM      3  C   UNL     1       1.035   9.109  20.797  0.00  0.00    +0.000 A 
ATOM      4  C   UNL     1       1.040   9.357  19.418  0.00  0.00    +0.000 A 
ATOM      5  C   UNL     1       0.253  10.390  18.895  0.00  0.00    +0.000 A 
ATOM      6  C   UNL     1      -0.508  11.188  19.759  0.00  0.00    +0.000 A 
ENDROOT
BRANCH   1   8
ATOM      7  N   UNL     1      -2.296  12.531  21.446  0.00  0.00    +0.000 N 
ATOM      8  C   UNL     1      -1.242  11.856  22.046  0.00  0.00    +0.000 C 
ATOM      9  O   UNL     1      -0.939  11.872  23.233  0.00  0.00    +0.000 OA
ATOM     10  H   UNL     1      -2.541  12.280  20.498  0.00  0.00    +0.000 HD
BRANCH   7  14
ATOM     11  C   UNL     1      -4.872  15.282  23.391  0.00  0.00    +0.000 A 
ATOM     12  C   UNL     1      -5.232  13.935  23.276  0.00  0.00    +0.000 A 
ATOM     13  C   UNL     1      -4.393  13.019  22.635  0.00  0.00    +0.000 A 
ATOM     14  C   UNL     1      -3.177  13.425  22.096  0.00  0.00    +0.000 A 
ATOM     15  C   UNL     1      -2.796  14.765  22.217  0.00  0.00    +0.000 A 
ATOM     16  C   UNL     1      -3.641  15.686  22.852  0.00  0.00    +0.000 A 
BRANCH  11  18
ATOM     17  C   UNL     1      -4.900  17.186  24.982  0.00  0.00    +0.000 C 
ATOM     18  C   UNL     1      -5.770  16.223  24.174  0.00  0.00    +0.000 C 
ATOM     19  C   UNL     1      -6.767  16.999  23.312  0.00  0.00    +0.000 C 
ENDBRANCH  11  18
ENDBRANCH   7  14
ENDBRANCH   1   8
BRANCH   4  20
ATOM     20  C   UNL     1       1.867   8.454  18.572  0.00  0.00    +0.000 C 
ATOM     21  O   UNL     1       2.246   8.830  17.473  0.00  0.00    +0.000 OA
ATOM     22  N   UNL     1       2.128   7.197  19.071  0.00  0.00    +0.000 N 
ATOM     23  H   UNL     1       1.589   6.857  19.858  0.00  0.00    +0.000 HD
BRANCH  22  24
ATOM     24  C   UNL     1       2.857   6.218  18.269  0.00  0.00    +0.000 C 
ATOM     25  C   UNL     1       1.974   5.030  17.910  0.00  0.00    +0.000 C 
ATOM     26  C   UNL     1       2.227   4.087  19.076  0.00  0.00    +0.000 C 
ATOM     27  N   UNL     1       3.680   4.174  19.324  0.00  0.00    +0.000 NA
ATOM     28  C   UNL     1       4.016   5.596  19.067  0.00  0.00    +0.000 C 
BRANCH  27  29
ATOM     29  C   UNL     1       4.426   3.266  18.428  0.00  0.00    +0.000 C 
BRANCH  29  30
ATOM     30  C   UNL     1       5.450   4.027  17.620  0.00  0.00    +0.000 A 
ATOM     31  C   UNL     1       6.637   4.650  18.139  0.00  0.00    +0.000 A 
ATOM     32  C   UNL     1       7.341   5.340  17.174  0.00  0.00    +0.000 A 
ATOM     33  S   UNL     1       6.629   5.188  15.629  0.00  0.00    +0.000 S 
ATOM     34  C   UNL     1       5.368   4.217  16.250  0.00  0.00    +0.000 A 
ENDBRANCH  29  30
ENDBRANCH  27  29
ENDBRANCH  22  24
ENDBRANCH   4  20
TORSDOF 7
ENDMDL
MODEL 6
REMARK VINA RESULT:      -7.1      1.576      2.258
REMARK  Name = 
REMARK  9 active torsions:
REMARK  status: ('A' for Active; 'I' for Inactive)
REMARK    1  A    between atoms: C_1  and  C_2
REMARK    2  A    between atoms: C_2  and  C_3
REMARK    3  A    between atoms: C_2  and  C_4
REMARK    4  A    between atoms: C_7  and  N_8
REMARK    5  A    between atoms: C_9  and  C_11
REMARK    6  A    between atoms: C_14  and  C_15
REMARK    7  A    between atoms: N_17  and  C_18
REMARK    8  A    between atoms: N_21  and  C_22
REMARK    9  A    between atoms: C_22  and  C_23
REMARK                            x       y       z     vdW  Elec       q    Type
REMARK                         _______ _______ _______ _____ _____    ______ ____
ROOT
ATOM      1  C   UNL     1       0.692   8.987  20.970  0.00  0.00    +0.000 A 
ATOM      2  C   UNL     1       0.539  10.197  20.281  0.00  0.00    +0.000 A 
ATOM      3  C   UNL     1      -0.143  11.252  20.880  0.00  0.00    +0.000 A 
ATOM      4  C   UNL     1      -0.691  11.111  22.162  0.00  0.00    +0.000 A 
ATOM      5  C   UNL     1      -0.581   9.889  22.836  0.00  0.00    +0.000 A 
ATOM      6  C   UNL     1       0.105   8.825  22.234  0.00  0.00    +0.000 A 
ENDROOT
BRANCH   1   8
ATOM      7  N   UNL     1       2.030   8.134  19.138  0.00  0.00    +0.000 N 
ATOM      8  C   UNL     1       1.459   7.865  20.374  0.00  0.00    +0.000 C 
ATOM      9  O   UNL     1       1.581   6.840  21.034  0.00  0.00    +0.000 OA
ATOM     10  H   UNL     1       1.997   9.085  18.798  0.00  0.00    +0.000 HD
BRANCH   7  14
ATOM     11  C   UNL     1       4.321   5.356  16.898  0.00  0.00    +0.000 A 
ATOM     12  C   UNL     1       4.667   6.712  16.911  0.00  0.00    +0.000 A 
ATOM     13  C   UNL     1       3.919   7.637  17.643  0.00  0.00    +0.000 A 
ATOM     14  C   UNL     1       2.810   7.233  18.379  0.00  0.00    +0.000 A 
ATOM     15  C   UNL     1       2.461   5.879  18.388  0.00  0.00    +0.000 A 
ATOM     16  C   UNL     1       3.206   4.951  17.647  0.00  0.00    +0.000 A 
BRANCH  11  18
ATOM     17  C   UNL     1       5.306   4.781  14.694  0.00  0.00    +0.000 C 
ATOM     18  C   UNL     1       5.214   4.371  16.164  0.00  0.00    +0.000 C 
ATOM     19  C   UNL     1       6.613   4.224  16.765  0.00  0.00    +0.000 C 
ENDBRANCH  11  18
ENDBRANCH   7  14
ENDBRANCH   1   8
BRANCH   4  20
ATOM     20  C   UNL     1      -1.412  12.287  22.722  0.00  0.00    +0.000 C 
ATOM     21  O   UNL     1      -0.855  13.373  22.775  0.00  0.00    +0.000 OA
ATOM     22  N   UNL     1      -2.685  12.067  23.201  0.00  0.00    +0.000 N 
ATOM     23  H   UNL     1      -2.995  11.117  23.360  0.00  0.00    +0.000 HD
BRANCH  22  24
ATOM     24  C   UNL     1      -3.430  13.145  23.847  0.00  0.00    +0.000 C 
ATOM     25  C   UNL     1      -4.524  12.595  24.753  0.00  0.00    +0.000 C 
ATOM     26  C   UNL     1      -5.706  12.510  23.801  0.00  0.00    +0.000 C 
ATOM     27  N   UNL     1      -5.641  13.751  23.004  0.00  0.00    +0.000 NA
ATOM     28  C   UNL     1      -4.189  13.994  22.814  0.00  0.00    +0.000 C 
BRANCH  27  29
ATOM     29  C   UNL     1      -6.293  14.871  23.714  0.00  0.00    +0.000 C 
BRANCH  29  30
ATOM     30  C   UNL     1      -6.403  16.085  22.822  0.00  0.00    +0.000 A 
ATOM     31  C   UNL     1      -5.881  17.393  23.112  0.00  0.00    +0.000 A 
ATOM     32  C   UNL     1      -6.203  18.321  22.145  0.00  0.00    +0.000 A 
ATOM     33  S   UNL     1      -7.066  17.622  20.848  0.00  0.00    +0.000 S 
ATOM     34  C   UNL     1      -7.029  16.082  21.587  0.00  0.00    +0.000 A 
ENDBRANCH  29  30
ENDBRANCH  27  29
ENDBRANCH  22  24
ENDBRANCH   4  20
TORSDOF 7
ENDMDL
MODEL 7
REMARK VINA RESULT:      -7.1      4.283     13.153
REMARK  Name = 
REMARK  9 active torsions:
REMARK  status: ('A' for Active; 'I' for Inactive)
REMARK    1  A    between atoms: C_1  and  C_2
REMARK    2  A    between atoms: C_2  and  C_3
REMARK    3  A    between atoms: C_2  and  C_4
REMARK    4  A    between atoms: C_7  and  N_8
REMARK    5  A    between atoms: C_9  and  C_11
REMARK    6  A    between atoms: C_14  and  C_15
REMARK    7  A    between atoms: N_17  and  C_18
REMARK    8  A    between atoms: N_21  and  C_22
REMARK    9  A    between atoms: C_22  and  C_23
REMARK                            x       y       z     vdW  Elec       q    Type
REMARK                         _______ _______ _______ _____ _____    ______ ____
ROOT
ATOM      1  C   UNL     1       0.345  10.522  19.798  0.00  0.00    +0.000 A 
ATOM      2  C   UNL     1       0.603   9.534  20.756  0.00  0.00    +0.000 A 
ATOM      3  C   UNL     1       1.375   8.426  20.415  0.00  0.00    +0.000 A 
ATOM      4  C   UNL     1       1.886   8.283  19.118  0.00  0.00    +0.000 A 
ATOM      5  C   UNL     1       1.591   9.245  18.144  0.00  0.00    +0.000 A 
ATOM      6  C   UNL     1       0.813  10.360  18.485  0.00  0.00    +0.000 A 
ENDROOT
BRANCH   1   8
ATOM      7  N   UNL     1      -1.119  11.667  21.353  0.00  0.00    +0.000 N 
ATOM      8  C   UNL     1      -0.431  11.737  20.150  0.00  0.00    +0.000 C 
ATOM      9  O   UNL     1      -0.351  12.705  19.403  0.00  0.00    +0.000 OA
ATOM     10  H   UNL     1      -0.946  10.872  21.952  0.00  0.00    +0.000 HD
BRANCH   7  14
ATOM     11  C   UNL     1      -3.591  14.711  22.968  0.00  0.00    +0.000 A 
ATOM     12  C   UNL     1      -2.200  14.786  23.097  0.00  0.00    +0.000 A 
ATOM     13  C   UNL     1      -1.375  13.789  22.571  0.00  0.00    +0.000 A 
ATOM     14  C   UNL     1      -1.917  12.694  21.906  0.00  0.00    +0.000 A 
ATOM     15  C   UNL     1      -3.305  12.613  21.755  0.00  0.00    +0.000 A 
ATOM     16  C   UNL     1      -4.134  13.609  22.289  0.00  0.00    +0.000 A 
BRANCH  11  18
ATOM     17  C   UNL     1      -5.826  15.328  23.854  0.00  0.00    +0.000 C 
ATOM     18  C   UNL     1      -4.444  15.861  23.473  0.00  0.00    +0.000 C 
ATOM     19  C   UNL     1      -3.828  16.632  24.641  0.00  0.00    +0.000 C 
ENDBRANCH  11  18
ENDBRANCH   7  14
ENDBRANCH   1   8
BRANCH   4  20
ATOM     20  C   UNL     1       2.692   7.064  18.839  0.00  0.00    +0.000 C 
ATOM     21  O   UNL     1       2.628   6.106  19.595  0.00  0.00    +0.000 OA
ATOM     22  N   UNL     1       3.520   7.103  17.739  0.00  0.00    +0.000 N 
ATOM     23  H   UNL     1       3.719   7.993  17.302  0.00  0.00    +0.000 HD
BRANCH  22  24
ATOM     24  C   UNL     1       4.411   5.984  17.442  0.00  0.00    +0.000 C 
ATOM     25  C   UNL     1       5.706   6.081  18.239  0.00  0.00    +0.000 C 
ATOM     26  C   UNL     1       6.593   6.882  17.299  0.00  0.00    +0.000 C 
ATOM     27  N   UNL     1       6.321   6.329  15.958  0.00  0.00    +0.000 NA
ATOM     28  C   UNL     1       4.871   6.012  15.974  0.00  0.00    +0.000 C 
BRANCH  27  29
ATOM     29  C   UNL     1       7.140   5.125  15.705  0.00  0.00    +0.000 C 
BRANCH  29  30
ATOM     30  C   UNL     1       6.942   4.624  14.295  0.00  0.00    +0.000 A 
ATOM     31  C   UNL     1       7.612   5.121  13.124  0.00  0.00    +0.000 A 
ATOM     32  C   UNL     1       7.169   4.521  11.963  0.00  0.00    +0.000 A 
ATOM     33  S   UNL     1       6.006   3.310  12.270  0.00  0.00    +0.000 S 
ATOM     34  C   UNL     1       6.076   3.599  13.953  0.00  0.00    +0.000 A 
ENDBRANCH  29  30
ENDBRANCH  27  29
ENDBRANCH  22  24
ENDBRANCH   4  20
TORSDOF 7
ENDMDL
MODEL 8
REMARK VINA RESULT:      -7.0      4.240     13.107
REMARK  Name = 
REMARK  9 active torsions:
REMARK  status: ('A' for Active; 'I' for Inactive)
REMARK    1  A    between atoms: C_1  and  C_2
REMARK    2  A    between atoms: C_2  and  C_3
REMARK    3  A    between atoms: C_2  and  C_4
REMARK    4  A    between atoms: C_7  and  N_8
REMARK    5  A    between atoms: C_9  and  C_11
REMARK    6  A    between atoms: C_14  and  C_15
REMARK    7  A    between atoms: N_17  and  C_18
REMARK    8  A    between atoms: N_21  and  C_22
REMARK    9  A    between atoms: C_22  and  C_23
REMARK                            x       y       z     vdW  Elec       q    Type
REMARK                         _______ _______ _______ _____ _____    ______ ____
ROOT
ATOM      1  C   UNL     1       0.815  10.112  20.262  0.00  0.00    +0.000 A 
ATOM      2  C   UNL     1       1.216  10.083  18.921  0.00  0.00    +0.000 A 
ATOM      3  C   UNL     1       1.822   8.939  18.407  0.00  0.00    +0.000 A 
ATOM      4  C   UNL     1       2.047   7.822  19.221  0.00  0.00    +0.000 A 
ATOM      5  C   UNL     1       1.690   7.865  20.574  0.00  0.00    +0.000 A 
ATOM      6  C   UNL     1       1.081   9.015  21.095  0.00  0.00    +0.000 A 
ENDROOT
BRANCH   1   8
ATOM      7  N   UNL     1      -1.261  11.193  20.892  0.00  0.00    +0.000 N 
ATOM      8  C   UNL     1       0.121  11.299  20.821  0.00  0.00    +0.000 C 
ATOM      9  O   UNL     1       0.810  12.227  21.229  0.00  0.00    +0.000 OA
ATOM     10  H   UNL     1      -1.678  10.296  20.688  0.00  0.00    +0.000 HD
BRANCH   7  14
ATOM     11  C   UNL     1      -3.879  14.126  22.482  0.00  0.00    +0.000 A 
ATOM     12  C   UNL     1      -3.707  14.006  21.099  0.00  0.00    +0.000 A 
ATOM     13  C   UNL     1      -2.845  13.046  20.563  0.00  0.00    +0.000 A 
ATOM     14  C   UNL     1      -2.137  12.183  21.392  0.00  0.00    +0.000 A 
ATOM     15  C   UNL     1      -2.311  12.280  22.776  0.00  0.00    +0.000 A 
ATOM     16  C   UNL     1      -3.169  13.249  23.315  0.00  0.00    +0.000 A 
BRANCH  11  18
ATOM     17  C   UNL     1      -4.783  16.423  22.223  0.00  0.00    +0.000 C 
ATOM     18  C   UNL     1      -4.893  15.121  23.017  0.00  0.00    +0.000 C 
ATOM     19  C   UNL     1      -6.336  14.612  23.010  0.00  0.00    +0.000 C 
ENDBRANCH  11  18
ENDBRANCH   7  14
ENDBRANCH   1   8
BRANCH   4  20
ATOM     20  C   UNL     1       2.708   6.647  18.591  0.00  0.00    +0.000 C 
ATOM     21  O   UNL     1       2.035   5.702  18.209  0.00  0.00    +0.000 OA
ATOM     22  N   UNL     1       4.083   6.675  18.512  0.00  0.00    +0.000 N 
ATOM     23  H   UNL     1       4.596   7.354  19.060  0.00  0.00    +0.000 HD
BRANCH  22  24
ATOM     24  C   UNL     1       4.819   5.526  17.988  0.00  0.00    +0.000 C 
ATOM     25  C   UNL     1       6.204   5.424  18.613  0.00  0.00    +0.000 C 
ATOM     26  C   UNL     1       7.043   6.249  17.650  0.00  0.00    +0.000 C 
ATOM     27  N   UNL     1       6.557   5.876  16.308  0.00  0.00    +0.000 NA
ATOM     28  C   UNL     1       5.096   5.681  16.483  0.00  0.00    +0.000 C 
BRANCH  27  29
ATOM     29  C   UNL     1       7.217   4.644  15.829  0.00  0.00    +0.000 C 
BRANCH  29  30
ATOM     30  C   UNL     1       6.955   4.427  14.357  0.00  0.00    +0.000 A 
ATOM     31  C   UNL     1       7.665   5.052  13.275  0.00  0.00    +0.000 A 
ATOM     32  C   UNL     1       7.151   4.720  12.039  0.00  0.00    +0.000 A 
ATOM     33  S   UNL     1       5.864   3.604  12.159  0.00  0.00    +0.000 S 
ATOM     34  C   UNL     1       5.979   3.578  13.863  0.00  0.00    +0.000 A 
ENDBRANCH  29  30
ENDBRANCH  27  29
ENDBRANCH  22  24
ENDBRANCH   4  20
TORSDOF 7
ENDMDL
MODEL 9
REMARK VINA RESULT:      -7.0      4.346     13.098
REMARK  Name = 
REMARK  9 active torsions:
REMARK  status: ('A' for Active; 'I' for Inactive)
REMARK    1  A    between atoms: C_1  and  C_2
REMARK    2  A    between atoms: C_2  and  C_3
REMARK    3  A    between atoms: C_2  and  C_4
REMARK    4  A    between atoms: C_7  and  N_8
REMARK    5  A    between atoms: C_9  and  C_11
REMARK    6  A    between atoms: C_14  and  C_15
REMARK    7  A    between atoms: N_17  and  C_18
REMARK    8  A    between atoms: N_21  and  C_22
REMARK    9  A    between atoms: C_22  and  C_23
REMARK                            x       y       z     vdW  Elec       q    Type
REMARK                         _______ _______ _______ _____ _____    ______ ____
ROOT
ATOM      1  C   UNL     1       0.471  10.185  19.867  0.00  0.00    +0.000 A 
ATOM      2  C   UNL     1       1.037   9.998  18.599  0.00  0.00    +0.000 A 
ATOM      3  C   UNL     1       1.789   8.855  18.341  0.00  0.00    +0.000 A 
ATOM      4  C   UNL     1       1.997   7.895  19.341  0.00  0.00    +0.000 A 
ATOM      5  C   UNL     1       1.472   8.101  20.622  0.00  0.00    +0.000 A 
ATOM      6  C   UNL     1       0.716   9.251  20.885  0.00  0.00    +0.000 A 
ENDROOT
BRANCH   1   8
ATOM      7  N   UNL     1      -0.620  11.607  21.498  0.00  0.00    +0.000 N 
ATOM      8  C   UNL     1      -0.377  11.369  20.153  0.00  0.00    +0.000 C 
ATOM      9  O   UNL     1      -0.729  12.063  19.207  0.00  0.00    +0.000 OA
ATOM     10  H   UNL     1      -0.113  11.055  22.176  0.00  0.00    +0.000 HD
BRANCH   7  14
ATOM     11  C   UNL     1      -2.868  14.868  23.012  0.00  0.00    +0.000 A 
ATOM     12  C   UNL     1      -3.091  13.572  23.490  0.00  0.00    +0.000 A 
ATOM     13  C   UNL     1      -2.359  12.489  22.998  0.00  0.00    +0.000 A 
ATOM     14  C   UNL     1      -1.388  12.673  22.019  0.00  0.00    +0.000 A 
ATOM     15  C   UNL     1      -1.143  13.965  21.543  0.00  0.00    +0.000 A 
ATOM     16  C   UNL     1      -1.884  15.051  22.031  0.00  0.00    +0.000 A 
BRANCH  11  18
ATOM     17  C   UNL     1      -3.498  15.938  25.161  0.00  0.00    +0.000 C 
ATOM     18  C   UNL     1      -3.622  16.027  23.640  0.00  0.00    +0.000 C 
ATOM     19  C   UNL     1      -3.176  17.405  23.148  0.00  0.00    +0.000 C 
ENDBRANCH  11  18
ENDBRANCH   7  14
ENDBRANCH   1   8
BRANCH   4  20
ATOM     20  C   UNL     1       2.821   6.710  18.979  0.00  0.00    +0.000 C 
ATOM     21  O   UNL     1       2.766   5.699  19.663  0.00  0.00    +0.000 OA
ATOM     22  N   UNL     1       3.654   6.839  17.890  0.00  0.00    +0.000 N 
ATOM     23  H   UNL     1       3.844   7.761  17.520  0.00  0.00    +0.000 HD
BRANCH  22  24
ATOM     24  C   UNL     1       4.562   5.756  17.519  0.00  0.00    +0.000 C 
ATOM     25  C   UNL     1       5.861   5.827  18.310  0.00  0.00    +0.000 C 
ATOM     26  C   UNL     1       6.726   6.699  17.415  0.00  0.00    +0.000 C 
ATOM     27  N   UNL     1       6.453   6.225  16.044  0.00  0.00    +0.000 NA
ATOM     28  C   UNL     1       5.009   5.882  16.052  0.00  0.00    +0.000 C 
BRANCH  27  29
ATOM     29  C   UNL     1       7.290   5.053  15.712  0.00  0.00    +0.000 C 
BRANCH  29  30
ATOM     30  C   UNL     1       7.040   4.595  14.295  0.00  0.00    +0.000 A 
ATOM     31  C   UNL     1       7.717   5.079  13.123  0.00  0.00    +0.000 A 
ATOM     32  C   UNL     1       7.221   4.531  11.958  0.00  0.00    +0.000 A 
ATOM     33  S   UNL     1       5.996   3.382  12.261  0.00  0.00    +0.000 S 
ATOM     34  C   UNL     1       6.110   3.629  13.947  0.00  0.00    +0.000 A 
ENDBRANCH  29  30
ENDBRANCH  27  29
ENDBRANCH  22  24
ENDBRANCH   4  20
TORSDOF 7
ENDMDL
