MODEL 1
REMARK VINA RESULT:      -7.7      0.000      0.000
REMARK  Name = 
REMARK  8 active torsions:
REMARK  status: ('A' for Active; 'I' for Inactive)
REMARK    1  A    between atoms: C_1  and  C_2
REMARK    2  A    between atoms: C_5  and  O_6
REMARK    3  A    between atoms: O_6  and  C_7
REMARK    4  A    between atoms: C_7  and  C_8
REMARK    5  A    between atoms: C_8  and  O_9
REMARK    6  A    between atoms: O_9  and  C_10
REMARK    7  A    between atoms: C_14  and  C_15
REMARK    8  A    between atoms: N_16  and  N_17
REMARK                            x       y       z     vdW  Elec       q    Type
REMARK                         _______ _______ _______ _____ _____    ______ ____
ROOT
ATOM      1  C   UNL     1       6.665   5.853  16.681  0.00  0.00    +0.000 A 
ATOM      2  C   UNL     1       6.184   5.272  15.506  0.00  0.00    +0.000 A 
ATOM      3  C   UNL     1       5.187   4.298  15.555  0.00  0.00    +0.000 A 
ATOM      4  C   UNL     1       4.677   3.877  16.781  0.00  0.00    +0.000 A 
ATOM      5  C   UNL     1       5.176   4.431  17.963  0.00  0.00    +0.000 A 
ATOM      6  C   UNL     1       6.174   5.413  17.914  0.00  0.00    +0.000 A 
ENDROOT
BRANCH   5   7
ATOM      7  C   UNL     1       4.628   3.955  19.252  0.00  0.00    +0.000 C 
ATOM      8  N   UNL     1       3.818   2.949  19.325  0.00  0.00    +0.000 NA
BRANCH   8   9
ATOM      9  N   UNL     1       3.401   2.633  20.589  0.00  0.00    +0.000 N 
ATOM     10  C   UNL     1       2.095   2.791  20.982  0.00  0.00    +0.000 C 
ATOM     11  N   UNL     1       1.271   3.261  20.017  0.00  0.00    +0.000 N 
ATOM     12  O   UNL     1       1.705   2.530  22.116  0.00  0.00    +0.000 OA
ATOM     13  H   UNL     1       4.047   2.285  21.287  0.00  0.00    +0.000 HD
ATOM     14  H   UNL     1       1.692   3.481  19.126  0.00  0.00    +0.000 HD
ATOM     15  H   UNL     1       0.299   3.437  20.213  0.00  0.00    +0.000 HD
ENDBRANCH   8   9
ENDBRANCH   5   7
BRANCH   1  16
ATOM     16  O   UNL     1       7.648   6.800  16.731  0.00  0.00    +0.000 OA
BRANCH  16  17
ATOM     17  C   UNL     1       7.871   7.463  17.983  0.00  0.00    +0.000 C 
BRANCH  17  18
ATOM     18  C   UNL     1       7.996   8.976  17.799  0.00  0.00    +0.000 C 
BRANCH  18  19
ATOM     19  O   UNL     1       8.849   9.508  18.817  0.00  0.00    +0.000 OA
BRANCH  19  24
ATOM     20  C   UNL     1      10.783  14.727  17.689  0.00  0.00    +0.000 C 
ATOM     21  C   UNL     1      10.291  13.339  17.976  0.00  0.00    +0.000 A 
ATOM     22  C   UNL     1       9.019  12.921  17.574  0.00  0.00    +0.000 A 
ATOM     23  C   UNL     1       8.575  11.628  17.868  0.00  0.00    +0.000 A 
ATOM     24  C   UNL     1       9.399  10.731  18.549  0.00  0.00    +0.000 A 
ATOM     25  C   UNL     1      10.667  11.145  18.955  0.00  0.00    +0.000 A 
ATOM     26  C   UNL     1      11.110  12.440  18.669  0.00  0.00    +0.000 A 
ENDBRANCH  19  24
ENDBRANCH  18  19
ENDBRANCH  17  18
ENDBRANCH  16  17
ENDBRANCH   1  16
TORSDOF 7
ENDMDL
MODEL 2
REMARK VINA RESULT:      -7.6      5.060      8.251
REMARK  Name = 
REMARK  8 active torsions:
REMARK  status: ('A' for Active; 'I' for Inactive)
REMARK    1  A    between atoms: C_1  and  C_2
REMARK    2  A    between atoms: C_5  and  O_6
REMARK    3  A    between atoms: O_6  and  C_7
REMARK    4  A    between atoms: C_7  and  C_8
REMARK    5  A    between atoms: C_8  and  O_9
REMARK    6  A    between atoms: O_9  and  C_10
REMARK    7  A    between atoms: C_14  and  C_15
REMARK    8  A    between atoms: N_16  and  N_17
REMARK                            x       y       z     vdW  Elec       q    Type
REMARK                         _______ _______ _______ _____ _____    ______ ____
ROOT
ATOM      1  C   UNL     1       6.877   6.361  17.104  0.00  0.00    +0.000 A 
ATOM      2  C   UNL     1       5.783   7.192  16.857  0.00  0.00    +0.000 A 
ATOM      3  C   UNL     1       4.895   6.905  15.820  0.00  0.00    +0.000 A 
ATOM      4  C   UNL     1       5.107   5.797  15.003  0.00  0.00    +0.000 A 
ATOM      5  C   UNL     1       6.218   4.978  15.225  0.00  0.00    +0.000 A 
ATOM      6  C   UNL     1       7.106   5.263  16.270  0.00  0.00    +0.000 A 
ENDROOT
BRANCH   5   7
ATOM      7  C   UNL     1       6.427   3.816  14.333  0.00  0.00    +0.000 C 
ATOM      8  N   UNL     1       6.347   3.915  13.046  0.00  0.00    +0.000 NA
BRANCH   8   9
ATOM      9  N   UNL     1       6.567   2.751  12.362  0.00  0.00    +0.000 N 
ATOM     10  C   UNL     1       5.615   2.204  11.537  0.00  0.00    +0.000 C 
ATOM     11  N   UNL     1       4.469   2.918  11.451  0.00  0.00    +0.000 N 
ATOM     12  O   UNL     1       5.785   1.151  10.930  0.00  0.00    +0.000 OA
ATOM     13  H   UNL     1       7.438   2.240  12.452  0.00  0.00    +0.000 HD
ATOM     14  H   UNL     1       4.408   3.752  12.017  0.00  0.00    +0.000 HD
ATOM     15  H   UNL     1       3.699   2.588  10.894  0.00  0.00    +0.000 HD
ENDBRANCH   8   9
ENDBRANCH   5   7
BRANCH   1  16
ATOM     16  O   UNL     1       7.803   6.571  18.086  0.00  0.00    +0.000 OA
BRANCH  16  17
ATOM     17  C   UNL     1       7.759   5.717  19.237  0.00  0.00    +0.000 C 
BRANCH  17  18
ATOM     18  C   UNL     1       6.321   5.349  19.605  0.00  0.00    +0.000 C 
BRANCH  18  19
ATOM     19  O   UNL     1       6.057   4.004  19.193  0.00  0.00    +0.000 OA
BRANCH  19  24
ATOM     20  C   UNL     1       0.580   2.570  18.749  0.00  0.00    +0.000 C 
ATOM     21  C   UNL     1       2.023   2.956  18.888  0.00  0.00    +0.000 A 
ATOM     22  C   UNL     1       2.616   3.879  18.022  0.00  0.00    +0.000 A 
ATOM     23  C   UNL     1       3.968   4.210  18.161  0.00  0.00    +0.000 A 
ATOM     24  C   UNL     1       4.739   3.639  19.174  0.00  0.00    +0.000 A 
ATOM     25  C   UNL     1       4.152   2.715  20.038  0.00  0.00    +0.000 A 
ATOM     26  C   UNL     1       2.803   2.377  19.896  0.00  0.00    +0.000 A 
ENDBRANCH  19  24
ENDBRANCH  18  19
ENDBRANCH  17  18
ENDBRANCH  16  17
ENDBRANCH   1  16
TORSDOF 7
ENDMDL
MODEL 3
REMARK VINA RESULT:      -7.5      5.564      8.102
REMARK  Name = 
REMARK  8 active torsions:
REMARK  status: ('A' for Active; 'I' for Inactive)
REMARK    1  A    between atoms: C_1  and  C_2
REMARK    2  A    between atoms: C_5  and  O_6
REMARK    3  A    between atoms: O_6  and  C_7
REMARK    4  A    between atoms: C_7  and  C_8
REMARK    5  A    between atoms: C_8  and  O_9
REMARK    6  A    between atoms: O_9  and  C_10
REMARK    7  A    between atoms: C_14  and  C_15
REMARK    8  A    between atoms: N_16  and  N_17
REMARK                            x       y       z     vdW  Elec       q    Type
REMARK                         _______ _______ _______ _____ _____    ______ ____
ROOT
ATOM      1  C   UNL     1       4.982   3.605  18.993  0.00  0.00    +0.000 A 
ATOM      2  C   UNL     1       5.345   4.802  19.613  0.00  0.00    +0.000 A 
ATOM      3  C   UNL     1       5.752   5.899  18.853  0.00  0.00    +0.000 A 
ATOM      4  C   UNL     1       5.821   5.803  17.466  0.00  0.00    +0.000 A 
ATOM      5  C   UNL     1       5.489   4.598  16.839  0.00  0.00    +0.000 A 
ATOM      6  C   UNL     1       5.076   3.498  17.602  0.00  0.00    +0.000 A 
ENDROOT
BRANCH   5   7
ATOM      7  C   UNL     1       5.586   4.519  15.365  0.00  0.00    +0.000 C 
ATOM      8  N   UNL     1       6.679   4.173  14.766  0.00  0.00    +0.000 NA
BRANCH   8   9
ATOM      9  N   UNL     1       6.606   4.148  13.400  0.00  0.00    +0.000 N 
ATOM     10  C   UNL     1       7.435   4.913  12.616  0.00  0.00    +0.000 C 
ATOM     11  N   UNL     1       8.324   5.665  13.305  0.00  0.00    +0.000 N 
ATOM     12  O   UNL     1       7.374   4.918  11.391  0.00  0.00    +0.000 OA
ATOM     13  H   UNL     1       5.926   3.574  12.917  0.00  0.00    +0.000 HD
ATOM     14  H   UNL     1       8.273   5.622  14.313  0.00  0.00    +0.000 HD
ATOM     15  H   UNL     1       8.957   6.281  12.824  0.00  0.00    +0.000 HD
ENDBRANCH   8   9
ENDBRANCH   5   7
BRANCH   1  16
ATOM     16  O   UNL     1       4.587   2.478  19.655  0.00  0.00    +0.000 OA
BRANCH  16  17
ATOM     17  C   UNL     1       3.537   2.607  20.623  0.00  0.00    +0.000 C 
BRANCH  17  18
ATOM     18  C   UNL     1       2.168   2.324  20.002  0.00  0.00    +0.000 C 
BRANCH  18  19
ATOM     19  O   UNL     1       1.285   3.414  20.285  0.00  0.00    +0.000 OA
BRANCH  19  24
ATOM     20  C   UNL     1       2.666   8.347  17.832  0.00  0.00    +0.000 C 
ATOM     21  C   UNL     1       2.321   7.045  18.493  0.00  0.00    +0.000 A 
ATOM     22  C   UNL     1       2.100   5.885  17.744  0.00  0.00    +0.000 A 
ATOM     23  C   UNL     1       1.763   4.687  18.382  0.00  0.00    +0.000 A 
ATOM     24  C   UNL     1       1.659   4.625  19.772  0.00  0.00    +0.000 A 
ATOM     25  C   UNL     1       1.875   5.781  20.522  0.00  0.00    +0.000 A 
ATOM     26  C   UNL     1       2.204   6.982  19.887  0.00  0.00    +0.000 A 
ENDBRANCH  19  24
ENDBRANCH  18  19
ENDBRANCH  17  18
ENDBRANCH  16  17
ENDBRANCH   1  16
TORSDOF 7
ENDMDL
MODEL 4
REMARK VINA RESULT:      -7.5      5.192      8.196
REMARK  Name = 
REMARK  8 active torsions:
REMARK  status: ('A' for Active; 'I' for Inactive)
REMARK    1  A    between atoms: C_1  and  C_2
REMARK    2  A    between atoms: C_5  and  O_6
REMARK    3  A    between atoms: O_6  and  C_7
REMARK    4  A    between atoms: C_7  and  C_8
REMARK    5  A    between atoms: C_8  and  O_9
REMARK    6  A    between atoms: O_9  and  C_10
REMARK    7  A    between atoms: C_14  and  C_15
REMARK    8  A    between atoms: N_16  and  N_17
REMARK                            x       y       z     vdW  Elec       q    Type
REMARK                         _______ _______ _______ _____ _____    ______ ____
ROOT
ATOM      1  C   UNL     1       5.026   6.773  16.655  0.00  0.00    +0.000 A 
ATOM      2  C   UNL     1       5.928   6.876  17.715  0.00  0.00    +0.000 A 
ATOM      3  C   UNL     1       7.038   6.035  17.785  0.00  0.00    +0.000 A 
ATOM      4  C   UNL     1       7.245   5.066  16.807  0.00  0.00    +0.000 A 
ATOM      5  C   UNL     1       6.330   4.935  15.758  0.00  0.00    +0.000 A 
ATOM      6  C   UNL     1       5.218   5.784  15.686  0.00  0.00    +0.000 A 
ENDROOT
BRANCH   5   7
ATOM      7  C   UNL     1       6.566   3.887  14.741  0.00  0.00    +0.000 C 
ATOM      8  N   UNL     1       6.094   3.977  13.541  0.00  0.00    +0.000 NA
BRANCH   8   9
ATOM      9  N   UNL     1       6.401   2.926  12.720  0.00  0.00    +0.000 N 
ATOM     10  C   UNL     1       5.529   2.481  11.756  0.00  0.00    +0.000 C 
ATOM     11  N   UNL     1       4.370   3.174  11.683  0.00  0.00    +0.000 N 
ATOM     12  O   UNL     1       5.778   1.529  11.023  0.00  0.00    +0.000 OA
ATOM     13  H   UNL     1       7.279   2.427  12.804  0.00  0.00    +0.000 HD
ATOM     14  H   UNL     1       4.241   3.918  12.354  0.00  0.00    +0.000 HD
ATOM     15  H   UNL     1       3.654   2.909  11.028  0.00  0.00    +0.000 HD
ENDBRANCH   8   9
ENDBRANCH   5   7
BRANCH   1  16
ATOM     16  O   UNL     1       3.906   7.542  16.512  0.00  0.00    +0.000 OA
BRANCH  16  17
ATOM     17  C   UNL     1       3.435   8.255  17.664  0.00  0.00    +0.000 C 
BRANCH  17  18
ATOM     18  C   UNL     1       2.085   7.717  18.140  0.00  0.00    +0.000 C 
BRANCH  18  19
ATOM     19  O   UNL     1       2.289   6.839  19.250  0.00  0.00    +0.000 OA
BRANCH  19  24
ATOM     20  C   UNL     1       3.627   1.404  18.286  0.00  0.00    +0.000 C 
ATOM     21  C   UNL     1       3.281   2.845  18.519  0.00  0.00    +0.000 A 
ATOM     22  C   UNL     1       3.846   3.567  19.574  0.00  0.00    +0.000 A 
ATOM     23  C   UNL     1       3.494   4.905  19.782  0.00  0.00    +0.000 A 
ATOM     24  C   UNL     1       2.591   5.543  18.931  0.00  0.00    +0.000 A 
ATOM     25  C   UNL     1       2.022   4.825  17.880  0.00  0.00    +0.000 A 
ATOM     26  C   UNL     1       2.365   3.485  17.675  0.00  0.00    +0.000 A 
ENDBRANCH  19  24
ENDBRANCH  18  19
ENDBRANCH  17  18
ENDBRANCH  16  17
ENDBRANCH   1  16
TORSDOF 7
ENDMDL
MODEL 5
REMARK VINA RESULT:      -7.3      3.923      8.870
REMARK  Name = 
REMARK  8 active torsions:
REMARK  status: ('A' for Active; 'I' for Inactive)
REMARK    1  A    between atoms: C_1  and  C_2
REMARK    2  A    between atoms: C_5  and  O_6
REMARK    3  A    between atoms: O_6  and  C_7
REMARK    4  A    between atoms: C_7  and  C_8
REMARK    5  A    between atoms: C_8  and  O_9
REMARK    6  A    between atoms: O_9  and  C_10
REMARK    7  A    between atoms: C_14  and  C_15
REMARK    8  A    between atoms: N_16  and  N_17
REMARK                            x       y       z     vdW  Elec       q    Type
REMARK                         _______ _______ _______ _____ _____    ______ ____
ROOT
ATOM      1  C   UNL     1       7.256   5.311  16.829  0.00  0.00    +0.000 A 
ATOM      2  C   UNL     1       7.610   4.678  18.022  0.00  0.00    +0.000 A 
ATOM      3  C   UNL     1       8.006   5.426  19.131  0.00  0.00    +0.000 A 
ATOM      4  C   UNL     1       8.074   6.814  19.051  0.00  0.00    +0.000 A 
ATOM      5  C   UNL     1       7.751   7.454  17.852  0.00  0.00    +0.000 A 
ATOM      6  C   UNL     1       7.348   6.704  16.740  0.00  0.00    +0.000 A 
ENDROOT
BRANCH   5   7
ATOM      7  C   UNL     1       7.846   8.929  17.791  0.00  0.00    +0.000 C 
ATOM      8  N   UNL     1       8.848   9.574  18.293  0.00  0.00    +0.000 NA
BRANCH   8   9
ATOM      9  N   UNL     1       8.788  10.934  18.155  0.00  0.00    +0.000 N 
ATOM     10  C   UNL     1       9.241  11.782  19.135  0.00  0.00    +0.000 C 
ATOM     11  N   UNL     1       9.757  11.162  20.221  0.00  0.00    +0.000 N 
ATOM     12  O   UNL     1       9.179  13.004  19.038  0.00  0.00    +0.000 OA
ATOM     13  H   UNL     1       8.393  11.365  17.327  0.00  0.00    +0.000 HD
ATOM     14  H   UNL     1       9.730  10.153  20.225  0.00  0.00    +0.000 HD
ATOM     15  H   UNL     1      10.090  11.696  21.007  0.00  0.00    +0.000 HD
ENDBRANCH   8   9
ENDBRANCH   5   7
BRANCH   1  16
ATOM     16  O   UNL     1       6.871   4.662  15.691  0.00  0.00    +0.000 OA
BRANCH  16  17
ATOM     17  C   UNL     1       5.517   4.835  15.250  0.00  0.00    +0.000 C 
BRANCH  17  18
ATOM     18  C   UNL     1       4.529   4.161  16.204  0.00  0.00    +0.000 C 
BRANCH  18  19
ATOM     19  O   UNL     1       3.899   5.158  17.014  0.00  0.00    +0.000 OA
BRANCH  19  24
ATOM     20  C   UNL     1       1.262   2.910  21.513  0.00  0.00    +0.000 C 
ATOM     21  C   UNL     1       1.950   3.525  20.331  0.00  0.00    +0.000 A 
ATOM     22  C   UNL     1       1.731   3.050  19.034  0.00  0.00    +0.000 A 
ATOM     23  C   UNL     1       2.396   3.629  17.948  0.00  0.00    +0.000 A 
ATOM     24  C   UNL     1       3.273   4.697  18.139  0.00  0.00    +0.000 A 
ATOM     25  C   UNL     1       3.498   5.170  19.432  0.00  0.00    +0.000 A 
ATOM     26  C   UNL     1       2.840   4.589  20.519  0.00  0.00    +0.000 A 
ENDBRANCH  19  24
ENDBRANCH  18  19
ENDBRANCH  17  18
ENDBRANCH  16  17
ENDBRANCH   1  16
TORSDOF 7
ENDMDL
MODEL 6
REMARK VINA RESULT:      -7.3      0.985      1.164
REMARK  Name = 
REMARK  8 active torsions:
REMARK  status: ('A' for Active; 'I' for Inactive)
REMARK    1  A    between atoms: C_1  and  C_2
REMARK    2  A    between atoms: C_5  and  O_6
REMARK    3  A    between atoms: O_6  and  C_7
REMARK    4  A    between atoms: C_7  and  C_8
REMARK    5  A    between atoms: C_8  and  O_9
REMARK    6  A    between atoms: O_9  and  C_10
REMARK    7  A    between atoms: C_14  and  C_15
REMARK    8  A    between atoms: N_16  and  N_17
REMARK                            x       y       z     vdW  Elec       q    Type
REMARK                         _______ _______ _______ _____ _____    ______ ____
ROOT
ATOM      1  C   UNL     1       6.494   5.878  16.632  0.00  0.00    +0.000 A 
ATOM      2  C   UNL     1       6.093   5.223  15.466  0.00  0.00    +0.000 A 
ATOM      3  C   UNL     1       5.199   4.154  15.526  0.00  0.00    +0.000 A 
ATOM      4  C   UNL     1       4.715   3.714  16.755  0.00  0.00    +0.000 A 
ATOM      5  C   UNL     1       5.135   4.344  17.930  0.00  0.00    +0.000 A 
ATOM      6  C   UNL     1       6.029   5.421  17.869  0.00  0.00    +0.000 A 
ENDROOT
BRANCH   5   7
ATOM      7  C   UNL     1       4.617   3.846  19.223  0.00  0.00    +0.000 C 
ATOM      8  N   UNL     1       3.580   3.077  19.297  0.00  0.00    +0.000 NA
BRANCH   8   9
ATOM      9  N   UNL     1       3.228   2.703  20.565  0.00  0.00    +0.000 N 
ATOM     10  C   UNL     1       1.951   2.872  21.042  0.00  0.00    +0.000 C 
ATOM     11  N   UNL     1       1.087   3.416  20.155  0.00  0.00    +0.000 N 
ATOM     12  O   UNL     1       1.620   2.560  22.181  0.00  0.00    +0.000 OA
ATOM     13  H   UNL     1       3.903   2.299  21.204  0.00  0.00    +0.000 HD
ATOM     14  H   UNL     1       1.462   3.674  19.253  0.00  0.00    +0.000 HD
ATOM     15  H   UNL     1       0.134   3.606  20.417  0.00  0.00    +0.000 HD
ENDBRANCH   8   9
ENDBRANCH   5   7
BRANCH   1  16
ATOM     16  O   UNL     1       7.374   6.922  16.672  0.00  0.00    +0.000 OA
BRANCH  16  17
ATOM     17  C   UNL     1       7.101   7.990  17.589  0.00  0.00    +0.000 C 
BRANCH  17  18
ATOM     18  C   UNL     1       8.384   8.507  18.242  0.00  0.00    +0.000 C 
BRANCH  18  19
ATOM     19  O   UNL     1       8.760   9.745  17.631  0.00  0.00    +0.000 OA
BRANCH  19  24
ATOM     20  C   UNL     1      10.440  14.029  20.958  0.00  0.00    +0.000 C 
ATOM     21  C   UNL     1      10.016  12.886  20.085  0.00  0.00    +0.000 A 
ATOM     22  C   UNL     1       9.780  13.062  18.718  0.00  0.00    +0.000 A 
ATOM     23  C   UNL     1       9.368  11.984  17.928  0.00  0.00    +0.000 A 
ATOM     24  C   UNL     1       9.203  10.716  18.486  0.00  0.00    +0.000 A 
ATOM     25  C   UNL     1       9.434  10.536  19.850  0.00  0.00    +0.000 A 
ATOM     26  C   UNL     1       9.838  11.614  20.643  0.00  0.00    +0.000 A 
ENDBRANCH  19  24
ENDBRANCH  18  19
ENDBRANCH  17  18
ENDBRANCH  16  17
ENDBRANCH   1  16
TORSDOF 7
ENDMDL
MODEL 7
REMARK VINA RESULT:      -7.3      5.720      8.303
REMARK  Name = 
REMARK  8 active torsions:
REMARK  status: ('A' for Active; 'I' for Inactive)
REMARK    1  A    between atoms: C_1  and  C_2
REMARK    2  A    between atoms: C_5  and  O_6
REMARK    3  A    between atoms: O_6  and  C_7
REMARK    4  A    between atoms: C_7  and  C_8
REMARK    5  A    between atoms: C_8  and  O_9
REMARK    6  A    between atoms: O_9  and  C_10
REMARK    7  A    between atoms: C_14  and  C_15
REMARK    8  A    between atoms: N_16  and  N_17
REMARK                            x       y       z     vdW  Elec       q    Type
REMARK                         _______ _______ _______ _____ _____    ______ ____
ROOT
ATOM      1  C   UNL     1       1.795   4.915  19.855  0.00  0.00    +0.000 A 
ATOM      2  C   UNL     1       0.978   3.807  20.086  0.00  0.00    +0.000 A 
ATOM      3  C   UNL     1       1.204   2.607  19.411  0.00  0.00    +0.000 A 
ATOM      4  C   UNL     1       2.235   2.510  18.480  0.00  0.00    +0.000 A 
ATOM      5  C   UNL     1       3.038   3.625  18.220  0.00  0.00    +0.000 A 
ATOM      6  C   UNL     1       2.814   4.828  18.902  0.00  0.00    +0.000 A 
ENDROOT
BRANCH   5   7
ATOM      7  C   UNL     1       4.116   3.499  17.216  0.00  0.00    +0.000 C 
ATOM      8  N   UNL     1       5.249   4.108  17.344  0.00  0.00    +0.000 NA
BRANCH   8   9
ATOM      9  N   UNL     1       6.141   3.889  16.329  0.00  0.00    +0.000 N 
ATOM     10  C   UNL     1       6.813   4.920  15.720  0.00  0.00    +0.000 C 
ATOM     11  N   UNL     1       6.531   6.147  16.217  0.00  0.00    +0.000 N 
ATOM     12  O   UNL     1       7.603   4.746  14.797  0.00  0.00    +0.000 OA
ATOM     13  H   UNL     1       6.327   2.956  15.980  0.00  0.00    +0.000 HD
ATOM     14  H   UNL     1       5.840   6.192  16.951  0.00  0.00    +0.000 HD
ATOM     15  H   UNL     1       6.951   6.970  15.820  0.00  0.00    +0.000 HD
ENDBRANCH   8   9
ENDBRANCH   5   7
BRANCH   1  16
ATOM     16  O   UNL     1       1.640   6.131  20.457  0.00  0.00    +0.000 OA
BRANCH  16  17
ATOM     17  C   UNL     1       2.309   7.255  19.870  0.00  0.00    +0.000 C 
BRANCH  17  18
ATOM     18  C   UNL     1       1.493   8.538  20.031  0.00  0.00    +0.000 C 
BRANCH  18  19
ATOM     19  O   UNL     1       0.707   8.451  21.224  0.00  0.00    +0.000 OA
BRANCH  19  24
ATOM     20  C   UNL     1      -2.344  12.984  22.772  0.00  0.00    +0.000 C 
ATOM     21  C   UNL     1      -1.555  11.782  22.347  0.00  0.00    +0.000 A 
ATOM     22  C   UNL     1      -1.238  10.763  23.250  0.00  0.00    +0.000 A 
ATOM     23  C   UNL     1      -0.486   9.659  22.834  0.00  0.00    +0.000 A 
ATOM     24  C   UNL     1      -0.055   9.551  21.511  0.00  0.00    +0.000 A 
ATOM     25  C   UNL     1      -0.365  10.567  20.608  0.00  0.00    +0.000 A 
ATOM     26  C   UNL     1      -1.110  11.674  21.024  0.00  0.00    +0.000 A 
ENDBRANCH  19  24
ENDBRANCH  18  19
ENDBRANCH  17  18
ENDBRANCH  16  17
ENDBRANCH   1  16
TORSDOF 7
ENDMDL
MODEL 8
REMARK VINA RESULT:      -7.3      5.563      8.350
REMARK  Name = 
REMARK  8 active torsions:
REMARK  status: ('A' for Active; 'I' for Inactive)
REMARK    1  A    between atoms: C_1  and  C_2
REMARK    2  A    between atoms: C_5  and  O_6
REMARK    3  A    between atoms: O_6  and  C_7
REMARK    4  A    between atoms: C_7  and  C_8
REMARK    5  A    between atoms: C_8  and  O_9
REMARK    6  A    between atoms: O_9  and  C_10
REMARK    7  A    between atoms: C_14  and  C_15
REMARK    8  A    between atoms: N_16  and  N_17
REMARK                            x       y       z     vdW  Elec       q    Type
REMARK                         _______ _______ _______ _____ _____    ______ ____
ROOT
ATOM      1  C   UNL     1       4.863   3.594  18.724  0.00  0.00    +0.000 A 
ATOM      2  C   UNL     1       5.120   4.609  19.648  0.00  0.00    +0.000 A 
ATOM      3  C   UNL     1       5.665   5.824  19.233  0.00  0.00    +0.000 A 
ATOM      4  C   UNL     1       5.981   6.028  17.892  0.00  0.00    +0.000 A 
ATOM      5  C   UNL     1       5.756   5.006  16.965  0.00  0.00    +0.000 A 
ATOM      6  C   UNL     1       5.204   3.788  17.381  0.00  0.00    +0.000 A 
ENDROOT
BRANCH   5   7
ATOM      7  C   UNL     1       6.116   5.245  15.550  0.00  0.00    +0.000 C 
ATOM      8  N   UNL     1       7.248   4.863  15.056  0.00  0.00    +0.000 NA
BRANCH   8   9
ATOM      9  N   UNL     1       7.428   5.158  13.732  0.00  0.00    +0.000 N 
ATOM     10  C   UNL     1       7.021   4.303  12.737  0.00  0.00    +0.000 C 
ATOM     11  N   UNL     1       6.421   3.173  13.178  0.00  0.00    +0.000 N 
ATOM     12  O   UNL     1       7.190   4.540  11.545  0.00  0.00    +0.000 OA
ATOM     13  H   UNL     1       7.884   6.013  13.437  0.00  0.00    +0.000 HD
ATOM     14  H   UNL     1       6.361   3.050  14.178  0.00  0.00    +0.000 HD
ATOM     15  H   UNL     1       6.111   2.470  12.528  0.00  0.00    +0.000 HD
ENDBRANCH   8   9
ENDBRANCH   5   7
BRANCH   1  16
ATOM     16  O   UNL     1       4.347   2.370  19.040  0.00  0.00    +0.000 OA
BRANCH  16  17
ATOM     17  C   UNL     1       3.482   1.744  18.082  0.00  0.00    +0.000 C 
BRANCH  17  18
ATOM     18  C   UNL     1       2.021   1.799  18.529  0.00  0.00    +0.000 C 
BRANCH  18  19
ATOM     19  O   UNL     1       1.369   2.896  17.881  0.00  0.00    +0.000 OA
BRANCH  19  24
ATOM     20  C   UNL     1       2.008   7.755  20.751  0.00  0.00    +0.000 C 
ATOM     21  C   UNL     1       1.823   6.482  19.979  0.00  0.00    +0.000 A 
ATOM     22  C   UNL     1       1.437   5.297  20.612  0.00  0.00    +0.000 A 
ATOM     23  C   UNL     1       1.288   4.118  19.874  0.00  0.00    +0.000 A 
ATOM     24  C   UNL     1       1.504   4.111  18.496  0.00  0.00    +0.000 A 
ATOM     25  C   UNL     1       1.894   5.289  17.861  0.00  0.00    +0.000 A 
ATOM     26  C   UNL     1       2.051   6.467  18.598  0.00  0.00    +0.000 A 
ENDBRANCH  19  24
ENDBRANCH  18  19
ENDBRANCH  17  18
ENDBRANCH  16  17
ENDBRANCH   1  16
TORSDOF 7
ENDMDL
MODEL 9
REMARK VINA RESULT:      -7.2      4.048      9.263
REMARK  Name = 
REMARK  8 active torsions:
REMARK  status: ('A' for Active; 'I' for Inactive)
REMARK    1  A    between atoms: C_1  and  C_2
REMARK    2  A    between atoms: C_5  and  O_6
REMARK    3  A    between atoms: O_6  and  C_7
REMARK    4  A    between atoms: C_7  and  C_8
REMARK    5  A    between atoms: C_8  and  O_9
REMARK    6  A    between atoms: O_9  and  C_10
REMARK    7  A    between atoms: C_14  and  C_15
REMARK    8  A    between atoms: N_16  and  N_17
REMARK                            x       y       z     vdW  Elec       q    Type
REMARK                         _______ _______ _______ _____ _____    ______ ____
ROOT
ATOM      1  C   UNL     1       7.280   5.797  16.920  0.00  0.00    +0.000 A 
ATOM      2  C   UNL     1       7.669   5.168  18.104  0.00  0.00    +0.000 A 
ATOM      3  C   UNL     1       8.148   5.916  19.180  0.00  0.00    +0.000 A 
ATOM      4  C   UNL     1       8.266   7.299  19.074  0.00  0.00    +0.000 A 
ATOM      5  C   UNL     1       7.908   7.934  17.881  0.00  0.00    +0.000 A 
ATOM      6  C   UNL     1       7.422   7.183  16.803  0.00  0.00    +0.000 A 
ENDROOT
BRANCH   5   7
ATOM      7  C   UNL     1       8.058   9.403  17.790  0.00  0.00    +0.000 C 
ATOM      8  N   UNL     1       8.909  10.052  18.515  0.00  0.00    +0.000 NA
BRANCH   8   9
ATOM      9  N   UNL     1       8.926  11.406  18.313  0.00  0.00    +0.000 N 
ATOM     10  C   UNL     1      10.035  12.052  17.826  0.00  0.00    +0.000 C 
ATOM     11  N   UNL     1      11.083  11.241  17.553  0.00  0.00    +0.000 N 
ATOM     12  O   UNL     1      10.077  13.266  17.655  0.00  0.00    +0.000 OA
ATOM     13  H   UNL     1       8.122  11.983  18.531  0.00  0.00    +0.000 HD
ATOM     14  H   UNL     1      10.966  10.260  17.761  0.00  0.00    +0.000 HD
ATOM     15  H   UNL     1      11.952  11.621  17.217  0.00  0.00    +0.000 HD
ENDBRANCH   8   9
ENDBRANCH   5   7
BRANCH   1  16
ATOM     16  O   UNL     1       6.815   5.147  15.813  0.00  0.00    +0.000 OA
BRANCH  16  17
ATOM     17  C   UNL     1       5.472   5.425  15.392  0.00  0.00    +0.000 C 
BRANCH  17  18
ATOM     18  C   UNL     1       4.496   5.371  16.568  0.00  0.00    +0.000 C 
BRANCH  18  19
ATOM     19  O   UNL     1       3.976   4.043  16.691  0.00  0.00    +0.000 OA
BRANCH  19  24
ATOM     20  C   UNL     1       1.526   2.653  21.623  0.00  0.00    +0.000 C 
ATOM     21  C   UNL     1       2.188   3.035  20.332  0.00  0.00    +0.000 A 
ATOM     22  C   UNL     1       1.461   3.603  19.281  0.00  0.00    +0.000 A 
ATOM     23  C   UNL     1       2.098   3.934  18.081  0.00  0.00    +0.000 A 
ATOM     24  C   UNL     1       3.467   3.720  17.919  0.00  0.00    +0.000 A 
ATOM     25  C   UNL     1       4.195   3.149  18.962  0.00  0.00    +0.000 A 
ATOM     26  C   UNL     1       3.560   2.810  20.161  0.00  0.00    +0.000 A 
ENDBRANCH  19  24
ENDBRANCH  18  19
ENDBRANCH  17  18
ENDBRANCH  16  17
ENDBRANCH   1  16
TORSDOF 7
ENDMDL
