MODEL 1
REMARK VINA RESULT:      -7.2      0.000      0.000
REMARK  Name = 
REMARK  14 active torsions:
REMARK  status: ('A' for Active; 'I' for Inactive)
REMARK    1  A    between atoms: C_1  and  O_2
REMARK    2  A    between atoms: O_2  and  C_3
REMARK    3  A    between atoms: C_8  and  N_9
REMARK    4  A    between atoms: C_10  and  C_12
REMARK    5  A    between atoms: C_12  and  C_13
REMARK    6  A    between atoms: C_12  and  O_14
REMARK    7  A    between atoms: O_14  and  C_15
REMARK    8  A    between atoms: C_15  and  C_17
REMARK    9  A    between atoms: C_17  and  S_18
REMARK   10  A    between atoms: S_18  and  C_19
REMARK   11  A    between atoms: C_19  and  C_20
REMARK   12  A    between atoms: N_22  and  C_23
REMARK   13  A    between atoms: C_26  and  C_27
REMARK   14  A    between atoms: C_29  and  C_30
REMARK                            x       y       z     vdW  Elec       q    Type
REMARK                         _______ _______ _______ _____ _____    ______ ____
ROOT
ATOM      1  C   UNL     1       1.786   5.028  18.972  0.00  0.00    +0.000 C 
ATOM      2  O   UNL     1       1.426   4.612  17.873  0.00  0.00    +0.000 OA
ENDROOT
BRANCH   1   3
ATOM      3  O   UNL     1       2.652   6.069  19.153  0.00  0.00    +0.000 OA
BRANCH   3   4
ATOM      4  C   UNL     1       2.519   7.165  18.209  0.00  0.00    +0.000 C 
ATOM      5  C   UNL     1       3.863   7.428  17.547  0.00  0.00    +0.000 C 
BRANCH   4   7
ATOM      6  N   UNL     1       1.122   9.252  17.989  0.00  0.00    +0.000 N 
ATOM      7  C   UNL     1       1.744   8.352  18.845  0.00  0.00    +0.000 C 
ATOM      8  O   UNL     1       1.657   8.388  20.079  0.00  0.00    +0.000 OA
ATOM      9  H   UNL     1       0.937   8.991  17.025  0.00  0.00    +0.000 HD
BRANCH   6  15
ATOM     10  C   UNL     1      -0.815  10.777  18.080  0.00  0.00    +0.000 A 
ATOM     11  C   UNL     1      -1.392  11.973  18.547  0.00  0.00    +0.000 A 
ATOM     12  C   UNL     1      -0.629  12.916  19.232  0.00  0.00    +0.000 A 
ATOM     13  C   UNL     1       0.719  12.677  19.454  0.00  0.00    +0.000 A 
ATOM     14  C   UNL     1       1.293  11.476  19.034  0.00  0.00    +0.000 A 
ATOM     15  C   UNL     1       0.536  10.491  18.381  0.00  0.00    +0.000 A 
BRANCH  10  17
ATOM     16  C   UNL     1      -2.930   9.794  17.658  0.00  0.00    +0.000 C 
ATOM     17  O   UNL     1      -1.529   9.842  17.360  0.00  0.00    +0.000 OA
ENDBRANCH  10  17
ENDBRANCH   6  15
ENDBRANCH   4   7
ENDBRANCH   3   4
ENDBRANCH   1   3
BRANCH   1  18
ATOM     18  C   UNL     1       1.317   4.459  20.294  0.00  0.00    +0.000 C 
BRANCH  18  19
ATOM     19  S   UNL     1       1.731   2.681  20.395  0.00  0.00    +0.000 S 
BRANCH  19  20
ATOM     20  C   UNL     1       3.562   2.799  20.416  0.00  0.00    +0.000 C 
BRANCH  20  21
ATOM     21  C   UNL     1       4.124   2.819  19.003  0.00  0.00    +0.000 C 
ATOM     22  O   UNL     1       3.932   1.865  18.249  0.00  0.00    +0.000 OA
ATOM     23  N   UNL     1       4.856   3.957  18.688  0.00  0.00    +0.000 N 
ATOM     24  H   UNL     1       5.069   4.600  19.442  0.00  0.00    +0.000 HD
BRANCH  23  25
ATOM     25  C   UNL     1       5.453   4.227  17.420  0.00  0.00    +0.000 A 
ATOM     26  C   UNL     1       4.751   4.003  16.226  0.00  0.00    +0.000 A 
ATOM     27  C   UNL     1       5.332   4.214  14.976  0.00  0.00    +0.000 A 
ATOM     28  C   UNL     1       6.635   4.686  14.880  0.00  0.00    +0.000 A 
ATOM     29  C   UNL     1       7.266   4.900  13.538  0.00  0.00    +0.000 C 
ATOM     30  C   UNL     1       7.337   4.957  16.061  0.00  0.00    +0.000 A 
ATOM     31  C   UNL     1       6.768   4.728  17.334  0.00  0.00    +0.000 A 
ATOM     32  C   UNL     1       7.603   5.062  18.541  0.00  0.00    +0.000 C 
ENDBRANCH  23  25
ENDBRANCH  20  21
ENDBRANCH  19  20
ENDBRANCH  18  19
ENDBRANCH   1  18
TORSDOF 10
ENDMDL
MODEL 2
REMARK VINA RESULT:      -7.0      1.471      1.961
REMARK  Name = 
REMARK  14 active torsions:
REMARK  status: ('A' for Active; 'I' for Inactive)
REMARK    1  A    between atoms: C_1  and  O_2
REMARK    2  A    between atoms: O_2  and  C_3
REMARK    3  A    between atoms: C_8  and  N_9
REMARK    4  A    between atoms: C_10  and  C_12
REMARK    5  A    between atoms: C_12  and  C_13
REMARK    6  A    between atoms: C_12  and  O_14
REMARK    7  A    between atoms: O_14  and  C_15
REMARK    8  A    between atoms: C_15  and  C_17
REMARK    9  A    between atoms: C_17  and  S_18
REMARK   10  A    between atoms: S_18  and  C_19
REMARK   11  A    between atoms: C_19  and  C_20
REMARK   12  A    between atoms: N_22  and  C_23
REMARK   13  A    between atoms: C_26  and  C_27
REMARK   14  A    between atoms: C_29  and  C_30
REMARK                            x       y       z     vdW  Elec       q    Type
REMARK                         _______ _______ _______ _____ _____    ______ ____
ROOT
ATOM      1  C   UNL     1       1.953   5.535  19.411  0.00  0.00    +0.000 C 
ATOM      2  O   UNL     1       1.556   4.953  18.403  0.00  0.00    +0.000 OA
ENDROOT
BRANCH   1   3
ATOM      3  O   UNL     1       2.419   6.819  19.422  0.00  0.00    +0.000 OA
BRANCH   3   4
ATOM      4  C   UNL     1       2.395   7.505  18.142  0.00  0.00    +0.000 C 
ATOM      5  C   UNL     1       3.753   7.368  17.469  0.00  0.00    +0.000 C 
BRANCH   4   7
ATOM      6  N   UNL     1       0.970   9.164  19.398  0.00  0.00    +0.000 N 
ATOM      7  C   UNL     1       1.759   8.916  18.281  0.00  0.00    +0.000 C 
ATOM      8  O   UNL     1       2.052   9.766  17.431  0.00  0.00    +0.000 OA
ATOM      9  H   UNL     1       1.043   8.564  20.214  0.00  0.00    +0.000 HD
BRANCH   6  15
ATOM     10  C   UNL     1       0.069  10.929  20.866  0.00  0.00    +0.000 A 
ATOM     11  C   UNL     1      -0.673  12.115  21.016  0.00  0.00    +0.000 A 
ATOM     12  C   UNL     1      -1.386  12.654  19.946  0.00  0.00    +0.000 A 
ATOM     13  C   UNL     1      -1.367  12.012  18.718  0.00  0.00    +0.000 A 
ATOM     14  C   UNL     1      -0.600  10.858  18.545  0.00  0.00    +0.000 A 
ATOM     15  C   UNL     1       0.160  10.320  19.594  0.00  0.00    +0.000 A 
BRANCH  10  17
ATOM     16  C   UNL     1      -0.084   9.823  22.955  0.00  0.00    +0.000 C 
ATOM     17  O   UNL     1       0.749  10.344  21.913  0.00  0.00    +0.000 OA
ENDBRANCH  10  17
ENDBRANCH   6  15
ENDBRANCH   4   7
ENDBRANCH   3   4
ENDBRANCH   1   3
BRANCH   1  18
ATOM     18  C   UNL     1       1.976   4.923  20.795  0.00  0.00    +0.000 C 
BRANCH  18  19
ATOM     19  S   UNL     1       1.684   3.121  20.689  0.00  0.00    +0.000 S 
BRANCH  19  20
ATOM     20  C   UNL     1       3.365   2.518  21.107  0.00  0.00    +0.000 C 
BRANCH  20  21
ATOM     21  C   UNL     1       4.284   2.577  19.896  0.00  0.00    +0.000 C 
ATOM     22  O   UNL     1       5.009   1.620  19.625  0.00  0.00    +0.000 OA
ATOM     23  N   UNL     1       4.232   3.771  19.190  0.00  0.00    +0.000 N 
ATOM     24  H   UNL     1       3.709   4.536  19.600  0.00  0.00    +0.000 HD
BRANCH  23  25
ATOM     25  C   UNL     1       4.970   4.057  18.001  0.00  0.00    +0.000 A 
ATOM     26  C   UNL     1       4.445   3.763  16.734  0.00  0.00    +0.000 A 
ATOM     27  C   UNL     1       5.168   3.989  15.563  0.00  0.00    +0.000 A 
ATOM     28  C   UNL     1       6.439   4.546  15.622  0.00  0.00    +0.000 A 
ATOM     29  C   UNL     1       7.223   4.777  14.366  0.00  0.00    +0.000 C 
ATOM     30  C   UNL     1       6.963   4.887  16.875  0.00  0.00    +0.000 A 
ATOM     31  C   UNL     1       6.249   4.645  18.071  0.00  0.00    +0.000 A 
ATOM     32  C   UNL     1       6.897   5.058  19.365  0.00  0.00    +0.000 C 
ENDBRANCH  23  25
ENDBRANCH  20  21
ENDBRANCH  19  20
ENDBRANCH  18  19
ENDBRANCH   1  18
TORSDOF 10
ENDMDL
MODEL 3
REMARK VINA RESULT:      -6.8      2.649      9.586
REMARK  Name = 
REMARK  14 active torsions:
REMARK  status: ('A' for Active; 'I' for Inactive)
REMARK    1  A    between atoms: C_1  and  O_2
REMARK    2  A    between atoms: O_2  and  C_3
REMARK    3  A    between atoms: C_8  and  N_9
REMARK    4  A    between atoms: C_10  and  C_12
REMARK    5  A    between atoms: C_12  and  C_13
REMARK    6  A    between atoms: C_12  and  O_14
REMARK    7  A    between atoms: O_14  and  C_15
REMARK    8  A    between atoms: C_15  and  C_17
REMARK    9  A    between atoms: C_17  and  S_18
REMARK   10  A    between atoms: S_18  and  C_19
REMARK   11  A    between atoms: C_19  and  C_20
REMARK   12  A    between atoms: N_22  and  C_23
REMARK   13  A    between atoms: C_26  and  C_27
REMARK   14  A    between atoms: C_29  and  C_30
REMARK                            x       y       z     vdW  Elec       q    Type
REMARK                         _______ _______ _______ _____ _____    ______ ____
ROOT
ATOM      1  C   UNL     1       1.891   7.762  19.944  0.00  0.00    +0.000 C 
ATOM      2  O   UNL     1       1.305   8.433  20.791  0.00  0.00    +0.000 OA
ENDROOT
BRANCH   1   3
ATOM      3  O   UNL     1       2.611   6.635  20.220  0.00  0.00    +0.000 OA
BRANCH   3   4
ATOM      4  C   UNL     1       2.128   5.415  19.595  0.00  0.00    +0.000 C 
ATOM      5  C   UNL     1       1.472   4.533  20.647  0.00  0.00    +0.000 C 
BRANCH   4   7
ATOM      6  N   UNL     1       4.261   5.622  18.265  0.00  0.00    +0.000 N 
ATOM      7  C   UNL     1       3.212   4.804  18.664  0.00  0.00    +0.000 C 
ATOM      8  O   UNL     1       3.124   3.599  18.393  0.00  0.00    +0.000 OA
ATOM      9  H   UNL     1       4.465   6.473  18.780  0.00  0.00    +0.000 HD
BRANCH   6  15
ATOM     10  C   UNL     1       6.520   4.853  17.641  0.00  0.00    +0.000 A 
ATOM     11  C   UNL     1       7.431   4.460  16.643  0.00  0.00    +0.000 A 
ATOM     12  C   UNL     1       7.107   4.577  15.292  0.00  0.00    +0.000 A 
ATOM     13  C   UNL     1       5.873   5.090  14.925  0.00  0.00    +0.000 A 
ATOM     14  C   UNL     1       4.944   5.443  15.906  0.00  0.00    +0.000 A 
ATOM     15  C   UNL     1       5.229   5.295  17.271  0.00  0.00    +0.000 A 
BRANCH  10  17
ATOM     16  C   UNL     1       7.852   5.696  19.410  0.00  0.00    +0.000 C 
ATOM     17  O   UNL     1       6.823   4.794  18.985  0.00  0.00    +0.000 OA
ENDBRANCH  10  17
ENDBRANCH   6  15
ENDBRANCH   4   7
ENDBRANCH   3   4
ENDBRANCH   1   3
BRANCH   1  18
ATOM     18  C   UNL     1       1.894   8.075  18.462  0.00  0.00    +0.000 C 
BRANCH  18  19
ATOM     19  S   UNL     1       1.681   9.872  18.200  0.00  0.00    +0.000 S 
BRANCH  19  20
ATOM     20  C   UNL     1      -0.147   9.941  18.059  0.00  0.00    +0.000 C 
BRANCH  20  21
ATOM     21  C   UNL     1      -0.730  10.972  19.014  0.00  0.00    +0.000 C 
ATOM     22  O   UNL     1      -1.770  11.563  18.724  0.00  0.00    +0.000 OA
ATOM     23  N   UNL     1       0.014  11.176  20.169  0.00  0.00    +0.000 N 
ATOM     24  H   UNL     1       0.928  10.740  20.221  0.00  0.00    +0.000 HD
BRANCH  23  25
ATOM     25  C   UNL     1      -0.341  12.062  21.231  0.00  0.00    +0.000 A 
ATOM     26  C   UNL     1      -1.248  11.672  22.227  0.00  0.00    +0.000 A 
ATOM     27  C   UNL     1      -1.645  12.538  23.246  0.00  0.00    +0.000 A 
ATOM     28  C   UNL     1      -1.121  13.823  23.315  0.00  0.00    +0.000 A 
ATOM     29  C   UNL     1      -1.558  14.760  24.401  0.00  0.00    +0.000 C 
ATOM     30  C   UNL     1      -0.181  14.216  22.356  0.00  0.00    +0.000 A 
ATOM     31  C   UNL     1       0.215  13.355  21.306  0.00  0.00    +0.000 A 
ATOM     32  C   UNL     1       1.240  13.870  20.332  0.00  0.00    +0.000 C 
ENDBRANCH  23  25
ENDBRANCH  20  21
ENDBRANCH  19  20
ENDBRANCH  18  19
ENDBRANCH   1  18
TORSDOF 10
ENDMDL
MODEL 4
REMARK VINA RESULT:      -6.8      6.905      9.676
REMARK  Name = 
REMARK  14 active torsions:
REMARK  status: ('A' for Active; 'I' for Inactive)
REMARK    1  A    between atoms: C_1  and  O_2
REMARK    2  A    between atoms: O_2  and  C_3
REMARK    3  A    between atoms: C_8  and  N_9
REMARK    4  A    between atoms: C_10  and  C_12
REMARK    5  A    between atoms: C_12  and  C_13
REMARK    6  A    between atoms: C_12  and  O_14
REMARK    7  A    between atoms: O_14  and  C_15
REMARK    8  A    between atoms: C_15  and  C_17
REMARK    9  A    between atoms: C_17  and  S_18
REMARK   10  A    between atoms: S_18  and  C_19
REMARK   11  A    between atoms: C_19  and  C_20
REMARK   12  A    between atoms: N_22  and  C_23
REMARK   13  A    between atoms: C_26  and  C_27
REMARK   14  A    between atoms: C_29  and  C_30
REMARK                            x       y       z     vdW  Elec       q    Type
REMARK                         _______ _______ _______ _____ _____    ______ ____
ROOT
ATOM      1  C   UNL     1       7.807   7.605  17.879  0.00  0.00    +0.000 C 
ATOM      2  O   UNL     1       8.320   6.961  18.792  0.00  0.00    +0.000 OA
ENDROOT
BRANCH   1   3
ATOM      3  O   UNL     1       6.966   7.075  16.943  0.00  0.00    +0.000 OA
BRANCH   3   4
ATOM      4  C   UNL     1       6.892   5.624  16.919  0.00  0.00    +0.000 C 
ATOM      5  C   UNL     1       6.846   5.144  15.476  0.00  0.00    +0.000 C 
BRANCH   4   7
ATOM      6  N   UNL     1       4.503   5.482  17.714  0.00  0.00    +0.000 N 
ATOM      7  C   UNL     1       5.824   5.107  17.922  0.00  0.00    +0.000 C 
ATOM      8  O   UNL     1       6.197   4.325  18.806  0.00  0.00    +0.000 OA
ATOM      9  H   UNL     1       4.211   5.828  16.805  0.00  0.00    +0.000 HD
BRANCH   6  15
ATOM     10  C   UNL     1       2.749   4.027  18.658  0.00  0.00    +0.000 A 
ATOM     11  C   UNL     1       1.748   3.810  19.623  0.00  0.00    +0.000 A 
ATOM     12  C   UNL     1       1.363   4.825  20.496  0.00  0.00    +0.000 A 
ATOM     13  C   UNL     1       1.971   6.068  20.413  0.00  0.00    +0.000 A 
ATOM     14  C   UNL     1       2.995   6.283  19.489  0.00  0.00    +0.000 A 
ATOM     15  C   UNL     1       3.431   5.265  18.628  0.00  0.00    +0.000 A 
BRANCH  10  17
ATOM     16  C   UNL     1       2.460   1.800  17.902  0.00  0.00    +0.000 C 
ATOM     17  O   UNL     1       3.123   3.061  17.748  0.00  0.00    +0.000 OA
ENDBRANCH  10  17
ENDBRANCH   6  15
ENDBRANCH   4   7
ENDBRANCH   3   4
ENDBRANCH   1   3
BRANCH   1  18
ATOM     18  C   UNL     1       8.020   9.088  17.659  0.00  0.00    +0.000 C 
BRANCH  18  19
ATOM     19  S   UNL     1       9.043   9.782  19.006  0.00  0.00    +0.000 S 
BRANCH  19  20
ATOM     20  C   UNL     1       9.780  11.209  18.120  0.00  0.00    +0.000 C 
BRANCH  20  21
ATOM     21  C   UNL     1      10.492  12.143  19.087  0.00  0.00    +0.000 C 
ATOM     22  O   UNL     1      11.564  11.809  19.591  0.00  0.00    +0.000 OA
ATOM     23  N   UNL     1       9.823  13.334  19.339  0.00  0.00    +0.000 N 
ATOM     24  H   UNL     1       8.879  13.426  18.982  0.00  0.00    +0.000 HD
BRANCH  23  25
ATOM     25  C   UNL     1      10.301  14.385  20.179  0.00  0.00    +0.000 A 
ATOM     26  C   UNL     1      11.218  15.334  19.702  0.00  0.00    +0.000 A 
ATOM     27  C   UNL     1      11.734  16.339  20.519  0.00  0.00    +0.000 A 
ATOM     28  C   UNL     1      11.325  16.444  21.843  0.00  0.00    +0.000 A 
ATOM     29  C   UNL     1      11.889  17.515  22.726  0.00  0.00    +0.000 C 
ATOM     30  C   UNL     1      10.377  15.534  22.325  0.00  0.00    +0.000 A 
ATOM     31  C   UNL     1       9.861  14.497  21.514  0.00  0.00    +0.000 A 
ATOM     32  C   UNL     1       8.839  13.577  22.125  0.00  0.00    +0.000 C 
ENDBRANCH  23  25
ENDBRANCH  20  21
ENDBRANCH  19  20
ENDBRANCH  18  19
ENDBRANCH   1  18
TORSDOF 10
ENDMDL
MODEL 5
REMARK VINA RESULT:      -6.8      3.423      5.466
REMARK  Name = 
REMARK  14 active torsions:
REMARK  status: ('A' for Active; 'I' for Inactive)
REMARK    1  A    between atoms: C_1  and  O_2
REMARK    2  A    between atoms: O_2  and  C_3
REMARK    3  A    between atoms: C_8  and  N_9
REMARK    4  A    between atoms: C_10  and  C_12
REMARK    5  A    between atoms: C_12  and  C_13
REMARK    6  A    between atoms: C_12  and  O_14
REMARK    7  A    between atoms: O_14  and  C_15
REMARK    8  A    between atoms: C_15  and  C_17
REMARK    9  A    between atoms: C_17  and  S_18
REMARK   10  A    between atoms: S_18  and  C_19
REMARK   11  A    between atoms: C_19  and  C_20
REMARK   12  A    between atoms: N_22  and  C_23
REMARK   13  A    between atoms: C_26  and  C_27
REMARK   14  A    between atoms: C_29  and  C_30
REMARK                            x       y       z     vdW  Elec       q    Type
REMARK                         _______ _______ _______ _____ _____    ______ ____
ROOT
ATOM      1  C   UNL     1      -0.093  10.115  22.443  0.00  0.00    +0.000 C 
ATOM      2  O   UNL     1      -0.554  10.351  23.558  0.00  0.00    +0.000 OA
ENDROOT
BRANCH   1   3
ATOM      3  O   UNL     1       0.610  11.016  21.696  0.00  0.00    +0.000 OA
BRANCH   3   4
ATOM      4  C   UNL     1      -0.096  12.242  21.366  0.00  0.00    +0.000 C 
ATOM      5  C   UNL     1      -1.326  11.909  20.535  0.00  0.00    +0.000 C 
BRANCH   4   7
ATOM      6  N   UNL     1       0.583  13.975  19.665  0.00  0.00    +0.000 N 
ATOM      7  C   UNL     1       0.890  13.329  20.856  0.00  0.00    +0.000 C 
ATOM      8  O   UNL     1       1.854  13.616  21.577  0.00  0.00    +0.000 OA
ATOM      9  H   UNL     1      -0.366  13.950  19.304  0.00  0.00    +0.000 HD
BRANCH   6  15
ATOM     10  C   UNL     1       1.177  16.235  18.874  0.00  0.00    +0.000 A 
ATOM     11  C   UNL     1       2.094  17.090  18.235  0.00  0.00    +0.000 A 
ATOM     12  C   UNL     1       3.232  16.582  17.610  0.00  0.00    +0.000 A 
ATOM     13  C   UNL     1       3.463  15.215  17.614  0.00  0.00    +0.000 A 
ATOM     14  C   UNL     1       2.583  14.361  18.281  0.00  0.00    +0.000 A 
ATOM     15  C   UNL     1       1.454  14.851  18.954  0.00  0.00    +0.000 A 
BRANCH  10  17
ATOM     16  C   UNL     1      -0.950  17.226  18.550  0.00  0.00    +0.000 C 
ATOM     17  O   UNL     1       0.019  16.698  19.462  0.00  0.00    +0.000 OA
ENDBRANCH  10  17
ENDBRANCH   6  15
ENDBRANCH   4   7
ENDBRANCH   3   4
ENDBRANCH   1   3
BRANCH   1  18
ATOM     18  C   UNL     1      -0.225   8.785  21.731  0.00  0.00    +0.000 C 
BRANCH  18  19
ATOM     19  S   UNL     1       1.382   8.298  21.007  0.00  0.00    +0.000 S 
BRANCH  19  20
ATOM     20  C   UNL     1       1.235   9.116  19.371  0.00  0.00    +0.000 C 
BRANCH  20  21
ATOM     21  C   UNL     1       2.070   8.396  18.323  0.00  0.00    +0.000 C 
ATOM     22  O   UNL     1       2.223   8.893  17.208  0.00  0.00    +0.000 OA
ATOM     23  N   UNL     1       2.587   7.175  18.736  0.00  0.00    +0.000 N 
ATOM     24  H   UNL     1       2.265   6.805  19.623  0.00  0.00    +0.000 HD
BRANCH  23  25
ATOM     25  C   UNL     1       3.428   6.330  17.950  0.00  0.00    +0.000 A 
ATOM     26  C   UNL     1       4.625   6.809  17.399  0.00  0.00    +0.000 A 
ATOM     27  C   UNL     1       5.437   6.015  16.590  0.00  0.00    +0.000 A 
ATOM     28  C   UNL     1       5.087   4.696  16.326  0.00  0.00    +0.000 A 
ATOM     29  C   UNL     1       5.950   3.846  15.445  0.00  0.00    +0.000 C 
ATOM     30  C   UNL     1       3.917   4.186  16.903  0.00  0.00    +0.000 A 
ATOM     31  C   UNL     1       3.075   4.986  17.709  0.00  0.00    +0.000 A 
ATOM     32  C   UNL     1       1.847   4.339  18.290  0.00  0.00    +0.000 C 
ENDBRANCH  23  25
ENDBRANCH  20  21
ENDBRANCH  19  20
ENDBRANCH  18  19
ENDBRANCH   1  18
TORSDOF 10
ENDMDL
MODEL 6
REMARK VINA RESULT:      -6.6      6.189      8.860
REMARK  Name = 
REMARK  14 active torsions:
REMARK  status: ('A' for Active; 'I' for Inactive)
REMARK    1  A    between atoms: C_1  and  O_2
REMARK    2  A    between atoms: O_2  and  C_3
REMARK    3  A    between atoms: C_8  and  N_9
REMARK    4  A    between atoms: C_10  and  C_12
REMARK    5  A    between atoms: C_12  and  C_13
REMARK    6  A    between atoms: C_12  and  O_14
REMARK    7  A    between atoms: O_14  and  C_15
REMARK    8  A    between atoms: C_15  and  C_17
REMARK    9  A    between atoms: C_17  and  S_18
REMARK   10  A    between atoms: S_18  and  C_19
REMARK   11  A    between atoms: C_19  and  C_20
REMARK   12  A    between atoms: N_22  and  C_23
REMARK   13  A    between atoms: C_26  and  C_27
REMARK   14  A    between atoms: C_29  and  C_30
REMARK                            x       y       z     vdW  Elec       q    Type
REMARK                         _______ _______ _______ _____ _____    ______ ____
ROOT
ATOM      1  C   UNL     1       7.379   7.067  17.773  0.00  0.00    +0.000 C 
ATOM      2  O   UNL     1       8.188   6.531  18.528  0.00  0.00    +0.000 OA
ENDROOT
BRANCH   1   3
ATOM      3  O   UNL     1       6.681   6.408  16.802  0.00  0.00    +0.000 OA
BRANCH   3   4
ATOM      4  C   UNL     1       6.687   4.959  16.902  0.00  0.00    +0.000 C 
ATOM      5  C   UNL     1       6.622   4.355  15.507  0.00  0.00    +0.000 C 
BRANCH   4   7
ATOM      6  N   UNL     1       4.330   4.480  17.661  0.00  0.00    +0.000 N 
ATOM      7  C   UNL     1       5.682   4.474  17.983  0.00  0.00    +0.000 C 
ATOM      8  O   UNL     1       6.145   4.036  19.044  0.00  0.00    +0.000 OA
ATOM      9  H   UNL     1       4.041   4.518  16.688  0.00  0.00    +0.000 HD
BRANCH   6  15
ATOM     10  C   UNL     1       2.715   5.324  19.323  0.00  0.00    +0.000 A 
ATOM     11  C   UNL     1       1.611   5.091  20.163  0.00  0.00    +0.000 A 
ATOM     12  C   UNL     1       1.100   3.805  20.333  0.00  0.00    +0.000 A 
ATOM     13  C   UNL     1       1.690   2.740  19.671  0.00  0.00    +0.000 A 
ATOM     14  C   UNL     1       2.759   2.965  18.801  0.00  0.00    +0.000 A 
ATOM     15  C   UNL     1       3.263   4.255  18.579  0.00  0.00    +0.000 A 
BRANCH  10  17
ATOM     16  C   UNL     1       2.481   7.498  18.410  0.00  0.00    +0.000 C 
ATOM     17  O   UNL     1       3.274   6.575  19.165  0.00  0.00    +0.000 OA
ENDBRANCH  10  17
ENDBRANCH   6  15
ENDBRANCH   4   7
ENDBRANCH   3   4
ENDBRANCH   1   3
BRANCH   1  18
ATOM     18  C   UNL     1       7.023   8.538  17.812  0.00  0.00    +0.000 C 
BRANCH  18  19
ATOM     19  S   UNL     1       8.504   9.552  17.459  0.00  0.00    +0.000 S 
BRANCH  19  20
ATOM     20  C   UNL     1       8.990   9.983  19.174  0.00  0.00    +0.000 C 
BRANCH  20  21
ATOM     21  C   UNL     1       9.364  11.454  19.283  0.00  0.00    +0.000 C 
ATOM     22  O   UNL     1       9.708  11.924  20.366  0.00  0.00    +0.000 OA
ATOM     23  N   UNL     1       9.253  12.167  18.096  0.00  0.00    +0.000 N 
ATOM     24  H   UNL     1       8.815  11.703  17.309  0.00  0.00    +0.000 HD
BRANCH  23  25
ATOM     25  C   UNL     1       9.579  13.547  17.933  0.00  0.00    +0.000 A 
ATOM     26  C   UNL     1       8.678  14.555  18.307  0.00  0.00    +0.000 A 
ATOM     27  C   UNL     1       8.957  15.907  18.112  0.00  0.00    +0.000 A 
ATOM     28  C   UNL     1      10.168  16.299  17.555  0.00  0.00    +0.000 A 
ATOM     29  C   UNL     1      10.464  17.751  17.330  0.00  0.00    +0.000 C 
ATOM     30  C   UNL     1      11.099  15.310  17.215  0.00  0.00    +0.000 A 
ATOM     31  C   UNL     1      10.821  13.935  17.389  0.00  0.00    +0.000 A 
ATOM     32  C   UNL     1      11.894  12.953  17.001  0.00  0.00    +0.000 C 
ENDBRANCH  23  25
ENDBRANCH  20  21
ENDBRANCH  19  20
ENDBRANCH  18  19
ENDBRANCH   1  18
TORSDOF 10
ENDMDL
MODEL 7
REMARK VINA RESULT:      -6.6      1.673      8.481
REMARK  Name = 
REMARK  14 active torsions:
REMARK  status: ('A' for Active; 'I' for Inactive)
REMARK    1  A    between atoms: C_1  and  O_2
REMARK    2  A    between atoms: O_2  and  C_3
REMARK    3  A    between atoms: C_8  and  N_9
REMARK    4  A    between atoms: C_10  and  C_12
REMARK    5  A    between atoms: C_12  and  C_13
REMARK    6  A    between atoms: C_12  and  O_14
REMARK    7  A    between atoms: O_14  and  C_15
REMARK    8  A    between atoms: C_15  and  C_17
REMARK    9  A    between atoms: C_17  and  S_18
REMARK   10  A    between atoms: S_18  and  C_19
REMARK   11  A    between atoms: C_19  and  C_20
REMARK   12  A    between atoms: N_22  and  C_23
REMARK   13  A    between atoms: C_26  and  C_27
REMARK   14  A    between atoms: C_29  and  C_30
REMARK                            x       y       z     vdW  Elec       q    Type
REMARK                         _______ _______ _______ _____ _____    ______ ____
ROOT
ATOM      1  C   UNL     1       2.179   3.744  21.208  0.00  0.00    +0.000 C 
ATOM      2  O   UNL     1       1.927   3.348  22.345  0.00  0.00    +0.000 OA
ENDROOT
BRANCH   1   3
ATOM      3  O   UNL     1       3.020   3.106  20.342  0.00  0.00    +0.000 OA
BRANCH   3   4
ATOM      4  C   UNL     1       2.489   2.876  19.010  0.00  0.00    +0.000 C 
ATOM      5  C   UNL     1       1.531   1.694  19.044  0.00  0.00    +0.000 C 
BRANCH   4   7
ATOM      6  N   UNL     1       4.356   4.070  17.808  0.00  0.00    +0.000 N 
ATOM      7  C   UNL     1       3.624   2.898  17.949  0.00  0.00    +0.000 C 
ATOM      8  O   UNL     1       3.866   1.847  17.343  0.00  0.00    +0.000 OA
ATOM      9  H   UNL     1       4.347   4.767  18.547  0.00  0.00    +0.000 HD
BRANCH   6  15
ATOM     10  C   UNL     1       6.657   4.562  17.068  0.00  0.00    +0.000 A 
ATOM     11  C   UNL     1       7.578   4.742  16.019  0.00  0.00    +0.000 A 
ATOM     12  C   UNL     1       7.153   4.781  14.692  0.00  0.00    +0.000 A 
ATOM     13  C   UNL     1       5.804   4.643  14.400  0.00  0.00    +0.000 A 
ATOM     14  C   UNL     1       4.887   4.421  15.429  0.00  0.00    +0.000 A 
ATOM     15  C   UNL     1       5.295   4.335  16.768  0.00  0.00    +0.000 A 
BRANCH  10  17
ATOM     16  C   UNL     1       7.655   5.777  18.841  0.00  0.00    +0.000 C 
ATOM     17  O   UNL     1       7.036   4.565  18.394  0.00  0.00    +0.000 OA
ENDBRANCH  10  17
ENDBRANCH   6  15
ENDBRANCH   4   7
ENDBRANCH   3   4
ENDBRANCH   1   3
BRANCH   1  18
ATOM     18  C   UNL     1       1.586   4.993  20.591  0.00  0.00    +0.000 C 
BRANCH  18  19
ATOM     19  S   UNL     1       2.913   6.187  20.194  0.00  0.00    +0.000 S 
BRANCH  19  20
ATOM     20  C   UNL     1       2.106   7.084  18.812  0.00  0.00    +0.000 C 
BRANCH  20  21
ATOM     21  C   UNL     1       1.604   8.447  19.265  0.00  0.00    +0.000 C 
ATOM     22  O   UNL     1       1.370   8.654  20.455  0.00  0.00    +0.000 OA
ATOM     23  N   UNL     1       1.427   9.368  18.240  0.00  0.00    +0.000 N 
ATOM     24  H   UNL     1       1.510   9.031  17.288  0.00  0.00    +0.000 HD
BRANCH  23  25
ATOM     25  C   UNL     1       1.001  10.719  18.413  0.00  0.00    +0.000 A 
ATOM     26  C   UNL     1       1.926  11.748  18.642  0.00  0.00    +0.000 A 
ATOM     27  C   UNL     1       1.528  13.066  18.861  0.00  0.00    +0.000 A 
ATOM     28  C   UNL     1       0.181  13.405  18.830  0.00  0.00    +0.000 A 
ATOM     29  C   UNL     1      -0.250  14.819  19.079  0.00  0.00    +0.000 C 
ATOM     30  C   UNL     1      -0.756  12.400  18.559  0.00  0.00    +0.000 A 
ATOM     31  C   UNL     1      -0.367  11.056  18.355  0.00  0.00    +0.000 A 
ATOM     32  C   UNL     1      -1.451  10.055  18.060  0.00  0.00    +0.000 C 
ENDBRANCH  23  25
ENDBRANCH  20  21
ENDBRANCH  19  20
ENDBRANCH  18  19
ENDBRANCH   1  18
TORSDOF 10
ENDMDL
MODEL 8
REMARK VINA RESULT:      -6.6      6.650      9.665
REMARK  Name = 
REMARK  14 active torsions:
REMARK  status: ('A' for Active; 'I' for Inactive)
REMARK    1  A    between atoms: C_1  and  O_2
REMARK    2  A    between atoms: O_2  and  C_3
REMARK    3  A    between atoms: C_8  and  N_9
REMARK    4  A    between atoms: C_10  and  C_12
REMARK    5  A    between atoms: C_12  and  C_13
REMARK    6  A    between atoms: C_12  and  O_14
REMARK    7  A    between atoms: O_14  and  C_15
REMARK    8  A    between atoms: C_15  and  C_17
REMARK    9  A    between atoms: C_17  and  S_18
REMARK   10  A    between atoms: S_18  and  C_19
REMARK   11  A    between atoms: C_19  and  C_20
REMARK   12  A    between atoms: N_22  and  C_23
REMARK   13  A    between atoms: C_26  and  C_27
REMARK   14  A    between atoms: C_29  and  C_30
REMARK                            x       y       z     vdW  Elec       q    Type
REMARK                         _______ _______ _______ _____ _____    ______ ____
ROOT
ATOM      1  C   UNL     1       7.714   7.460  17.889  0.00  0.00    +0.000 C 
ATOM      2  O   UNL     1       8.252   6.838  18.804  0.00  0.00    +0.000 OA
ENDROOT
BRANCH   1   3
ATOM      3  O   UNL     1       6.788   6.926  17.039  0.00  0.00    +0.000 OA
BRANCH   3   4
ATOM      4  C   UNL     1       6.545   5.502  17.192  0.00  0.00    +0.000 C 
ATOM      5  C   UNL     1       7.057   4.767  15.963  0.00  0.00    +0.000 C 
BRANCH   4   7
ATOM      6  N   UNL     1       4.906   4.961  19.031  0.00  0.00    +0.000 N 
ATOM      7  C   UNL     1       5.095   5.237  17.683  0.00  0.00    +0.000 C 
ATOM      8  O   UNL     1       4.178   5.362  16.861  0.00  0.00    +0.000 OA
ATOM      9  H   UNL     1       5.626   5.206  19.704  0.00  0.00    +0.000 HD
BRANCH   6  15
ATOM     10  C   UNL     1       2.654   5.422  19.925  0.00  0.00    +0.000 A 
ATOM     11  C   UNL     1       1.431   4.941  20.429  0.00  0.00    +0.000 A 
ATOM     12  C   UNL     1       1.254   3.587  20.706  0.00  0.00    +0.000 A 
ATOM     13  C   UNL     1       2.297   2.700  20.485  0.00  0.00    +0.000 A 
ATOM     14  C   UNL     1       3.500   3.158  19.945  0.00  0.00    +0.000 A 
ATOM     15  C   UNL     1       3.688   4.509  19.618  0.00  0.00    +0.000 A 
BRANCH  10  17
ATOM     16  C   UNL     1       1.849   7.639  20.149  0.00  0.00    +0.000 C 
ATOM     17  O   UNL     1       2.880   6.761  19.682  0.00  0.00    +0.000 OA
ENDBRANCH  10  17
ENDBRANCH   6  15
ENDBRANCH   4   7
ENDBRANCH   3   4
ENDBRANCH   1   3
BRANCH   1  18
ATOM     18  C   UNL     1       7.986   8.915  17.573  0.00  0.00    +0.000 C 
BRANCH  18  19
ATOM     19  S   UNL     1       8.953   9.681  18.924  0.00  0.00    +0.000 S 
BRANCH  19  20
ATOM     20  C   UNL     1       9.572  11.168  18.045  0.00  0.00    +0.000 C 
BRANCH  20  21
ATOM     21  C   UNL     1       9.655  12.361  18.985  0.00  0.00    +0.000 C 
ATOM     22  O   UNL     1       9.303  12.249  20.158  0.00  0.00    +0.000 OA
ATOM     23  N   UNL     1      10.121  13.529  18.395  0.00  0.00    +0.000 N 
ATOM     24  H   UNL     1      10.235  13.533  17.388  0.00  0.00    +0.000 HD
BRANCH  23  25
ATOM     25  C   UNL     1      10.322  14.770  19.072  0.00  0.00    +0.000 A 
ATOM     26  C   UNL     1      11.398  14.948  19.954  0.00  0.00    +0.000 A 
ATOM     27  C   UNL     1      11.586  16.135  20.662  0.00  0.00    +0.000 A 
ATOM     28  C   UNL     1      10.710  17.200  20.488  0.00  0.00    +0.000 A 
ATOM     29  C   UNL     1      10.901  18.470  21.259  0.00  0.00    +0.000 C 
ATOM     30  C   UNL     1       9.655  17.057  19.579  0.00  0.00    +0.000 A 
ATOM     31  C   UNL     1       9.442  15.852  18.870  0.00  0.00    +0.000 A 
ATOM     32  C   UNL     1       8.285  15.805  17.909  0.00  0.00    +0.000 C 
ENDBRANCH  23  25
ENDBRANCH  20  21
ENDBRANCH  19  20
ENDBRANCH  18  19
ENDBRANCH   1  18
TORSDOF 10
ENDMDL
MODEL 9
REMARK VINA RESULT:      -6.6      4.019      6.780
REMARK  Name = 
REMARK  14 active torsions:
REMARK  status: ('A' for Active; 'I' for Inactive)
REMARK    1  A    between atoms: C_1  and  O_2
REMARK    2  A    between atoms: O_2  and  C_3
REMARK    3  A    between atoms: C_8  and  N_9
REMARK    4  A    between atoms: C_10  and  C_12
REMARK    5  A    between atoms: C_12  and  C_13
REMARK    6  A    between atoms: C_12  and  O_14
REMARK    7  A    between atoms: O_14  and  C_15
REMARK    8  A    between atoms: C_15  and  C_17
REMARK    9  A    between atoms: C_17  and  S_18
REMARK   10  A    between atoms: S_18  and  C_19
REMARK   11  A    between atoms: C_19  and  C_20
REMARK   12  A    between atoms: N_22  and  C_23
REMARK   13  A    between atoms: C_26  and  C_27
REMARK   14  A    between atoms: C_29  and  C_30
REMARK                            x       y       z     vdW  Elec       q    Type
REMARK                         _______ _______ _______ _____ _____    ______ ____
ROOT
ATOM      1  C   UNL     1      -1.119  10.967  18.907  0.00  0.00    +0.000 C 
ATOM      2  O   UNL     1      -0.532  10.077  18.294  0.00  0.00    +0.000 OA
ENDROOT
BRANCH   1   3
ATOM      3  O   UNL     1      -2.017  11.825  18.339  0.00  0.00    +0.000 OA
BRANCH   3   4
ATOM      4  C   UNL     1      -3.359  11.297  18.159  0.00  0.00    +0.000 C 
ATOM      5  C   UNL     1      -3.640  11.126  16.673  0.00  0.00    +0.000 C 
BRANCH   4   7
ATOM      6  N   UNL     1      -3.914  13.148  19.780  0.00  0.00    +0.000 N 
ATOM      7  C   UNL     1      -4.381  12.071  19.038  0.00  0.00    +0.000 C 
ATOM      8  O   UNL     1      -5.570  11.734  18.969  0.00  0.00    +0.000 OA
ATOM      9  H   UNL     1      -3.028  13.584  19.539  0.00  0.00    +0.000 HD
BRANCH   6  15
ATOM     10  C   UNL     1      -4.599  13.444  22.130  0.00  0.00    +0.000 A 
ATOM     11  C   UNL     1      -5.277  14.198  23.107  0.00  0.00    +0.000 A 
ATOM     12  C   UNL     1      -6.069  15.287  22.748  0.00  0.00    +0.000 A 
ATOM     13  C   UNL     1      -6.195  15.632  21.411  0.00  0.00    +0.000 A 
ATOM     14  C   UNL     1      -5.494  14.919  20.438  0.00  0.00    +0.000 A 
ATOM     15  C   UNL     1      -4.656  13.846  20.777  0.00  0.00    +0.000 A 
BRANCH  10  17
ATOM     16  C   UNL     1      -3.425  12.259  23.812  0.00  0.00    +0.000 C 
ATOM     17  O   UNL     1      -3.843  12.335  22.445  0.00  0.00    +0.000 OA
ENDBRANCH  10  17
ENDBRANCH   6  15
ENDBRANCH   4   7
ENDBRANCH   3   4
ENDBRANCH   1   3
BRANCH   1  18
ATOM     18  C   UNL     1      -0.947  11.240  20.386  0.00  0.00    +0.000 C 
BRANCH  18  19
ATOM     19  S   UNL     1       0.830  11.268  20.816  0.00  0.00    +0.000 S 
BRANCH  19  20
ATOM     20  C   UNL     1       0.869   9.890  22.026  0.00  0.00    +0.000 C 
BRANCH  20  21
ATOM     21  C   UNL     1       0.712   8.547  21.329  0.00  0.00    +0.000 C 
ATOM     22  O   UNL     1      -0.380   7.979  21.324  0.00  0.00    +0.000 OA
ATOM     23  N   UNL     1       1.877   8.053  20.757  0.00  0.00    +0.000 N 
ATOM     24  H   UNL     1       2.742   8.541  20.959  0.00  0.00    +0.000 HD
BRANCH  23  25
ATOM     25  C   UNL     1       1.979   6.835  20.020  0.00  0.00    +0.000 A 
ATOM     26  C   UNL     1       1.712   5.597  20.624  0.00  0.00    +0.000 A 
ATOM     27  C   UNL     1       1.853   4.393  19.936  0.00  0.00    +0.000 A 
ATOM     28  C   UNL     1       2.243   4.390  18.602  0.00  0.00    +0.000 A 
ATOM     29  C   UNL     1       2.408   3.095  17.865  0.00  0.00    +0.000 C 
ATOM     30  C   UNL     1       2.471   5.617  17.969  0.00  0.00    +0.000 A 
ATOM     31  C   UNL     1       2.352   6.845  18.660  0.00  0.00    +0.000 A 
ATOM     32  C   UNL     1       2.610   8.109  17.885  0.00  0.00    +0.000 C 
ENDBRANCH  23  25
ENDBRANCH  20  21
ENDBRANCH  19  20
ENDBRANCH  18  19
ENDBRANCH   1  18
TORSDOF 10
ENDMDL
