MODEL 1
REMARK VINA RESULT:      -6.9      0.000      0.000
REMARK  Name = 
REMARK  10 active torsions:
REMARK  status: ('A' for Active; 'I' for Inactive)
REMARK    1  A    between atoms: C_1  and  C_2
REMARK    2  A    between atoms: C_2  and  N_3
REMARK    3  A    between atoms: N_3  and  C_4
REMARK    4  A    between atoms: N_3  and  C_6
REMARK    5  A    between atoms: C_4  and  C_5
REMARK    6  A    between atoms: C_6  and  C_7
REMARK    7  A    between atoms: C_7  and  N_8
REMARK    8  A    between atoms: N_8  and  C_9
REMARK    9  A    between atoms: C_12  and  O_13
REMARK   10  A    between atoms: O_13  and  C_14
REMARK                            x       y       z     vdW  Elec       q    Type
REMARK                         _______ _______ _______ _____ _____    ______ ____
ROOT
ATOM      1  C   UNL     1       5.375   4.145  17.798  0.00  0.00    +0.000 A 
ATOM      2  C   UNL     1       5.798   5.006  18.818  0.00  0.00    +0.000 A 
ATOM      3  C   UNL     1       6.637   6.083  18.562  0.00  0.00    +0.000 A 
ATOM      4  C   UNL     1       7.119   6.302  17.274  0.00  0.00    +0.000 A 
ATOM      5  C   UNL     1       6.789   5.426  16.225  0.00  0.00    +0.000 A 
ATOM      6  N   UNL     1       7.301   5.648  14.990  0.00  0.00    +0.000 NA
ATOM      7  C   UNL     1       7.003   4.800  13.987  0.00  0.00    +0.000 A 
ATOM      8  C   UNL     1       6.194   3.701  14.141  0.00  0.00    +0.000 A 
ATOM      9  C   UNL     1       5.657   3.465  15.402  0.00  0.00    +0.000 A 
ATOM     10  C   UNL     1       5.927   4.325  16.492  0.00  0.00    +0.000 A 
ENDROOT
BRANCH   1  11
ATOM     11  N   UNL     1       4.507   3.075  18.110  0.00  0.00    +0.000 N 
ATOM     12  H   UNL     1       4.928   2.154  18.029  0.00  0.00    +0.000 HD
BRANCH  11  13
ATOM     13  C   UNL     1       3.162   3.118  17.521  0.00  0.00    +0.000 C 
BRANCH  13  14
ATOM     14  C   UNL     1       2.413   4.435  17.830  0.00  0.00    +0.000 C 
BRANCH  14  15
ATOM     15  N   UNL     1       1.553   4.457  19.032  0.00  0.00    +0.000 NA
BRANCH  15  17
ATOM     16  C   UNL     1       1.311   2.899  21.010  0.00  0.00    +0.000 C 
ATOM     17  C   UNL     1       1.238   3.095  19.498  0.00  0.00    +0.000 C 
ENDBRANCH  15  17
BRANCH  15  18
ATOM     18  C   UNL     1       2.123   5.331  20.073  0.00  0.00    +0.000 C 
ATOM     19  C   UNL     1       2.524   6.740  19.633  0.00  0.00    +0.000 C 
ENDBRANCH  15  18
ENDBRANCH  14  15
ENDBRANCH  13  14
ENDBRANCH  11  13
ENDBRANCH   1  11
BRANCH   4  20
ATOM     20  O   UNL     1       7.946   7.357  16.951  0.00  0.00    +0.000 OA
ATOM     21  C   UNL     1       7.898   8.512  17.778  0.00  0.00    +0.000 C 
ENDBRANCH   4  20
TORSDOF 7
ENDMDL
MODEL 2
REMARK VINA RESULT:      -6.9      0.892      1.109
REMARK  Name = 
REMARK  10 active torsions:
REMARK  status: ('A' for Active; 'I' for Inactive)
REMARK    1  A    between atoms: C_1  and  C_2
REMARK    2  A    between atoms: C_2  and  N_3
REMARK    3  A    between atoms: N_3  and  C_4
REMARK    4  A    between atoms: N_3  and  C_6
REMARK    5  A    between atoms: C_4  and  C_5
REMARK    6  A    between atoms: C_6  and  C_7
REMARK    7  A    between atoms: C_7  and  N_8
REMARK    8  A    between atoms: N_8  and  C_9
REMARK    9  A    between atoms: C_12  and  O_13
REMARK   10  A    between atoms: O_13  and  C_14
REMARK                            x       y       z     vdW  Elec       q    Type
REMARK                         _______ _______ _______ _____ _____    ______ ____
ROOT
ATOM      1  C   UNL     1       5.714   4.158  17.986  0.00  0.00    +0.000 A 
ATOM      2  C   UNL     1       6.187   5.044  18.960  0.00  0.00    +0.000 A 
ATOM      3  C   UNL     1       6.940   6.163  18.626  0.00  0.00    +0.000 A 
ATOM      4  C   UNL     1       7.281   6.402  17.296  0.00  0.00    +0.000 A 
ATOM      5  C   UNL     1       6.899   5.505  16.284  0.00  0.00    +0.000 A 
ATOM      6  N   UNL     1       7.276   5.748  15.005  0.00  0.00    +0.000 NA
ATOM      7  C   UNL     1       6.928   4.881  14.035  0.00  0.00    +0.000 A 
ATOM      8  C   UNL     1       6.197   3.741  14.266  0.00  0.00    +0.000 A 
ATOM      9  C   UNL     1       5.798   3.482  15.573  0.00  0.00    +0.000 A 
ATOM     10  C   UNL     1       6.127   4.360  16.632  0.00  0.00    +0.000 A 
ENDROOT
BRANCH   1  11
ATOM     11  N   UNL     1       4.939   3.044  18.380  0.00  0.00    +0.000 N 
ATOM     12  H   UNL     1       4.225   2.771  17.713  0.00  0.00    +0.000 HD
BRANCH  11  13
ATOM     13  C   UNL     1       4.434   3.042  19.759  0.00  0.00    +0.000 C 
BRANCH  13  14
ATOM     14  C   UNL     1       3.136   3.867  19.924  0.00  0.00    +0.000 C 
BRANCH  14  15
ATOM     15  N   UNL     1       1.923   3.363  19.245  0.00  0.00    +0.000 NA
BRANCH  15  17
ATOM     16  C   UNL     1       1.309   2.674  21.600  0.00  0.00    +0.000 C 
ATOM     17  C   UNL     1       0.842   3.083  20.206  0.00  0.00    +0.000 C 
ENDBRANCH  15  17
BRANCH  15  18
ATOM     18  C   UNL     1       1.529   4.255  18.140  0.00  0.00    +0.000 C 
ATOM     19  C   UNL     1       2.313   5.561  18.007  0.00  0.00    +0.000 C 
ENDBRANCH  15  18
ENDBRANCH  14  15
ENDBRANCH  13  14
ENDBRANCH  11  13
ENDBRANCH   1  11
BRANCH   4  20
ATOM     20  O   UNL     1       8.016   7.498  16.896  0.00  0.00    +0.000 OA
ATOM     21  C   UNL     1       8.056   8.621  17.766  0.00  0.00    +0.000 C 
ENDBRANCH   4  20
TORSDOF 7
ENDMDL
MODEL 3
REMARK VINA RESULT:      -6.8      0.987      1.849
REMARK  Name = 
REMARK  10 active torsions:
REMARK  status: ('A' for Active; 'I' for Inactive)
REMARK    1  A    between atoms: C_1  and  C_2
REMARK    2  A    between atoms: C_2  and  N_3
REMARK    3  A    between atoms: N_3  and  C_4
REMARK    4  A    between atoms: N_3  and  C_6
REMARK    5  A    between atoms: C_4  and  C_5
REMARK    6  A    between atoms: C_6  and  C_7
REMARK    7  A    between atoms: C_7  and  N_8
REMARK    8  A    between atoms: N_8  and  C_9
REMARK    9  A    between atoms: C_12  and  O_13
REMARK   10  A    between atoms: O_13  and  C_14
REMARK                            x       y       z     vdW  Elec       q    Type
REMARK                         _______ _______ _______ _____ _____    ______ ____
ROOT
ATOM      1  C   UNL     1       5.508   4.205  17.995  0.00  0.00    +0.000 A 
ATOM      2  C   UNL     1       6.000   5.063  18.984  0.00  0.00    +0.000 A 
ATOM      3  C   UNL     1       6.836   6.129  18.676  0.00  0.00    +0.000 A 
ATOM      4  C   UNL     1       7.242   6.339  17.360  0.00  0.00    +0.000 A 
ATOM      5  C   UNL     1       6.841   5.464  16.336  0.00  0.00    +0.000 A 
ATOM      6  N   UNL     1       7.281   5.676  15.072  0.00  0.00    +0.000 NA
ATOM      7  C   UNL     1       6.914   4.829  14.092  0.00  0.00    +0.000 A 
ATOM      8  C   UNL     1       6.103   3.739  14.297  0.00  0.00    +0.000 A 
ATOM      9  C   UNL     1       5.639   3.513  15.589  0.00  0.00    +0.000 A 
ATOM     10  C   UNL     1       5.984   4.374  16.658  0.00  0.00    +0.000 A 
ENDROOT
BRANCH   1  11
ATOM     11  N   UNL     1       4.648   3.145  18.362  0.00  0.00    +0.000 N 
ATOM     12  H   UNL     1       3.753   3.143  17.883  0.00  0.00    +0.000 HD
BRANCH  11  13
ATOM     13  C   UNL     1       4.502   2.876  19.798  0.00  0.00    +0.000 C 
BRANCH  13  14
ATOM     14  C   UNL     1       3.061   2.478  20.192  0.00  0.00    +0.000 C 
BRANCH  14  15
ATOM     15  N   UNL     1       2.069   3.567  20.314  0.00  0.00    +0.000 NA
BRANCH  15  17
ATOM     16  C   UNL     1       2.379   5.986  19.645  0.00  0.00    +0.000 C 
ATOM     17  C   UNL     1       2.715   4.857  20.615  0.00  0.00    +0.000 C 
ENDBRANCH  15  17
BRANCH  15  18
ATOM     18  C   UNL     1       1.176   3.601  19.142  0.00  0.00    +0.000 C 
ATOM     19  C   UNL     1       0.718   2.248  18.597  0.00  0.00    +0.000 C 
ENDBRANCH  15  18
ENDBRANCH  14  15
ENDBRANCH  13  14
ENDBRANCH  11  13
ENDBRANCH   1  11
BRANCH   4  20
ATOM     20  O   UNL     1       8.061   7.384  16.985  0.00  0.00    +0.000 OA
ATOM     21  C   UNL     1       7.907   8.621  17.665  0.00  0.00    +0.000 C 
ENDBRANCH   4  20
TORSDOF 7
ENDMDL
MODEL 4
REMARK VINA RESULT:      -6.7      0.464      1.693
REMARK  Name = 
REMARK  10 active torsions:
REMARK  status: ('A' for Active; 'I' for Inactive)
REMARK    1  A    between atoms: C_1  and  C_2
REMARK    2  A    between atoms: C_2  and  N_3
REMARK    3  A    between atoms: N_3  and  C_4
REMARK    4  A    between atoms: N_3  and  C_6
REMARK    5  A    between atoms: C_4  and  C_5
REMARK    6  A    between atoms: C_6  and  C_7
REMARK    7  A    between atoms: C_7  and  N_8
REMARK    8  A    between atoms: N_8  and  C_9
REMARK    9  A    between atoms: C_12  and  O_13
REMARK   10  A    between atoms: O_13  and  C_14
REMARK                            x       y       z     vdW  Elec       q    Type
REMARK                         _______ _______ _______ _____ _____    ______ ____
ROOT
ATOM      1  C   UNL     1       5.247   3.971  17.846  0.00  0.00    +0.000 A 
ATOM      2  C   UNL     1       5.692   4.639  18.991  0.00  0.00    +0.000 A 
ATOM      3  C   UNL     1       6.635   5.658  18.923  0.00  0.00    +0.000 A 
ATOM      4  C   UNL     1       7.198   6.006  17.697  0.00  0.00    +0.000 A 
ATOM      5  C   UNL     1       6.846   5.317  16.523  0.00  0.00    +0.000 A 
ATOM      6  N   UNL     1       7.437   5.657  15.352  0.00  0.00    +0.000 NA
ATOM      7  C   UNL     1       7.117   4.987  14.229  0.00  0.00    +0.000 A 
ATOM      8  C   UNL     1       6.208   3.957  14.196  0.00  0.00    +0.000 A 
ATOM      9  C   UNL     1       5.589   3.602  15.389  0.00  0.00    +0.000 A 
ATOM     10  C   UNL     1       5.878   4.275  16.599  0.00  0.00    +0.000 A 
ENDROOT
BRANCH   1  11
ATOM     11  N   UNL     1       4.275   2.953  17.970  0.00  0.00    +0.000 N 
ATOM     12  H   UNL     1       4.561   2.050  17.606  0.00  0.00    +0.000 HD
BRANCH  11  13
ATOM     13  C   UNL     1       2.903   3.296  17.573  0.00  0.00    +0.000 C 
BRANCH  13  14
ATOM     14  C   UNL     1       2.377   4.573  18.268  0.00  0.00    +0.000 C 
BRANCH  14  15
ATOM     15  N   UNL     1       2.166   4.509  19.731  0.00  0.00    +0.000 NA
BRANCH  15  17
ATOM     16  C   UNL     1       2.485   7.004  19.467  0.00  0.00    +0.000 C 
ATOM     17  C   UNL     1       1.949   5.848  20.306  0.00  0.00    +0.000 C 
ENDBRANCH  15  17
BRANCH  15  18
ATOM     18  C   UNL     1       1.116   3.531  20.069  0.00  0.00    +0.000 C 
ATOM     19  C   UNL     1       1.334   2.712  21.342  0.00  0.00    +0.000 C 
ENDBRANCH  15  18
ENDBRANCH  14  15
ENDBRANCH  13  14
ENDBRANCH  11  13
ENDBRANCH   1  11
BRANCH   4  20
ATOM     20  O   UNL     1       8.130   7.013  17.558  0.00  0.00    +0.000 OA
ATOM     21  C   UNL     1       7.667   8.355  17.617  0.00  0.00    +0.000 C 
ENDBRANCH   4  20
TORSDOF 7
ENDMDL
MODEL 5
REMARK VINA RESULT:      -6.5      0.927      1.337
REMARK  Name = 
REMARK  10 active torsions:
REMARK  status: ('A' for Active; 'I' for Inactive)
REMARK    1  A    between atoms: C_1  and  C_2
REMARK    2  A    between atoms: C_2  and  N_3
REMARK    3  A    between atoms: N_3  and  C_4
REMARK    4  A    between atoms: N_3  and  C_6
REMARK    5  A    between atoms: C_4  and  C_5
REMARK    6  A    between atoms: C_6  and  C_7
REMARK    7  A    between atoms: C_7  and  N_8
REMARK    8  A    between atoms: N_8  and  C_9
REMARK    9  A    between atoms: C_12  and  O_13
REMARK   10  A    between atoms: O_13  and  C_14
REMARK                            x       y       z     vdW  Elec       q    Type
REMARK                         _______ _______ _______ _____ _____    ______ ____
ROOT
ATOM      1  C   UNL     1       5.471   4.078  17.918  0.00  0.00    +0.000 A 
ATOM      2  C   UNL     1       5.813   4.983  18.930  0.00  0.00    +0.000 A 
ATOM      3  C   UNL     1       6.544   6.133  18.664  0.00  0.00    +0.000 A 
ATOM      4  C   UNL     1       6.998   6.389  17.372  0.00  0.00    +0.000 A 
ATOM      5  C   UNL     1       6.751   5.478  16.330  0.00  0.00    +0.000 A 
ATOM      6  N   UNL     1       7.235   5.739  15.092  0.00  0.00    +0.000 NA
ATOM      7  C   UNL     1       7.016   4.860  14.096  0.00  0.00    +0.000 A 
ATOM      8  C   UNL     1       6.317   3.688  14.261  0.00  0.00    +0.000 A 
ATOM      9  C   UNL     1       5.809   3.411  15.525  0.00  0.00    +0.000 A 
ATOM     10  C   UNL     1       5.999   4.301  16.608  0.00  0.00    +0.000 A 
ENDROOT
BRANCH   1  11
ATOM     11  N   UNL     1       4.711   2.931  18.240  0.00  0.00    +0.000 N 
ATOM     12  H   UNL     1       3.816   2.873  17.766  0.00  0.00    +0.000 HD
BRANCH  11  13
ATOM     13  C   UNL     1       4.603   2.587  19.664  0.00  0.00    +0.000 C 
BRANCH  13  14
ATOM     14  C   UNL     1       3.163   2.730  20.209  0.00  0.00    +0.000 C 
BRANCH  14  15
ATOM     15  N   UNL     1       2.393   3.917  19.778  0.00  0.00    +0.000 NA
BRANCH  15  17
ATOM     16  C   UNL     1       1.310   4.167  17.506  0.00  0.00    +0.000 C 
ATOM     17  C   UNL     1       1.271   3.544  18.898  0.00  0.00    +0.000 C 
ENDBRANCH  15  17
BRANCH  15  18
ATOM     18  C   UNL     1       2.001   4.740  20.936  0.00  0.00    +0.000 C 
ATOM     19  C   UNL     1       1.779   6.229  20.668  0.00  0.00    +0.000 C 
ENDBRANCH  15  18
ENDBRANCH  14  15
ENDBRANCH  13  14
ENDBRANCH  11  13
ENDBRANCH   1  11
BRANCH   4  20
ATOM     20  O   UNL     1       7.719   7.516  17.039  0.00  0.00    +0.000 OA
ATOM     21  C   UNL     1       8.269   8.286  18.099  0.00  0.00    +0.000 C 
ENDBRANCH   4  20
TORSDOF 7
ENDMDL
MODEL 6
REMARK VINA RESULT:      -6.5      2.053      2.731
REMARK  Name = 
REMARK  10 active torsions:
REMARK  status: ('A' for Active; 'I' for Inactive)
REMARK    1  A    between atoms: C_1  and  C_2
REMARK    2  A    between atoms: C_2  and  N_3
REMARK    3  A    between atoms: N_3  and  C_4
REMARK    4  A    between atoms: N_3  and  C_6
REMARK    5  A    between atoms: C_4  and  C_5
REMARK    6  A    between atoms: C_6  and  C_7
REMARK    7  A    between atoms: C_7  and  N_8
REMARK    8  A    between atoms: N_8  and  C_9
REMARK    9  A    between atoms: C_12  and  O_13
REMARK   10  A    between atoms: O_13  and  C_14
REMARK                            x       y       z     vdW  Elec       q    Type
REMARK                         _______ _______ _______ _____ _____    ______ ____
ROOT
ATOM      1  C   UNL     1       4.913   4.398  18.750  0.00  0.00    +0.000 A 
ATOM      2  C   UNL     1       4.100   5.254  19.502  0.00  0.00    +0.000 A 
ATOM      3  C   UNL     1       3.577   6.423  18.964  0.00  0.00    +0.000 A 
ATOM      4  C   UNL     1       3.894   6.794  17.660  0.00  0.00    +0.000 A 
ATOM      5  C   UNL     1       4.767   6.013  16.882  0.00  0.00    +0.000 A 
ATOM      6  N   UNL     1       5.083   6.419  15.629  0.00  0.00    +0.000 NA
ATOM      7  C   UNL     1       5.934   5.683  14.889  0.00  0.00    +0.000 A 
ATOM      8  C   UNL     1       6.514   4.521  15.335  0.00  0.00    +0.000 A 
ATOM      9  C   UNL     1       6.194   4.089  16.618  0.00  0.00    +0.000 A 
ATOM     10  C   UNL     1       5.300   4.815  17.439  0.00  0.00    +0.000 A 
ENDROOT
BRANCH   1  11
ATOM     11  N   UNL     1       5.406   3.213  19.341  0.00  0.00    +0.000 N 
ATOM     12  H   UNL     1       6.140   2.753  18.813  0.00  0.00    +0.000 HD
BRANCH  11  13
ATOM     13  C   UNL     1       4.409   2.258  19.843  0.00  0.00    +0.000 C 
BRANCH  13  14
ATOM     14  C   UNL     1       3.263   2.001  18.836  0.00  0.00    +0.000 C 
BRANCH  14  15
ATOM     15  N   UNL     1       1.886   1.966  19.375  0.00  0.00    +0.000 NA
BRANCH  15  17
ATOM     16  C   UNL     1       1.274   3.732  21.079  0.00  0.00    +0.000 C 
ATOM     17  C   UNL     1       1.851   2.347  20.798  0.00  0.00    +0.000 C 
ENDBRANCH  15  17
BRANCH  15  18
ATOM     18  C   UNL     1       0.968   2.742  18.522  0.00  0.00    +0.000 C 
ATOM     19  C   UNL     1       1.615   3.651  17.477  0.00  0.00    +0.000 C 
ENDBRANCH  15  18
ENDBRANCH  14  15
ENDBRANCH  13  14
ENDBRANCH  11  13
ENDBRANCH   1  11
BRANCH   4  20
ATOM     20  O   UNL     1       3.401   7.935  17.063  0.00  0.00    +0.000 OA
ATOM     21  C   UNL     1       2.352   8.627  17.725  0.00  0.00    +0.000 C 
ENDBRANCH   4  20
TORSDOF 7
ENDMDL
MODEL 7
REMARK VINA RESULT:      -6.5      1.067      1.594
REMARK  Name = 
REMARK  10 active torsions:
REMARK  status: ('A' for Active; 'I' for Inactive)
REMARK    1  A    between atoms: C_1  and  C_2
REMARK    2  A    between atoms: C_2  and  N_3
REMARK    3  A    between atoms: N_3  and  C_4
REMARK    4  A    between atoms: N_3  and  C_6
REMARK    5  A    between atoms: C_4  and  C_5
REMARK    6  A    between atoms: C_6  and  C_7
REMARK    7  A    between atoms: C_7  and  N_8
REMARK    8  A    between atoms: N_8  and  C_9
REMARK    9  A    between atoms: C_12  and  O_13
REMARK   10  A    between atoms: O_13  and  C_14
REMARK                            x       y       z     vdW  Elec       q    Type
REMARK                         _______ _______ _______ _____ _____    ______ ____
ROOT
ATOM      1  C   UNL     1       5.912   4.255  18.275  0.00  0.00    +0.000 A 
ATOM      2  C   UNL     1       6.450   5.162  19.194  0.00  0.00    +0.000 A 
ATOM      3  C   UNL     1       7.159   6.284  18.783  0.00  0.00    +0.000 A 
ATOM      4  C   UNL     1       7.392   6.504  17.428  0.00  0.00    +0.000 A 
ATOM      5  C   UNL     1       6.942   5.586  16.463  0.00  0.00    +0.000 A 
ATOM      6  N   UNL     1       7.214   5.811  15.154  0.00  0.00    +0.000 NA
ATOM      7  C   UNL     1       6.801   4.924  14.230  0.00  0.00    +0.000 A 
ATOM      8  C   UNL     1       6.105   3.780  14.536  0.00  0.00    +0.000 A 
ATOM      9  C   UNL     1       5.814   3.539  15.874  0.00  0.00    +0.000 A 
ATOM     10  C   UNL     1       6.214   4.439  16.890  0.00  0.00    +0.000 A 
ENDROOT
BRANCH   1  11
ATOM     11  N   UNL     1       5.185   3.139  18.747  0.00  0.00    +0.000 N 
ATOM     12  H   UNL     1       4.823   2.533  18.017  0.00  0.00    +0.000 HD
BRANCH  11  13
ATOM     13  C   UNL     1       4.188   3.392  19.795  0.00  0.00    +0.000 C 
BRANCH  13  14
ATOM     14  C   UNL     1       2.954   4.167  19.276  0.00  0.00    +0.000 C 
BRANCH  14  15
ATOM     15  N   UNL     1       1.719   4.092  20.086  0.00  0.00    +0.000 NA
BRANCH  15  17
ATOM     16  C   UNL     1       1.259   2.340  18.321  0.00  0.00    +0.000 C 
ATOM     17  C   UNL     1       0.738   3.167  19.493  0.00  0.00    +0.000 C 
ENDBRANCH  15  17
BRANCH  15  18
ATOM     18  C   UNL     1       2.032   3.812  21.499  0.00  0.00    +0.000 C 
ATOM     19  C   UNL     1       1.513   2.489  22.061  0.00  0.00    +0.000 C 
ENDBRANCH  15  18
ENDBRANCH  14  15
ENDBRANCH  13  14
ENDBRANCH  11  13
ENDBRANCH   1  11
BRANCH   4  20
ATOM     20  O   UNL     1       8.079   7.601  16.953  0.00  0.00    +0.000 OA
ATOM     21  C   UNL     1       8.082   8.776  17.751  0.00  0.00    +0.000 C 
ENDBRANCH   4  20
TORSDOF 7
ENDMDL
MODEL 8
REMARK VINA RESULT:      -6.5      1.076      1.938
REMARK  Name = 
REMARK  10 active torsions:
REMARK  status: ('A' for Active; 'I' for Inactive)
REMARK    1  A    between atoms: C_1  and  C_2
REMARK    2  A    between atoms: C_2  and  N_3
REMARK    3  A    between atoms: N_3  and  C_4
REMARK    4  A    between atoms: N_3  and  C_6
REMARK    5  A    between atoms: C_4  and  C_5
REMARK    6  A    between atoms: C_6  and  C_7
REMARK    7  A    between atoms: C_7  and  N_8
REMARK    8  A    between atoms: N_8  and  C_9
REMARK    9  A    between atoms: C_12  and  O_13
REMARK   10  A    between atoms: O_13  and  C_14
REMARK                            x       y       z     vdW  Elec       q    Type
REMARK                         _______ _______ _______ _____ _____    ______ ____
ROOT
ATOM      1  C   UNL     1       5.994   4.308  18.305  0.00  0.00    +0.000 A 
ATOM      2  C   UNL     1       6.537   5.247  19.188  0.00  0.00    +0.000 A 
ATOM      3  C   UNL     1       7.206   6.376  18.733  0.00  0.00    +0.000 A 
ATOM      4  C   UNL     1       7.392   6.574  17.367  0.00  0.00    +0.000 A 
ATOM      5  C   UNL     1       6.934   5.626  16.435  0.00  0.00    +0.000 A 
ATOM      6  N   UNL     1       7.160   5.831  15.114  0.00  0.00    +0.000 NA
ATOM      7  C   UNL     1       6.740   4.915  14.221  0.00  0.00    +0.000 A 
ATOM      8  C   UNL     1       6.082   3.762  14.571  0.00  0.00    +0.000 A 
ATOM      9  C   UNL     1       5.838   3.541  15.923  0.00  0.00    +0.000 A 
ATOM     10  C   UNL     1       6.248   4.471  16.907  0.00  0.00    +0.000 A 
ENDROOT
BRANCH   1  11
ATOM     11  N   UNL     1       5.308   3.185  18.821  0.00  0.00    +0.000 N 
ATOM     12  H   UNL     1       5.267   2.391  18.190  0.00  0.00    +0.000 HD
BRANCH  11  13
ATOM     13  C   UNL     1       4.017   3.438  19.472  0.00  0.00    +0.000 C 
BRANCH  13  14
ATOM     14  C   UNL     1       3.258   4.637  18.856  0.00  0.00    +0.000 C 
BRANCH  14  15
ATOM     15  N   UNL     1       2.936   5.767  19.754  0.00  0.00    +0.000 NA
BRANCH  15  17
ATOM     16  C   UNL     1       3.364   7.141  17.674  0.00  0.00    +0.000 C 
ATOM     17  C   UNL     1       2.614   6.988  18.994  0.00  0.00    +0.000 C 
ENDBRANCH  15  17
BRANCH  15  18
ATOM     18  C   UNL     1       1.908   5.382  20.737  0.00  0.00    +0.000 C 
ATOM     19  C   UNL     1       0.881   4.346  20.278  0.00  0.00    +0.000 C 
ENDBRANCH  15  18
ENDBRANCH  14  15
ENDBRANCH  13  14
ENDBRANCH  11  13
ENDBRANCH   1  11
BRANCH   4  20
ATOM     20  O   UNL     1       8.037   7.677  16.849  0.00  0.00    +0.000 OA
ATOM     21  C   UNL     1       8.013   8.875  17.611  0.00  0.00    +0.000 C 
ENDBRANCH   4  20
TORSDOF 7
ENDMDL
MODEL 9
REMARK VINA RESULT:      -6.4      0.888      1.733
REMARK  Name = 
REMARK  10 active torsions:
REMARK  status: ('A' for Active; 'I' for Inactive)
REMARK    1  A    between atoms: C_1  and  C_2
REMARK    2  A    between atoms: C_2  and  N_3
REMARK    3  A    between atoms: N_3  and  C_4
REMARK    4  A    between atoms: N_3  and  C_6
REMARK    5  A    between atoms: C_4  and  C_5
REMARK    6  A    between atoms: C_6  and  C_7
REMARK    7  A    between atoms: C_7  and  N_8
REMARK    8  A    between atoms: N_8  and  C_9
REMARK    9  A    between atoms: C_12  and  O_13
REMARK   10  A    between atoms: O_13  and  C_14
REMARK                            x       y       z     vdW  Elec       q    Type
REMARK                         _______ _______ _______ _____ _____    ______ ____
ROOT
ATOM      1  C   UNL     1       5.216   3.943  17.021  0.00  0.00    +0.000 A 
ATOM      2  C   UNL     1       5.520   4.701  18.157  0.00  0.00    +0.000 A 
ATOM      3  C   UNL     1       6.395   5.779  18.103  0.00  0.00    +0.000 A 
ATOM      4  C   UNL     1       7.034   6.100  16.907  0.00  0.00    +0.000 A 
ATOM      5  C   UNL     1       6.826   5.326  15.751  0.00  0.00    +0.000 A 
ATOM      6  N   UNL     1       7.488   5.644  14.612  0.00  0.00    +0.000 NA
ATOM      7  C   UNL     1       7.307   4.894  13.509  0.00  0.00    +0.000 A 
ATOM      8  C   UNL     1       6.474   3.802  13.465  0.00  0.00    +0.000 A 
ATOM      9  C   UNL     1       5.784   3.468  14.625  0.00  0.00    +0.000 A 
ATOM     10  C   UNL     1       5.927   4.224  15.812  0.00  0.00    +0.000 A 
ENDROOT
BRANCH   1  11
ATOM     11  N   UNL     1       4.306   2.867  17.128  0.00  0.00    +0.000 N 
ATOM     12  H   UNL     1       4.307   2.235  16.334  0.00  0.00    +0.000 HD
BRANCH  11  13
ATOM     13  C   UNL     1       2.944   3.193  17.571  0.00  0.00    +0.000 C 
BRANCH  13  14
ATOM     14  C   UNL     1       2.602   2.589  18.953  0.00  0.00    +0.000 C 
BRANCH  14  15
ATOM     15  N   UNL     1       2.637   3.502  20.116  0.00  0.00    +0.000 NA
BRANCH  15  17
ATOM     16  C   UNL     1       2.033   5.949  20.326  0.00  0.00    +0.000 C 
ATOM     17  C   UNL     1       1.577   4.522  20.037  0.00  0.00    +0.000 C 
ENDBRANCH  15  17
BRANCH  15  18
ATOM     18  C   UNL     1       2.649   2.744  21.380  0.00  0.00    +0.000 C 
ATOM     19  C   UNL     1       1.292   2.507  22.044  0.00  0.00    +0.000 C 
ENDBRANCH  15  18
ENDBRANCH  14  15
ENDBRANCH  13  14
ENDBRANCH  11  13
ENDBRANCH   1  11
BRANCH   4  20
ATOM     20  O   UNL     1       7.905   7.161  16.783  0.00  0.00    +0.000 OA
ATOM     21  C   UNL     1       7.754   8.249  17.684  0.00  0.00    +0.000 C 
ENDBRANCH   4  20
TORSDOF 7
ENDMDL
