MODEL 1
REMARK VINA RESULT:      -8.0      0.000      0.000
REMARK  Name = 
REMARK  5 active torsions:
REMARK  status: ('A' for Active; 'I' for Inactive)
REMARK    1  A    between atoms: C_1  and  O_2
REMARK    2  A    between atoms: O_2  and  C_3
REMARK    3  A    between atoms: C_8  and  C_10
REMARK    4  A    between atoms: C_15  and  C_16
REMARK    5  A    between atoms: C_16  and  C_17
REMARK                            x       y       z     vdW  Elec       q    Type
REMARK                         _______ _______ _______ _____ _____    ______ ____
ROOT
ATOM      1  C   UNL     1       2.438   6.812  19.921  0.00  0.00    +0.000 A 
ATOM      2  C   UNL     1       1.690   7.045  21.088  0.00  0.00    +0.000 A 
ATOM      3  C   UNL     1       0.915   8.197  21.267  0.00  0.00    +0.000 A 
ATOM      4  C   UNL     1       0.840   9.034  20.169  0.00  0.00    +0.000 A 
ATOM      5  O   UNL     1       0.099  10.171  20.059  0.00  0.00    +0.000 OA
ATOM      6  C   UNL     1       0.322  10.580  18.769  0.00  0.00    +0.000 A 
ATOM      7  N   UNL     1       1.151   9.815  18.080  0.00  0.00    +0.000 NA
ATOM      8  C   UNL     1       1.489   8.821  18.965  0.00  0.00    +0.000 A 
ATOM      9  C   UNL     1       2.320   7.700  18.830  0.00  0.00    +0.000 A 
ENDROOT
BRANCH   1  15
ATOM     10  C   UNL     1       2.789   2.444  18.261  0.00  0.00    +0.000 C 
ATOM     11  C   UNL     1       1.369   2.064  18.723  0.00  0.00    +0.000 C 
ATOM     12  C   UNL     1       0.621   3.277  19.284  0.00  0.00    +0.000 C 
ATOM     13  C   UNL     1       1.435   3.927  20.406  0.00  0.00    +0.000 C 
ATOM     14  N   UNL     1       2.755   4.301  19.906  0.00  0.00    +0.000 N 
ATOM     15  C   UNL     1       3.279   5.589  19.732  0.00  0.00    +0.000 C 
ATOM     16  O   UNL     1       4.456   5.776  19.429  0.00  0.00    +0.000 OA
ATOM     17  C   UNL     1       3.539   3.157  19.411  0.00  0.00    +0.000 C 
BRANCH  10  19
ATOM     18  C   UNL     1       4.044   3.725  16.659  0.00  0.00    +0.000 C 
ATOM     19  O   UNL     1       2.767   3.340  17.140  0.00  0.00    +0.000 OA
ENDBRANCH  10  19
ENDBRANCH   1  15
BRANCH   6  20
ATOM     20  C   UNL     1      -0.412  11.800  18.330  0.00  0.00    +0.000 C 
BRANCH  20  21
ATOM     21  C   UNL     1      -1.910  11.599  18.265  0.00  0.00    +0.000 A 
ATOM     22  C   UNL     1      -2.746  12.207  19.217  0.00  0.00    +0.000 A 
ATOM     23  C   UNL     1      -4.131  12.020  19.165  0.00  0.00    +0.000 A 
ATOM     24  C   UNL     1      -4.683  11.233  18.160  0.00  0.00    +0.000 A 
ATOM     25 CL   UNL     1      -6.386  10.991  18.106  0.00  0.00    +0.000 Cl
ATOM     26  C   UNL     1      -3.869  10.636  17.201  0.00  0.00    +0.000 A 
ATOM     27  C   UNL     1      -2.485  10.819  17.252  0.00  0.00    +0.000 A 
ENDBRANCH  20  21
ENDBRANCH   6  20
TORSDOF 4
ENDMDL
MODEL 2
REMARK VINA RESULT:      -7.9      3.634      8.843
REMARK  Name = 
REMARK  5 active torsions:
REMARK  status: ('A' for Active; 'I' for Inactive)
REMARK    1  A    between atoms: C_1  and  O_2
REMARK    2  A    between atoms: O_2  and  C_3
REMARK    3  A    between atoms: C_8  and  C_10
REMARK    4  A    between atoms: C_15  and  C_16
REMARK    5  A    between atoms: C_16  and  C_17
REMARK                            x       y       z     vdW  Elec       q    Type
REMARK                         _______ _______ _______ _____ _____    ______ ____
ROOT
ATOM      1  C   UNL     1       1.001   9.587  19.374  0.00  0.00    +0.000 A 
ATOM      2  C   UNL     1       0.840   8.983  20.633  0.00  0.00    +0.000 A 
ATOM      3  C   UNL     1       1.357   7.716  20.931  0.00  0.00    +0.000 A 
ATOM      4  C   UNL     1       2.141   7.151  19.941  0.00  0.00    +0.000 A 
ATOM      5  O   UNL     1       2.815   5.970  20.008  0.00  0.00    +0.000 OA
ATOM      6  C   UNL     1       3.478   5.906  18.811  0.00  0.00    +0.000 A 
ATOM      7  N   UNL     1       3.256   6.925  17.998  0.00  0.00    +0.000 NA
ATOM      8  C   UNL     1       2.401   7.730  18.711  0.00  0.00    +0.000 A 
ATOM      9  C   UNL     1       1.814   8.965  18.402  0.00  0.00    +0.000 A 
ENDROOT
BRANCH   1  15
ATOM     10  C   UNL     1      -2.793  12.270  18.769  0.00  0.00    +0.000 C 
ATOM     11  C   UNL     1      -3.562  11.162  18.025  0.00  0.00    +0.000 C 
ATOM     12  C   UNL     1      -2.786   9.841  18.034  0.00  0.00    +0.000 C 
ATOM     13  C   UNL     1      -1.382  10.050  17.459  0.00  0.00    +0.000 C 
ATOM     14  N   UNL     1      -0.684  11.082  18.221  0.00  0.00    +0.000 N 
ATOM     15  C   UNL     1       0.437  10.933  19.048  0.00  0.00    +0.000 C 
ATOM     16  O   UNL     1       1.019  11.902  19.533  0.00  0.00    +0.000 OA
ATOM     17  C   UNL     1      -1.361  12.389  18.192  0.00  0.00    +0.000 C 
BRANCH  10  19
ATOM     18  C   UNL     1      -2.166  13.063  20.951  0.00  0.00    +0.000 C 
ATOM     19  O   UNL     1      -2.671  11.992  20.171  0.00  0.00    +0.000 OA
ENDBRANCH  10  19
ENDBRANCH   1  15
BRANCH   6  20
ATOM     20  C   UNL     1       4.360   4.722  18.609  0.00  0.00    +0.000 C 
BRANCH  20  21
ATOM     21  C   UNL     1       5.171   4.797  17.334  0.00  0.00    +0.000 A 
ATOM     22  C   UNL     1       4.696   4.192  16.159  0.00  0.00    +0.000 A 
ATOM     23  C   UNL     1       5.445   4.253  14.979  0.00  0.00    +0.000 A 
ATOM     24  C   UNL     1       6.663   4.925  14.970  0.00  0.00    +0.000 A 
ATOM     25 CL   UNL     1       7.590   4.986  13.521  0.00  0.00    +0.000 Cl
ATOM     26  C   UNL     1       7.139   5.543  16.122  0.00  0.00    +0.000 A 
ATOM     27  C   UNL     1       6.395   5.481  17.304  0.00  0.00    +0.000 A 
ENDBRANCH  20  21
ENDBRANCH   6  20
TORSDOF 4
ENDMDL
MODEL 3
REMARK VINA RESULT:      -7.9      1.951      3.123
REMARK  Name = 
REMARK  5 active torsions:
REMARK  status: ('A' for Active; 'I' for Inactive)
REMARK    1  A    between atoms: C_1  and  O_2
REMARK    2  A    between atoms: O_2  and  C_3
REMARK    3  A    between atoms: C_8  and  C_10
REMARK    4  A    between atoms: C_15  and  C_16
REMARK    5  A    between atoms: C_16  and  C_17
REMARK                            x       y       z     vdW  Elec       q    Type
REMARK                         _______ _______ _______ _____ _____    ______ ____
ROOT
ATOM      1  C   UNL     1       2.750   6.455  18.996  0.00  0.00    +0.000 A 
ATOM      2  C   UNL     1       2.172   6.475  20.277  0.00  0.00    +0.000 A 
ATOM      3  C   UNL     1       1.480   7.586  20.773  0.00  0.00    +0.000 A 
ATOM      4  C   UNL     1       1.300   8.620  19.873  0.00  0.00    +0.000 A 
ATOM      5  O   UNL     1       0.603   9.771  20.080  0.00  0.00    +0.000 OA
ATOM      6  C   UNL     1       0.674  10.415  18.873  0.00  0.00    +0.000 A 
ATOM      7  N   UNL     1       1.370   9.781  17.945  0.00  0.00    +0.000 NA
ATOM      8  C   UNL     1       1.776   8.629  18.573  0.00  0.00    +0.000 A 
ATOM      9  C   UNL     1       2.530   7.539  18.117  0.00  0.00    +0.000 A 
ENDROOT
BRANCH   1  15
ATOM     10  C   UNL     1       6.842   4.645  17.607  0.00  0.00    +0.000 C 
ATOM     11  C   UNL     1       7.257   5.932  16.869  0.00  0.00    +0.000 C 
ATOM     12  C   UNL     1       6.254   7.064  17.112  0.00  0.00    +0.000 C 
ATOM     13  C   UNL     1       4.843   6.610  16.726  0.00  0.00    +0.000 C 
ATOM     14  N   UNL     1       4.486   5.412  17.479  0.00  0.00    +0.000 N 
ATOM     15  C   UNL     1       3.502   5.276  18.467  0.00  0.00    +0.000 C 
ATOM     16  O   UNL     1       3.201   4.180  18.937  0.00  0.00    +0.000 OA
ATOM     17  C   UNL     1       5.388   4.275  17.232  0.00  0.00    +0.000 C 
BRANCH  10  19
ATOM     18  C   UNL     1       7.932   5.644  19.504  0.00  0.00    +0.000 C 
ATOM     19  O   UNL     1       6.893   4.803  19.033  0.00  0.00    +0.000 OA
ENDBRANCH  10  19
ENDBRANCH   1  15
BRANCH   6  20
ATOM     20  C   UNL     1      -0.055  11.711  18.775  0.00  0.00    +0.000 C 
BRANCH  20  21
ATOM     21  C   UNL     1      -1.547  11.540  18.589  0.00  0.00    +0.000 A 
ATOM     22  C   UNL     1      -2.040  10.640  17.629  0.00  0.00    +0.000 A 
ATOM     23  C   UNL     1      -3.417  10.482  17.448  0.00  0.00    +0.000 A 
ATOM     24  C   UNL     1      -4.303  11.215  18.231  0.00  0.00    +0.000 A 
ATOM     25 CL   UNL     1      -5.999  11.031  17.998  0.00  0.00    +0.000 Cl
ATOM     26  C   UNL     1      -3.831  12.099  19.197  0.00  0.00    +0.000 A 
ATOM     27  C   UNL     1      -2.454  12.261  19.377  0.00  0.00    +0.000 A 
ENDBRANCH  20  21
ENDBRANCH   6  20
TORSDOF 4
ENDMDL
MODEL 4
REMARK VINA RESULT:      -7.8      1.054      1.738
REMARK  Name = 
REMARK  5 active torsions:
REMARK  status: ('A' for Active; 'I' for Inactive)
REMARK    1  A    between atoms: C_1  and  O_2
REMARK    2  A    between atoms: O_2  and  C_3
REMARK    3  A    between atoms: C_8  and  C_10
REMARK    4  A    between atoms: C_15  and  C_16
REMARK    5  A    between atoms: C_16  and  C_17
REMARK                            x       y       z     vdW  Elec       q    Type
REMARK                         _______ _______ _______ _____ _____    ______ ____
ROOT
ATOM      1  C   UNL     1       2.662   6.878  19.291  0.00  0.00    +0.000 A 
ATOM      2  C   UNL     1       2.814   7.492  18.036  0.00  0.00    +0.000 A 
ATOM      3  C   UNL     1       2.147   8.673  17.690  0.00  0.00    +0.000 A 
ATOM      4  C   UNL     1       1.420   9.260  18.710  0.00  0.00    +0.000 A 
ATOM      5  O   UNL     1       0.745  10.442  18.655  0.00  0.00    +0.000 OA
ATOM      6  C   UNL     1       0.261  10.598  19.928  0.00  0.00    +0.000 A 
ATOM      7  N   UNL     1       0.552   9.611  20.758  0.00  0.00    +0.000 NA
ATOM      8  C   UNL     1       1.295   8.748  19.989  0.00  0.00    +0.000 A 
ATOM      9  C   UNL     1       1.910   7.526  20.295  0.00  0.00    +0.000 A 
ENDROOT
BRANCH   1  15
ATOM     10  C   UNL     1       2.789   2.199  19.076  0.00  0.00    +0.000 C 
ATOM     11  C   UNL     1       1.269   2.064  19.285  0.00  0.00    +0.000 C 
ATOM     12  C   UNL     1       0.581   3.433  19.287  0.00  0.00    +0.000 C 
ATOM     13  C   UNL     1       1.226   4.346  20.334  0.00  0.00    +0.000 C 
ATOM     14  N   UNL     1       2.657   4.470  20.068  0.00  0.00    +0.000 N 
ATOM     15  C   UNL     1       3.363   5.609  19.659  0.00  0.00    +0.000 C 
ATOM     16  O   UNL     1       4.591   5.624  19.597  0.00  0.00    +0.000 OA
ATOM     17  C   UNL     1       3.374   3.185  20.115  0.00  0.00    +0.000 C 
BRANCH  10  19
ATOM     18  C   UNL     1       4.495   2.862  17.515  0.00  0.00    +0.000 C 
ATOM     19  O   UNL     1       3.109   2.708  17.772  0.00  0.00    +0.000 OA
ENDBRANCH  10  19
ENDBRANCH   1  15
BRANCH   6  20
ATOM     20  C   UNL     1      -0.495  11.854  20.194  0.00  0.00    +0.000 C 
BRANCH  20  21
ATOM     21  C   UNL     1      -1.902  11.827  19.639  0.00  0.00    +0.000 A 
ATOM     22  C   UNL     1      -2.189  11.090  18.478  0.00  0.00    +0.000 A 
ATOM     23  C   UNL     1      -3.486  11.066  17.956  0.00  0.00    +0.000 A 
ATOM     24  C   UNL     1      -4.499  11.772  18.598  0.00  0.00    +0.000 A 
ATOM     25 CL   UNL     1      -6.093  11.754  17.947  0.00  0.00    +0.000 Cl
ATOM     26  C   UNL     1      -4.234  12.493  19.758  0.00  0.00    +0.000 A 
ATOM     27  C   UNL     1      -2.938  12.522  20.279  0.00  0.00    +0.000 A 
ENDBRANCH  20  21
ENDBRANCH   6  20
TORSDOF 4
ENDMDL
MODEL 5
REMARK VINA RESULT:      -7.7      3.708      9.071
REMARK  Name = 
REMARK  5 active torsions:
REMARK  status: ('A' for Active; 'I' for Inactive)
REMARK    1  A    between atoms: C_1  and  O_2
REMARK    2  A    between atoms: O_2  and  C_3
REMARK    3  A    between atoms: C_8  and  C_10
REMARK    4  A    between atoms: C_15  and  C_16
REMARK    5  A    between atoms: C_16  and  C_17
REMARK                            x       y       z     vdW  Elec       q    Type
REMARK                         _______ _______ _______ _____ _____    ______ ____
ROOT
ATOM      1  C   UNL     1       1.255   8.807  19.807  0.00  0.00    +0.000 A 
ATOM      2  C   UNL     1       1.507   9.157  18.469  0.00  0.00    +0.000 A 
ATOM      3  C   UNL     1       2.392   8.437  17.658  0.00  0.00    +0.000 A 
ATOM      4  C   UNL     1       2.910   7.287  18.225  0.00  0.00    +0.000 A 
ATOM      5  O   UNL     1       3.729   6.378  17.626  0.00  0.00    +0.000 OA
ATOM      6  C   UNL     1       3.893   5.410  18.582  0.00  0.00    +0.000 A 
ATOM      7  N   UNL     1       3.273   5.647  19.725  0.00  0.00    +0.000 NA
ATOM      8  C   UNL     1       2.639   6.847  19.509  0.00  0.00    +0.000 A 
ATOM      9  C   UNL     1       1.809   7.620  20.332  0.00  0.00    +0.000 A 
ENDROOT
BRANCH   1  15
ATOM     10  C   UNL     1      -1.683  12.430  20.261  0.00  0.00    +0.000 C 
ATOM     11  C   UNL     1      -0.771  13.378  19.460  0.00  0.00    +0.000 C 
ATOM     12  C   UNL     1       0.426  12.632  18.864  0.00  0.00    +0.000 C 
ATOM     13  C   UNL     1       1.191  11.895  19.966  0.00  0.00    +0.000 C 
ATOM     14  N   UNL     1       0.292  10.983  20.668  0.00  0.00    +0.000 N 
ATOM     15  C   UNL     1       0.321   9.583  20.681  0.00  0.00    +0.000 C 
ATOM     16  O   UNL     1      -0.410   8.925  21.420  0.00  0.00    +0.000 OA
ATOM     17  C   UNL     1      -0.844  11.663  21.312  0.00  0.00    +0.000 C 
BRANCH  10  19
ATOM     18  C   UNL     1      -3.413  11.938  18.665  0.00  0.00    +0.000 C 
ATOM     19  O   UNL     1      -2.315  11.454  19.420  0.00  0.00    +0.000 OA
ENDBRANCH  10  19
ENDBRANCH   1  15
BRANCH   6  20
ATOM     20  C   UNL     1       4.719   4.233  18.191  0.00  0.00    +0.000 C 
BRANCH  20  21
ATOM     21  C   UNL     1       5.472   4.443  16.895  0.00  0.00    +0.000 A 
ATOM     22  C   UNL     1       4.870   4.116  15.668  0.00  0.00    +0.000 A 
ATOM     23  C   UNL     1       5.564   4.301  14.468  0.00  0.00    +0.000 A 
ATOM     24  C   UNL     1       6.855   4.820  14.491  0.00  0.00    +0.000 A 
ATOM     25 CL   UNL     1       7.713   5.034  13.014  0.00  0.00    +0.000 Cl
ATOM     26  C   UNL     1       7.458   5.163  15.697  0.00  0.00    +0.000 A 
ATOM     27  C   UNL     1       6.769   4.976  16.898  0.00  0.00    +0.000 A 
ENDBRANCH  20  21
ENDBRANCH   6  20
TORSDOF 4
ENDMDL
MODEL 6
REMARK VINA RESULT:      -7.7      2.886      3.544
REMARK  Name = 
REMARK  5 active torsions:
REMARK  status: ('A' for Active; 'I' for Inactive)
REMARK    1  A    between atoms: C_1  and  O_2
REMARK    2  A    between atoms: O_2  and  C_3
REMARK    3  A    between atoms: C_8  and  C_10
REMARK    4  A    between atoms: C_15  and  C_16
REMARK    5  A    between atoms: C_16  and  C_17
REMARK                            x       y       z     vdW  Elec       q    Type
REMARK                         _______ _______ _______ _____ _____    ______ ____
ROOT
ATOM      1  C   UNL     1       2.568   6.900  19.367  0.00  0.00    +0.000 A 
ATOM      2  C   UNL     1       2.542   7.534  18.114  0.00  0.00    +0.000 A 
ATOM      3  C   UNL     1       1.815   8.708  17.879  0.00  0.00    +0.000 A 
ATOM      4  C   UNL     1       1.219   9.266  18.995  0.00  0.00    +0.000 A 
ATOM      5  O   UNL     1       0.523  10.435  19.051  0.00  0.00    +0.000 OA
ATOM      6  C   UNL     1       0.209  10.564  20.379  0.00  0.00    +0.000 A 
ATOM      7  N   UNL     1       0.624   9.570  21.146  0.00  0.00    +0.000 NA
ATOM      8  C   UNL     1       1.273   8.732  20.271  0.00  0.00    +0.000 A 
ATOM      9  C   UNL     1       1.944   7.518  20.473  0.00  0.00    +0.000 A 
ENDROOT
BRANCH   1  15
ATOM     10  C   UNL     1       2.833   2.247  18.884  0.00  0.00    +0.000 C 
ATOM     11  C   UNL     1       1.335   2.046  19.183  0.00  0.00    +0.000 C 
ATOM     12  C   UNL     1       0.605   3.387  19.305  0.00  0.00    +0.000 C 
ATOM     13  C   UNL     1       1.287   4.265  20.357  0.00  0.00    +0.000 C 
ATOM     14  N   UNL     1       2.692   4.455  20.007  0.00  0.00    +0.000 N 
ATOM     15  C   UNL     1       3.332   5.639  19.618  0.00  0.00    +0.000 C 
ATOM     16  O   UNL     1       4.552   5.702  19.478  0.00  0.00    +0.000 OA
ATOM     17  C   UNL     1       3.453   3.196  19.937  0.00  0.00    +0.000 C 
BRANCH  10  19
ATOM     18  C   UNL     1       4.406   3.090  17.271  0.00  0.00    +0.000 C 
ATOM     19  O   UNL     1       3.048   2.836  17.593  0.00  0.00    +0.000 OA
ENDBRANCH  10  19
ENDBRANCH   1  15
BRANCH   6  20
ATOM     20  C   UNL     1      -0.526  11.800  20.764  0.00  0.00    +0.000 C 
BRANCH  20  21
ATOM     21  C   UNL     1       0.088  13.058  20.189  0.00  0.00    +0.000 A 
ATOM     22  C   UNL     1      -0.658  13.875  19.321  0.00  0.00    +0.000 A 
ATOM     23  C   UNL     1      -0.093  15.035  18.782  0.00  0.00    +0.000 A 
ATOM     24  C   UNL     1       1.212  15.385  19.114  0.00  0.00    +0.000 A 
ATOM     25 CL   UNL     1       1.910  16.806  18.438  0.00  0.00    +0.000 Cl
ATOM     26  C   UNL     1       1.957  14.595  19.985  0.00  0.00    +0.000 A 
ATOM     27  C   UNL     1       1.397  13.433  20.522  0.00  0.00    +0.000 A 
ENDBRANCH  20  21
ENDBRANCH   6  20
TORSDOF 4
ENDMDL
MODEL 7
REMARK VINA RESULT:      -7.6      1.709      2.902
REMARK  Name = 
REMARK  5 active torsions:
REMARK  status: ('A' for Active; 'I' for Inactive)
REMARK    1  A    between atoms: C_1  and  O_2
REMARK    2  A    between atoms: O_2  and  C_3
REMARK    3  A    between atoms: C_8  and  C_10
REMARK    4  A    between atoms: C_15  and  C_16
REMARK    5  A    between atoms: C_16  and  C_17
REMARK                            x       y       z     vdW  Elec       q    Type
REMARK                         _______ _______ _______ _____ _____    ______ ____
ROOT
ATOM      1  C   UNL     1       2.344   6.955  18.641  0.00  0.00    +0.000 A 
ATOM      2  C   UNL     1       2.098   6.996  20.024  0.00  0.00    +0.000 A 
ATOM      3  C   UNL     1       1.607   8.139  20.667  0.00  0.00    +0.000 A 
ATOM      4  C   UNL     1       1.267   9.187  19.830  0.00  0.00    +0.000 A 
ATOM      5  O   UNL     1       0.703  10.372  20.193  0.00  0.00    +0.000 OA
ATOM      6  C   UNL     1       0.510  11.019  19.000  0.00  0.00    +0.000 A 
ATOM      7  N   UNL     1       0.926  10.355  17.935  0.00  0.00    +0.000 NA
ATOM      8  C   UNL     1       1.412   9.179  18.454  0.00  0.00    +0.000 A 
ATOM      9  C   UNL     1       1.974   8.054  17.835  0.00  0.00    +0.000 A 
ENDROOT
BRANCH   1  15
ATOM     10  C   UNL     1       5.990   4.119  17.851  0.00  0.00    +0.000 C 
ATOM     11  C   UNL     1       6.987   5.290  17.751  0.00  0.00    +0.000 C 
ATOM     12  C   UNL     1       6.319   6.623  18.099  0.00  0.00    +0.000 C 
ATOM     13  C   UNL     1       5.086   6.842  17.217  0.00  0.00    +0.000 C 
ATOM     14  N   UNL     1       4.159   5.726  17.377  0.00  0.00    +0.000 N 
ATOM     15  C   UNL     1       2.882   5.741  17.953  0.00  0.00    +0.000 C 
ATOM     16  O   UNL     1       2.139   4.762  17.910  0.00  0.00    +0.000 OA
ATOM     17  C   UNL     1       4.737   4.426  16.996  0.00  0.00    +0.000 C 
BRANCH  10  19
ATOM     18  C   UNL     1       4.639   2.827  19.365  0.00  0.00    +0.000 C 
ATOM     19  O   UNL     1       5.548   3.902  19.200  0.00  0.00    +0.000 OA
ENDBRANCH  10  19
ENDBRANCH   1  15
BRANCH   6  20
ATOM     20  C   UNL     1      -0.151  12.351  19.075  0.00  0.00    +0.000 C 
BRANCH  20  21
ATOM     21  C   UNL     1      -1.662  12.262  19.105  0.00  0.00    +0.000 A 
ATOM     22  C   UNL     1      -2.351  11.614  18.067  0.00  0.00    +0.000 A 
ATOM     23  C   UNL     1      -3.747  11.534  18.086  0.00  0.00    +0.000 A 
ATOM     24  C   UNL     1      -4.455  12.093  19.145  0.00  0.00    +0.000 A 
ATOM     25 CL   UNL     1      -6.174  12.007  19.161  0.00  0.00    +0.000 Cl
ATOM     26  C   UNL     1      -3.785  12.725  20.189  0.00  0.00    +0.000 A 
ATOM     27  C   UNL     1      -2.390  12.810  20.170  0.00  0.00    +0.000 A 
ENDBRANCH  20  21
ENDBRANCH   6  20
TORSDOF 4
ENDMDL
MODEL 8
REMARK VINA RESULT:      -7.4      2.615      3.478
REMARK  Name = 
REMARK  5 active torsions:
REMARK  status: ('A' for Active; 'I' for Inactive)
REMARK    1  A    between atoms: C_1  and  O_2
REMARK    2  A    between atoms: O_2  and  C_3
REMARK    3  A    between atoms: C_8  and  C_10
REMARK    4  A    between atoms: C_15  and  C_16
REMARK    5  A    between atoms: C_16  and  C_17
REMARK                            x       y       z     vdW  Elec       q    Type
REMARK                         _______ _______ _______ _____ _____    ______ ____
ROOT
ATOM      1  C   UNL     1       2.469   6.845  19.891  0.00  0.00    +0.000 A 
ATOM      2  C   UNL     1       1.758   7.124  21.071  0.00  0.00    +0.000 A 
ATOM      3  C   UNL     1       1.003   8.292  21.236  0.00  0.00    +0.000 A 
ATOM      4  C   UNL     1       0.908   9.096  20.115  0.00  0.00    +0.000 A 
ATOM      5  O   UNL     1       0.179  10.240  19.990  0.00  0.00    +0.000 OA
ATOM      6  C   UNL     1       0.370  10.606  18.683  0.00  0.00    +0.000 A 
ATOM      7  N   UNL     1       1.170   9.809  17.995  0.00  0.00    +0.000 NA
ATOM      8  C   UNL     1       1.520   8.837  18.901  0.00  0.00    +0.000 A 
ATOM      9  C   UNL     1       2.332   7.701  18.777  0.00  0.00    +0.000 A 
ENDROOT
BRANCH   1  15
ATOM     10  C   UNL     1       2.742   2.453  18.282  0.00  0.00    +0.000 C 
ATOM     11  C   UNL     1       1.316   2.104  18.748  0.00  0.00    +0.000 C 
ATOM     12  C   UNL     1       0.589   3.336  19.295  0.00  0.00    +0.000 C 
ATOM     13  C   UNL     1       1.415   3.985  20.409  0.00  0.00    +0.000 C 
ATOM     14  N   UNL     1       2.741   4.329  19.906  0.00  0.00    +0.000 N 
ATOM     15  C   UNL     1       3.288   5.606  19.717  0.00  0.00    +0.000 C 
ATOM     16  O   UNL     1       4.468   5.768  19.412  0.00  0.00    +0.000 OA
ATOM     17  C   UNL     1       3.505   3.166  19.424  0.00  0.00    +0.000 C 
BRANCH  10  19
ATOM     18  C   UNL     1       4.020   3.706  16.676  0.00  0.00    +0.000 C 
ATOM     19  O   UNL     1       2.736   3.336  17.150  0.00  0.00    +0.000 OA
ENDBRANCH  10  19
ENDBRANCH   1  15
BRANCH   6  20
ATOM     20  C   UNL     1      -0.359  11.822  18.227  0.00  0.00    +0.000 C 
BRANCH  20  21
ATOM     21  C   UNL     1       0.419  13.099  18.454  0.00  0.00    +0.000 A 
ATOM     22  C   UNL     1       1.814  13.116  18.286  0.00  0.00    +0.000 A 
ATOM     23  C   UNL     1       2.539  14.292  18.500  0.00  0.00    +0.000 A 
ATOM     24  C   UNL     1       1.872  15.454  18.874  0.00  0.00    +0.000 A 
ATOM     25 CL   UNL     1       2.768  16.898  19.151  0.00  0.00    +0.000 Cl
ATOM     26  C   UNL     1       0.489  15.458  19.029  0.00  0.00    +0.000 A 
ATOM     27  C   UNL     1      -0.238  14.283  18.819  0.00  0.00    +0.000 A 
ENDBRANCH  20  21
ENDBRANCH   6  20
TORSDOF 4
ENDMDL
MODEL 9
REMARK VINA RESULT:      -7.4      4.064      8.979
REMARK  Name = 
REMARK  5 active torsions:
REMARK  status: ('A' for Active; 'I' for Inactive)
REMARK    1  A    between atoms: C_1  and  O_2
REMARK    2  A    between atoms: O_2  and  C_3
REMARK    3  A    between atoms: C_8  and  C_10
REMARK    4  A    between atoms: C_15  and  C_16
REMARK    5  A    between atoms: C_16  and  C_17
REMARK                            x       y       z     vdW  Elec       q    Type
REMARK                         _______ _______ _______ _____ _____    ______ ____
ROOT
ATOM      1  C   UNL     1       1.482   8.898  19.352  0.00  0.00    +0.000 A 
ATOM      2  C   UNL     1       1.391   8.168  20.550  0.00  0.00    +0.000 A 
ATOM      3  C   UNL     1       1.925   6.881  20.689  0.00  0.00    +0.000 A 
ATOM      4  C   UNL     1       2.653   6.424  19.606  0.00  0.00    +0.000 A 
ATOM      5  O   UNL     1       3.332   5.247  19.517  0.00  0.00    +0.000 OA
ATOM      6  C   UNL     1       3.928   5.308  18.284  0.00  0.00    +0.000 A 
ATOM      7  N   UNL     1       3.661   6.403  17.592  0.00  0.00    +0.000 NA
ATOM      8  C   UNL     1       2.846   7.126  18.429  0.00  0.00    +0.000 A 
ATOM      9  C   UNL     1       2.242   8.382  18.280  0.00  0.00    +0.000 A 
ENDROOT
BRANCH   1  15
ATOM     10  C   UNL     1      -0.064  12.820  21.396  0.00  0.00    +0.000 C 
ATOM     11  C   UNL     1      -0.775  12.052  22.526  0.00  0.00    +0.000 C 
ATOM     12  C   UNL     1      -0.474  10.552  22.457  0.00  0.00    +0.000 C 
ATOM     13  C   UNL     1      -0.836  10.004  21.074  0.00  0.00    +0.000 C 
ATOM     14  N   UNL     1      -0.109  10.740  20.044  0.00  0.00    +0.000 N 
ATOM     15  C   UNL     1       0.900  10.266  19.195  0.00  0.00    +0.000 C 
ATOM     16  O   UNL     1       1.346  10.948  18.273  0.00  0.00    +0.000 OA
ATOM     17  C   UNL     1      -0.412  12.181  20.030  0.00  0.00    +0.000 C 
BRANCH  10  19
ATOM     18  C   UNL     1       2.067  13.710  20.725  0.00  0.00    +0.000 C 
ATOM     19  O   UNL     1       1.364  12.785  21.537  0.00  0.00    +0.000 OA
ENDBRANCH  10  19
ENDBRANCH   1  15
BRANCH   6  20
ATOM     20  C   UNL     1       4.798   4.156  17.917  0.00  0.00    +0.000 C 
BRANCH  20  21
ATOM     21  C   UNL     1       5.550   4.372  16.621  0.00  0.00    +0.000 A 
ATOM     22  C   UNL     1       4.932   4.092  15.391  0.00  0.00    +0.000 A 
ATOM     23  C   UNL     1       5.625   4.283  14.191  0.00  0.00    +0.000 A 
ATOM     24  C   UNL     1       6.931   4.761  14.218  0.00  0.00    +0.000 A 
ATOM     25 CL   UNL     1       7.787   4.982  12.741  0.00  0.00    +0.000 Cl
ATOM     26  C   UNL     1       7.551   5.058  15.428  0.00  0.00    +0.000 A 
ATOM     27  C   UNL     1       6.863   4.865  16.629  0.00  0.00    +0.000 A 
ENDBRANCH  20  21
ENDBRANCH   6  20
TORSDOF 4
ENDMDL
