MODEL 1
REMARK VINA RESULT:      -7.1      0.000      0.000
REMARK  Name = 
REMARK  7 active torsions:
REMARK  status: ('A' for Active; 'I' for Inactive)
REMARK    1  A    between atoms: C_1  and  C_2
REMARK    2  A    between atoms: C_2  and  C_3
REMARK    3  A    between atoms: C_3  and  C_4
REMARK    4  A    between atoms: C_9  and  C_10
REMARK    5  A    between atoms: C_16  and  C_17
REMARK    6  A    between atoms: N_21  and  C_22
REMARK    7  A    between atoms: C_22  and  C_23
REMARK                            x       y       z     vdW  Elec       q    Type
REMARK                         _______ _______ _______ _____ _____    ______ ____
ROOT
ATOM      1  C   UNL     1       4.482   4.265  17.704  0.00  0.00    +0.000 C 
ATOM      2  O   UNL     1       4.287   3.578  16.698  0.00  0.00    +0.000 OA
ATOM      3  N   UNL     1       3.506   4.391  18.720  0.00  0.00    +0.000 N 
ATOM      4  C   UNL     1       2.314   3.532  18.617  0.00  0.00    +0.000 C 
ATOM      5  C   UNL     1       1.044   4.199  19.143  0.00  0.00    +0.000 C 
ATOM      6  C   UNL     1       1.247   4.819  20.528  0.00  0.00    +0.000 C 
ATOM      7  C   UNL     1       2.444   5.801  20.531  0.00  0.00    +0.000 C 
ATOM      8  C   UNL     1       3.669   5.023  20.040  0.00  0.00    +0.000 C 
ENDROOT
BRANCH   1  14
ATOM      9  C   UNL     1       6.354   5.706  16.732  0.00  0.00    +0.000 A 
ATOM     10  N   UNL     1       7.486   6.452  16.932  0.00  0.00    +0.000 NA
ATOM     11  C   UNL     1       8.087   6.361  18.129  0.00  0.00    +0.000 A 
ATOM     12  N   UNL     1       7.674   5.599  19.144  0.00  0.00    +0.000 NA
ATOM     13  C   UNL     1       6.541   4.899  18.918  0.00  0.00    +0.000 A 
ATOM     14  C   UNL     1       5.775   4.977  17.771  0.00  0.00    +0.000 A 
BRANCH   9  15
ATOM     15  C   UNL     1       5.893   5.728  15.288  0.00  0.00    +0.000 C 
BRANCH  15  17
ATOM     16  C   UNL     1       5.991   3.831  13.571  0.00  0.00    +0.000 C 
ATOM     17  C   UNL     1       6.782   4.797  14.441  0.00  0.00    +0.000 C 
ENDBRANCH  15  17
ENDBRANCH   9  15
ENDBRANCH   1  14
BRANCH   7  18
ATOM     18  C   UNL     1       2.081   7.085  19.803  0.00  0.00    +0.000 A 
ATOM     19  N   UNL     1       2.359   7.230  18.513  0.00  0.00    +0.000 NA
ATOM     20  C   UNL     1       1.889   8.446  18.126  0.00  0.00    +0.000 A 
ATOM     21  C   UNL     1       1.295   9.076  19.181  0.00  0.00    +0.000 A 
ATOM     22  N   UNL     1       1.368   8.193  20.234  0.00  0.00    +0.000 N 
BRANCH  22  23
ATOM     23  C   UNL     1       0.729   8.505  21.495  0.00  0.00    +0.000 C 
ATOM     24  C   UNL     1      -0.182   9.712  21.425  0.00  0.00    +0.000 C 
ENDBRANCH  22  23
ENDBRANCH   7  18
TORSDOF 5
ENDMDL
MODEL 2
REMARK VINA RESULT:      -6.9      1.774      6.733
REMARK  Name = 
REMARK  7 active torsions:
REMARK  status: ('A' for Active; 'I' for Inactive)
REMARK    1  A    between atoms: C_1  and  C_2
REMARK    2  A    between atoms: C_2  and  C_3
REMARK    3  A    between atoms: C_3  and  C_4
REMARK    4  A    between atoms: C_9  and  C_10
REMARK    5  A    between atoms: C_16  and  C_17
REMARK    6  A    between atoms: N_21  and  C_22
REMARK    7  A    between atoms: C_22  and  C_23
REMARK                            x       y       z     vdW  Elec       q    Type
REMARK                         _______ _______ _______ _____ _____    ______ ____
ROOT
ATOM      1  C   UNL     1       2.366   5.714  20.049  0.00  0.00    +0.000 C 
ATOM      2  O   UNL     1       2.315   5.663  21.281  0.00  0.00    +0.000 OA
ATOM      3  N   UNL     1       2.650   4.569  19.268  0.00  0.00    +0.000 N 
ATOM      4  C   UNL     1       2.713   3.276  19.970  0.00  0.00    +0.000 C 
ATOM      5  C   UNL     1       3.742   2.316  19.371  0.00  0.00    +0.000 C 
ATOM      6  C   UNL     1       3.604   2.195  17.851  0.00  0.00    +0.000 C 
ATOM      7  C   UNL     1       3.664   3.584  17.171  0.00  0.00    +0.000 C 
ATOM      8  C   UNL     1       2.567   4.446  17.803  0.00  0.00    +0.000 C 
ENDROOT
BRANCH   1  14
ATOM      9  C   UNL     1       1.471   8.107  20.033  0.00  0.00    +0.000 A 
ATOM     10  N   UNL     1       1.443   9.346  19.450  0.00  0.00    +0.000 NA
ATOM     11  C   UNL     1       1.986   9.470  18.228  0.00  0.00    +0.000 A 
ATOM     12  N   UNL     1       2.549   8.482  17.530  0.00  0.00    +0.000 NA
ATOM     13  C   UNL     1       2.581   7.282  18.149  0.00  0.00    +0.000 A 
ATOM     14  C   UNL     1       2.148   7.041  19.438  0.00  0.00    +0.000 A 
BRANCH   9  15
ATOM     15  C   UNL     1       0.648   8.045  21.305  0.00  0.00    +0.000 C 
BRANCH  15  17
ATOM     16  C   UNL     1      -0.175   9.705  23.073  0.00  0.00    +0.000 C 
ATOM     17  C   UNL     1       0.022   9.425  21.590  0.00  0.00    +0.000 C 
ENDBRANCH  15  17
ENDBRANCH   9  15
ENDBRANCH   1  14
BRANCH   7  18
ATOM     18  C   UNL     1       5.087   4.123  17.187  0.00  0.00    +0.000 A 
ATOM     19  N   UNL     1       5.661   4.474  18.331  0.00  0.00    +0.000 NA
ATOM     20  C   UNL     1       6.929   4.876  18.048  0.00  0.00    +0.000 A 
ATOM     21  C   UNL     1       7.165   4.766  16.708  0.00  0.00    +0.000 A 
ATOM     22  N   UNL     1       6.017   4.239  16.166  0.00  0.00    +0.000 N 
BRANCH  22  23
ATOM     23  C   UNL     1       5.964   3.890  14.762  0.00  0.00    +0.000 C 
ATOM     24  C   UNL     1       6.940   4.674  13.910  0.00  0.00    +0.000 C 
ENDBRANCH  22  23
ENDBRANCH   7  18
TORSDOF 5
ENDMDL
MODEL 3
REMARK VINA RESULT:      -6.9      3.024      6.128
REMARK  Name = 
REMARK  7 active torsions:
REMARK  status: ('A' for Active; 'I' for Inactive)
REMARK    1  A    between atoms: C_1  and  C_2
REMARK    2  A    between atoms: C_2  and  C_3
REMARK    3  A    between atoms: C_3  and  C_4
REMARK    4  A    between atoms: C_9  and  C_10
REMARK    5  A    between atoms: C_16  and  C_17
REMARK    6  A    between atoms: N_21  and  C_22
REMARK    7  A    between atoms: C_22  and  C_23
REMARK                            x       y       z     vdW  Elec       q    Type
REMARK                         _______ _______ _______ _____ _____    ______ ____
ROOT
ATOM      1  C   UNL     1       3.615   2.631  17.971  0.00  0.00    +0.000 C 
ATOM      2  O   UNL     1       3.782   1.501  17.503  0.00  0.00    +0.000 OA
ATOM      3  N   UNL     1       4.011   3.793  17.270  0.00  0.00    +0.000 N 
ATOM      4  C   UNL     1       4.473   3.616  15.883  0.00  0.00    +0.000 C 
ATOM      5  C   UNL     1       5.574   4.599  15.485  0.00  0.00    +0.000 C 
ATOM      6  C   UNL     1       5.216   6.044  15.843  0.00  0.00    +0.000 C 
ATOM      7  C   UNL     1       4.855   6.176  17.343  0.00  0.00    +0.000 C 
ATOM      8  C   UNL     1       3.715   5.192  17.623  0.00  0.00    +0.000 C 
ENDROOT
BRANCH   1  14
ATOM      9  C   UNL     1       3.661   2.390  20.515  0.00  0.00    +0.000 A 
ATOM     10  N   UNL     1       3.066   2.621  21.727  0.00  0.00    +0.000 NA
ATOM     11  C   UNL     1       1.790   3.042  21.723  0.00  0.00    +0.000 A 
ATOM     12  N   UNL     1       1.051   3.252  20.632  0.00  0.00    +0.000 NA
ATOM     13  C   UNL     1       1.680   3.038  19.456  0.00  0.00    +0.000 A 
ATOM     14  C   UNL     1       3.012   2.699  19.319  0.00  0.00    +0.000 A 
BRANCH   9  15
ATOM     15  C   UNL     1       5.014   1.721  20.651  0.00  0.00    +0.000 C 
BRANCH  15  17
ATOM     16  C   UNL     1       6.272  -0.020  22.046  0.00  0.00    +0.000 C 
ATOM     17  C   UNL     1       5.063   0.901  21.956  0.00  0.00    +0.000 C 
ENDBRANCH  15  17
ENDBRANCH   9  15
ENDBRANCH   1  14
BRANCH   7  18
ATOM     18  C   UNL     1       6.106   6.075  18.202  0.00  0.00    +0.000 A 
ATOM     19  N   UNL     1       6.262   5.065  19.048  0.00  0.00    +0.000 NA
ATOM     20  C   UNL     1       7.476   5.212  19.643  0.00  0.00    +0.000 A 
ATOM     21  C   UNL     1       8.103   6.324  19.159  0.00  0.00    +0.000 A 
ATOM     22  N   UNL     1       7.259   6.845  18.205  0.00  0.00    +0.000 N 
BRANCH  22  23
ATOM     23  C   UNL     1       7.669   7.981  17.408  0.00  0.00    +0.000 C 
ATOM     24  C   UNL     1       8.386   9.049  18.207  0.00  0.00    +0.000 C 
ENDBRANCH  22  23
ENDBRANCH   7  18
TORSDOF 5
ENDMDL
MODEL 4
REMARK VINA RESULT:      -6.5      1.756      6.213
REMARK  Name = 
REMARK  7 active torsions:
REMARK  status: ('A' for Active; 'I' for Inactive)
REMARK    1  A    between atoms: C_1  and  C_2
REMARK    2  A    between atoms: C_2  and  C_3
REMARK    3  A    between atoms: C_3  and  C_4
REMARK    4  A    between atoms: C_9  and  C_10
REMARK    5  A    between atoms: C_16  and  C_17
REMARK    6  A    between atoms: N_21  and  C_22
REMARK    7  A    between atoms: C_22  and  C_23
REMARK                            x       y       z     vdW  Elec       q    Type
REMARK                         _______ _______ _______ _____ _____    ______ ____
ROOT
ATOM      1  C   UNL     1       3.248   4.268  18.050  0.00  0.00    +0.000 C 
ATOM      2  O   UNL     1       3.007   3.066  18.186  0.00  0.00    +0.000 OA
ATOM      3  N   UNL     1       4.172   4.738  17.088  0.00  0.00    +0.000 N 
ATOM      4  C   UNL     1       4.711   3.752  16.136  0.00  0.00    +0.000 C 
ATOM      5  C   UNL     1       6.158   4.034  15.733  0.00  0.00    +0.000 C 
ATOM      6  C   UNL     1       6.368   5.489  15.308  0.00  0.00    +0.000 C 
ATOM      7  C   UNL     1       5.886   6.468  16.407  0.00  0.00    +0.000 C 
ATOM      8  C   UNL     1       4.420   6.137  16.698  0.00  0.00    +0.000 C 
ENDROOT
BRANCH   1  14
ATOM      9  C   UNL     1       1.592   4.810  19.918  0.00  0.00    +0.000 A 
ATOM     10  N   UNL     1       1.097   5.711  20.824  0.00  0.00    +0.000 NA
ATOM     11  C   UNL     1       1.468   6.995  20.690  0.00  0.00    +0.000 A 
ATOM     12  N   UNL     1       2.278   7.468  19.742  0.00  0.00    +0.000 NA
ATOM     13  C   UNL     1       2.766   6.546  18.884  0.00  0.00    +0.000 A 
ATOM     14  C   UNL     1       2.543   5.186  18.969  0.00  0.00    +0.000 A 
BRANCH   9  15
ATOM     15  C   UNL     1       0.940   3.447  20.041  0.00  0.00    +0.000 C 
BRANCH  15  17
ATOM     16  C   UNL     1       2.788   2.527  21.557  0.00  0.00    +0.000 C 
ATOM     17  C   UNL     1       1.301   2.815  21.400  0.00  0.00    +0.000 C 
ENDBRANCH  15  17
ENDBRANCH   9  15
ENDBRANCH   1  14
BRANCH   7  18
ATOM     18  C   UNL     1       6.858   6.473  17.577  0.00  0.00    +0.000 A 
ATOM     19  N   UNL     1       7.033   5.382  18.312  0.00  0.00    +0.000 NA
ATOM     20  C   UNL     1       7.977   5.664  19.249  0.00  0.00    +0.000 A 
ATOM     21  C   UNL     1       8.416   6.948  19.098  0.00  0.00    +0.000 A 
ATOM     22  N   UNL     1       7.746   7.447  18.005  0.00  0.00    +0.000 N 
BRANCH  22  23
ATOM     23  C   UNL     1       8.058   8.766  17.496  0.00  0.00    +0.000 C 
ATOM     24  C   UNL     1       8.711   9.668  18.523  0.00  0.00    +0.000 C 
ENDBRANCH  22  23
ENDBRANCH   7  18
TORSDOF 5
ENDMDL
MODEL 5
REMARK VINA RESULT:      -6.4      1.899      6.719
REMARK  Name = 
REMARK  7 active torsions:
REMARK  status: ('A' for Active; 'I' for Inactive)
REMARK    1  A    between atoms: C_1  and  C_2
REMARK    2  A    between atoms: C_2  and  C_3
REMARK    3  A    between atoms: C_3  and  C_4
REMARK    4  A    between atoms: C_9  and  C_10
REMARK    5  A    between atoms: C_16  and  C_17
REMARK    6  A    between atoms: N_21  and  C_22
REMARK    7  A    between atoms: C_22  and  C_23
REMARK                            x       y       z     vdW  Elec       q    Type
REMARK                         _______ _______ _______ _____ _____    ______ ____
ROOT
ATOM      1  C   UNL     1       1.909   6.872  20.135  0.00  0.00    +0.000 C 
ATOM      2  O   UNL     1       1.731   6.943  21.354  0.00  0.00    +0.000 OA
ATOM      3  N   UNL     1       2.248   5.654  19.502  0.00  0.00    +0.000 N 
ATOM      4  C   UNL     1       2.213   4.435  20.327  0.00  0.00    +0.000 C 
ATOM      5  C   UNL     1       3.278   3.411  19.934  0.00  0.00    +0.000 C 
ATOM      6  C   UNL     1       3.294   3.143  18.427  0.00  0.00    +0.000 C 
ATOM      7  C   UNL     1       3.451   4.458  17.626  0.00  0.00    +0.000 C 
ATOM      8  C   UNL     1       2.313   5.389  18.054  0.00  0.00    +0.000 C 
ENDROOT
BRANCH   1  14
ATOM      9  C   UNL     1       0.953   9.205  19.723  0.00  0.00    +0.000 A 
ATOM     10  N   UNL     1       1.008  10.393  19.043  0.00  0.00    +0.000 NA
ATOM     11  C   UNL     1       1.799  10.454  17.960  0.00  0.00    +0.000 A 
ATOM     12  N   UNL     1       2.537   9.447  17.487  0.00  0.00    +0.000 NA
ATOM     13  C   UNL     1       2.477   8.301  18.199  0.00  0.00    +0.000 A 
ATOM     14  C   UNL     1       1.781   8.136  19.380  0.00  0.00    +0.000 A 
BRANCH   9  15
ATOM     15  C   UNL     1      -0.126   9.196  20.788  0.00  0.00    +0.000 C 
BRANCH  15  17
ATOM     16  C   UNL     1      -0.058   9.548  23.324  0.00  0.00    +0.000 C 
ATOM     17  C   UNL     1       0.283  10.118  21.954  0.00  0.00    +0.000 C 
ENDBRANCH  15  17
ENDBRANCH   9  15
ENDBRANCH   1  14
BRANCH   7  18
ATOM     18  C   UNL     1       4.875   4.982  17.738  0.00  0.00    +0.000 A 
ATOM     19  N   UNL     1       5.484   5.030  18.916  0.00  0.00    +0.000 NA
ATOM     20  C   UNL     1       6.745   5.497  18.708  0.00  0.00    +0.000 A 
ATOM     21  C   UNL     1       6.941   5.736  17.379  0.00  0.00    +0.000 A 
ATOM     22  N   UNL     1       5.775   5.360  16.753  0.00  0.00    +0.000 N 
BRANCH  22  23
ATOM     23  C   UNL     1       5.679   5.383  15.309  0.00  0.00    +0.000 C 
ATOM     24  C   UNL     1       6.887   4.789  14.617  0.00  0.00    +0.000 C 
ENDBRANCH  22  23
ENDBRANCH   7  18
TORSDOF 5
ENDMDL
MODEL 6
REMARK VINA RESULT:      -6.3      2.260      6.216
REMARK  Name = 
REMARK  7 active torsions:
REMARK  status: ('A' for Active; 'I' for Inactive)
REMARK    1  A    between atoms: C_1  and  C_2
REMARK    2  A    between atoms: C_2  and  C_3
REMARK    3  A    between atoms: C_3  and  C_4
REMARK    4  A    between atoms: C_9  and  C_10
REMARK    5  A    between atoms: C_16  and  C_17
REMARK    6  A    between atoms: N_21  and  C_22
REMARK    7  A    between atoms: C_22  and  C_23
REMARK                            x       y       z     vdW  Elec       q    Type
REMARK                         _______ _______ _______ _____ _____    ______ ____
ROOT
ATOM      1  C   UNL     1       2.698   7.886  18.073  0.00  0.00    +0.000 C 
ATOM      2  O   UNL     1       2.431   8.549  17.067  0.00  0.00    +0.000 OA
ATOM      3  N   UNL     1       3.704   6.893  18.064  0.00  0.00    +0.000 N 
ATOM      4  C   UNL     1       4.543   6.796  16.857  0.00  0.00    +0.000 C 
ATOM      5  C   UNL     1       4.973   5.365  16.536  0.00  0.00    +0.000 C 
ATOM      6  C   UNL     1       5.554   4.648  17.757  0.00  0.00    +0.000 C 
ATOM      7  C   UNL     1       4.569   4.688  18.951  0.00  0.00    +0.000 C 
ATOM      8  C   UNL     1       4.244   6.160  19.222  0.00  0.00    +0.000 C 
ENDROOT
BRANCH   1  14
ATOM      9  C   UNL     1       1.089   9.292  19.473  0.00  0.00    +0.000 A 
ATOM     10  N   UNL     1       0.258   9.395  20.557  0.00  0.00    +0.000 NA
ATOM     11  C   UNL     1       0.324   8.427  21.486  0.00  0.00    +0.000 A 
ATOM     12  N   UNL     1       1.139   7.370  21.441  0.00  0.00    +0.000 NA
ATOM     13  C   UNL     1       1.923   7.290  20.344  0.00  0.00    +0.000 A 
ATOM     14  C   UNL     1       1.884   8.163  19.275  0.00  0.00    +0.000 A 
BRANCH   9  15
ATOM     15  C   UNL     1       1.075  10.540  18.612  0.00  0.00    +0.000 C 
BRANCH  15  17
ATOM     16  C   UNL     1      -1.243  10.171  17.587  0.00  0.00    +0.000 C 
ATOM     17  C   UNL     1      -0.369  11.057  18.464  0.00  0.00    +0.000 C 
ENDBRANCH  15  17
ENDBRANCH   9  15
ENDBRANCH   1  14
BRANCH   7  18
ATOM     18  C   UNL     1       3.406   3.737  18.712  0.00  0.00    +0.000 A 
ATOM     19  N   UNL     1       3.360   2.991  17.616  0.00  0.00    +0.000 NA
ATOM     20  C   UNL     1       2.242   2.220  17.689  0.00  0.00    +0.000 A 
ATOM     21  C   UNL     1       1.577   2.473  18.853  0.00  0.00    +0.000 A 
ATOM     22  N   UNL     1       2.339   3.397  19.529  0.00  0.00    +0.000 N 
BRANCH  22  23
ATOM     23  C   UNL     1       1.973   3.810  20.867  0.00  0.00    +0.000 C 
ATOM     24  C   UNL     1       1.602   2.654  21.773  0.00  0.00    +0.000 C 
ENDBRANCH  22  23
ENDBRANCH   7  18
TORSDOF 5
ENDMDL
MODEL 7
REMARK VINA RESULT:      -6.3      9.581     13.551
REMARK  Name = 
REMARK  7 active torsions:
REMARK  status: ('A' for Active; 'I' for Inactive)
REMARK    1  A    between atoms: C_1  and  C_2
REMARK    2  A    between atoms: C_2  and  C_3
REMARK    3  A    between atoms: C_3  and  C_4
REMARK    4  A    between atoms: C_9  and  C_10
REMARK    5  A    between atoms: C_16  and  C_17
REMARK    6  A    between atoms: N_21  and  C_22
REMARK    7  A    between atoms: C_22  and  C_23
REMARK                            x       y       z     vdW  Elec       q    Type
REMARK                         _______ _______ _______ _____ _____    ______ ____
ROOT
ATOM      1  C   UNL     1      -7.265  12.565  22.853  0.00  0.00    +0.000 C 
ATOM      2  O   UNL     1      -7.491  11.767  23.766  0.00  0.00    +0.000 OA
ATOM      3  N   UNL     1      -7.299  12.172  21.495  0.00  0.00    +0.000 N 
ATOM      4  C   UNL     1      -7.783  10.814  21.200  0.00  0.00    +0.000 C 
ATOM      5  C   UNL     1      -7.086  10.173  20.000  0.00  0.00    +0.000 C 
ATOM      6  C   UNL     1      -7.057  11.102  18.784  0.00  0.00    +0.000 C 
ATOM      7  C   UNL     1      -6.427  12.471  19.140  0.00  0.00    +0.000 C 
ATOM      8  C   UNL     1      -7.227  13.047  20.312  0.00  0.00    +0.000 C 
ENDROOT
BRANCH   1  14
ATOM      9  C   UNL     1      -5.657  14.387  23.642  0.00  0.00    +0.000 A 
ATOM     10  N   UNL     1      -5.405  15.715  23.863  0.00  0.00    +0.000 NA
ATOM     11  C   UNL     1      -6.446  16.562  23.817  0.00  0.00    +0.000 A 
ATOM     12  N   UNL     1      -7.712  16.215  23.575  0.00  0.00    +0.000 NA
ATOM     13  C   UNL     1      -7.916  14.901  23.336  0.00  0.00    +0.000 A 
ATOM     14  C   UNL     1      -6.924  13.945  23.259  0.00  0.00    +0.000 A 
BRANCH   9  15
ATOM     15  C   UNL     1      -4.452  13.513  23.930  0.00  0.00    +0.000 C 
BRANCH  15  17
ATOM     16  C   UNL     1      -1.987  14.202  23.972  0.00  0.00    +0.000 C 
ATOM     17  C   UNL     1      -3.355  14.345  24.622  0.00  0.00    +0.000 C 
ENDBRANCH  15  17
ENDBRANCH   9  15
ENDBRANCH   1  14
BRANCH   7  18
ATOM     18  C   UNL     1      -4.921  12.335  19.307  0.00  0.00    +0.000 A 
ATOM     19  N   UNL     1      -4.335  12.688  20.444  0.00  0.00    +0.000 NA
ATOM     20  C   UNL     1      -3.007  12.423  20.322  0.00  0.00    +0.000 A 
ATOM     21  C   UNL     1      -2.750  11.883  19.095  0.00  0.00    +0.000 A 
ATOM     22  N   UNL     1      -3.970  11.777  18.468  0.00  0.00    +0.000 N 
BRANCH  22  23
ATOM     23  C   UNL     1      -4.074  11.136  17.174  0.00  0.00    +0.000 C 
ATOM     24  C   UNL     1      -3.009  10.086  16.936  0.00  0.00    +0.000 C 
ENDBRANCH  22  23
ENDBRANCH   7  18
TORSDOF 5
ENDMDL
MODEL 8
REMARK VINA RESULT:      -6.2      2.175      6.176
REMARK  Name = 
REMARK  7 active torsions:
REMARK  status: ('A' for Active; 'I' for Inactive)
REMARK    1  A    between atoms: C_1  and  C_2
REMARK    2  A    between atoms: C_2  and  C_3
REMARK    3  A    between atoms: C_3  and  C_4
REMARK    4  A    between atoms: C_9  and  C_10
REMARK    5  A    between atoms: C_16  and  C_17
REMARK    6  A    between atoms: N_21  and  C_22
REMARK    7  A    between atoms: C_22  and  C_23
REMARK                            x       y       z     vdW  Elec       q    Type
REMARK                         _______ _______ _______ _____ _____    ______ ____
ROOT
ATOM      1  C   UNL     1       3.025   7.593  17.831  0.00  0.00    +0.000 C 
ATOM      2  O   UNL     1       2.751   8.186  16.784  0.00  0.00    +0.000 OA
ATOM      3  N   UNL     1       4.043   6.613  17.887  0.00  0.00    +0.000 N 
ATOM      4  C   UNL     1       4.883   6.447  16.690  0.00  0.00    +0.000 C 
ATOM      5  C   UNL     1       5.330   5.002  16.464  0.00  0.00    +0.000 C 
ATOM      6  C   UNL     1       5.919   4.374  17.730  0.00  0.00    +0.000 C 
ATOM      7  C   UNL     1       4.933   4.482  18.919  0.00  0.00    +0.000 C 
ATOM      8  C   UNL     1       4.591   5.965  19.092  0.00  0.00    +0.000 C 
ENDROOT
BRANCH   1  14
ATOM      9  C   UNL     1       1.537   9.148  19.208  0.00  0.00    +0.000 A 
ATOM     10  N   UNL     1       0.687   9.325  20.267  0.00  0.00    +0.000 NA
ATOM     11  C   UNL     1       0.615   8.341  21.178  0.00  0.00    +0.000 A 
ATOM     12  N   UNL     1       1.308   7.201  21.139  0.00  0.00    +0.000 NA
ATOM     13  C   UNL     1       2.115   7.052  20.066  0.00  0.00    +0.000 A 
ATOM     14  C   UNL     1       2.208   7.940  19.013  0.00  0.00    +0.000 A 
BRANCH   9  15
ATOM     15  C   UNL     1       1.689  10.402  18.371  0.00  0.00    +0.000 C 
BRANCH  15  17
ATOM     16  C   UNL     1       2.062  12.868  18.953  0.00  0.00    +0.000 C 
ATOM     17  C   UNL     1       1.208  11.628  19.172  0.00  0.00    +0.000 C 
ENDBRANCH  15  17
ENDBRANCH   9  15
ENDBRANCH   1  14
BRANCH   7  18
ATOM     18  C   UNL     1       3.780   3.504  18.743  0.00  0.00    +0.000 A 
ATOM     19  N   UNL     1       3.645   2.818  17.616  0.00  0.00    +0.000 NA
ATOM     20  C   UNL     1       2.564   2.005  17.757  0.00  0.00    +0.000 A 
ATOM     21  C   UNL     1       2.015   2.169  18.995  0.00  0.00    +0.000 A 
ATOM     22  N   UNL     1       2.815   3.081  19.643  0.00  0.00    +0.000 N 
BRANCH  22  23
ATOM     23  C   UNL     1       2.575   3.407  21.033  0.00  0.00    +0.000 C 
ATOM     24  C   UNL     1       1.333   2.752  21.599  0.00  0.00    +0.000 C 
ENDBRANCH  22  23
ENDBRANCH   7  18
TORSDOF 5
ENDMDL
MODEL 9
REMARK VINA RESULT:      -6.2      0.829      1.798
REMARK  Name = 
REMARK  7 active torsions:
REMARK  status: ('A' for Active; 'I' for Inactive)
REMARK    1  A    between atoms: C_1  and  C_2
REMARK    2  A    between atoms: C_2  and  C_3
REMARK    3  A    between atoms: C_3  and  C_4
REMARK    4  A    between atoms: C_9  and  C_10
REMARK    5  A    between atoms: C_16  and  C_17
REMARK    6  A    between atoms: N_21  and  C_22
REMARK    7  A    between atoms: C_22  and  C_23
REMARK                            x       y       z     vdW  Elec       q    Type
REMARK                         _______ _______ _______ _____ _____    ______ ____
ROOT
ATOM      1  C   UNL     1       4.227   4.125  17.703  0.00  0.00    +0.000 C 
ATOM      2  O   UNL     1       3.998   3.690  16.572  0.00  0.00    +0.000 OA
ATOM      3  N   UNL     1       3.287   4.003  18.752  0.00  0.00    +0.000 N 
ATOM      4  C   UNL     1       2.092   3.183  18.492  0.00  0.00    +0.000 C 
ATOM      5  C   UNL     1       0.841   3.700  19.202  0.00  0.00    +0.000 C 
ATOM      6  C   UNL     1       1.092   3.981  20.686  0.00  0.00    +0.000 C 
ATOM      7  C   UNL     1       2.290   4.943  20.878  0.00  0.00    +0.000 C 
ATOM      8  C   UNL     1       3.496   4.311  20.178  0.00  0.00    +0.000 C 
ENDROOT
BRANCH   1  14
ATOM      9  C   UNL     1       6.229   5.496  16.901  0.00  0.00    +0.000 A 
ATOM     10  N   UNL     1       7.350   6.223  17.202  0.00  0.00    +0.000 NA
ATOM     11  C   UNL     1       7.816   6.155  18.460  0.00  0.00    +0.000 A 
ATOM     12  N   UNL     1       7.276   5.434  19.444  0.00  0.00    +0.000 NA
ATOM     13  C   UNL     1       6.157   4.752  19.116  0.00  0.00    +0.000 A 
ATOM     14  C   UNL     1       5.523   4.811  17.891  0.00  0.00    +0.000 A 
BRANCH   9  15
ATOM     15  C   UNL     1       5.928   5.482  15.415  0.00  0.00    +0.000 C 
BRANCH  15  17
ATOM     16  C   UNL     1       6.115   3.855  13.447  0.00  0.00    +0.000 C 
ATOM     17  C   UNL     1       6.756   4.382  14.724  0.00  0.00    +0.000 C 
ENDBRANCH  15  17
ENDBRANCH   9  15
ENDBRANCH   1  14
BRANCH   7  18
ATOM     18  C   UNL     1       1.902   6.360  20.482  0.00  0.00    +0.000 A 
ATOM     19  N   UNL     1       1.323   7.170  21.359  0.00  0.00    +0.000 NA
ATOM     20  C   UNL     1       1.130   8.368  20.747  0.00  0.00    +0.000 A 
ATOM     21  C   UNL     1       1.604   8.321  19.468  0.00  0.00    +0.000 A 
ATOM     22  N   UNL     1       2.143   7.065  19.313  0.00  0.00    +0.000 N 
BRANCH  22  23
ATOM     23  C   UNL     1       2.837   6.712  18.093  0.00  0.00    +0.000 C 
ATOM     24  C   UNL     1       3.449   7.902  17.383  0.00  0.00    +0.000 C 
ENDBRANCH  22  23
ENDBRANCH   7  18
TORSDOF 5
ENDMDL
