MODEL 1
REMARK VINA RESULT:      -8.2      0.000      0.000
REMARK  Name = 
REMARK  3 active torsions:
REMARK  status: ('A' for Active; 'I' for Inactive)
REMARK    1  A    between atoms: S_2  and  C_5
REMARK    2  A    between atoms: C_11  and  S_12
REMARK    3  A    between atoms: C_17  and  S_18
REMARK                            x       y       z     vdW  Elec       q    Type
REMARK                         _______ _______ _______ _____ _____    ______ ____
ROOT
ATOM      1  C   UNL     1       0.950   9.802  19.836  0.00  0.00    +0.000 A 
ATOM      2  C   UNL     1       0.325   9.185  20.929  0.00  0.00    +0.000 A 
ATOM      3  C   UNL     1       0.596   7.852  21.242  0.00  0.00    +0.000 A 
ATOM      4  C   UNL     1       1.497   7.172  20.414  0.00  0.00    +0.000 A 
ATOM      5  N   UNL     1       1.972   5.885  20.493  0.00  0.00    +0.000 N 
ATOM      6  C   UNL     1       2.835   5.619  19.456  0.00  0.00    +0.000 A 
ATOM      7  C   UNL     1       3.535   4.432  19.169  0.00  0.00    +0.000 A 
ATOM      8  C   UNL     1       4.363   4.409  18.038  0.00  0.00    +0.000 A 
ATOM      9  C   UNL     1       4.451   5.555  17.240  0.00  0.00    +0.000 A 
ATOM     10  C   UNL     1       3.739   6.733  17.541  0.00  0.00    +0.000 A 
ATOM     11  C   UNL     1       2.913   6.761  18.674  0.00  0.00    +0.000 A 
ATOM     12  C   UNL     1       2.074   7.746  19.279  0.00  0.00    +0.000 A 
ATOM     13  C   UNL     1       1.785   9.091  18.968  0.00  0.00    +0.000 A 
ATOM     14  H   UNL     1       1.759   5.168  21.188  0.00  0.00    +0.000 HD
ENDROOT
BRANCH   1  16
ATOM     15  O   UNL     1      -0.328  11.915  19.627  0.00  0.00    +0.000 OA
ATOM     16  S   UNL     1       1.075  11.592  19.881  0.00  0.00    +0.000 S 
ATOM     17  O   UNL     1       1.984  11.994  18.813  0.00  0.00    +0.000 OA
ATOM     18  O   UNL     1       1.481  11.963  21.233  0.00  0.00    +0.000 OA
ENDBRANCH   1  16
BRANCH   7  19
ATOM     19  S   UNL     1       3.391   2.967  20.237  0.00  0.00    +0.000 S 
ATOM     20  O   UNL     1       4.748   2.456  20.286  0.00  0.00    +0.000 OA
ATOM     21  O   UNL     1       2.836   3.523  21.467  0.00  0.00    +0.000 OA
ATOM     22  O   UNL     1       2.446   2.129  19.480  0.00  0.00    +0.000 OA
ENDBRANCH   7  19
BRANCH   9  23
ATOM     23  S   UNL     1       5.554   5.623  15.800  0.00  0.00    +0.000 S 
ATOM     24  O   UNL     1       5.255   4.397  15.071  0.00  0.00    +0.000 OA
ATOM     25  O   UNL     1       5.152   6.876  15.171  0.00  0.00    +0.000 OA
ATOM     26  O   UNL     1       6.878   5.651  16.434  0.00  0.00    +0.000 OA
ENDBRANCH   9  23
TORSDOF 3
ENDMDL
MODEL 2
REMARK VINA RESULT:      -8.2      0.025      1.211
REMARK  Name = 
REMARK  3 active torsions:
REMARK  status: ('A' for Active; 'I' for Inactive)
REMARK    1  A    between atoms: S_2  and  C_5
REMARK    2  A    between atoms: C_11  and  S_12
REMARK    3  A    between atoms: C_17  and  S_18
REMARK                            x       y       z     vdW  Elec       q    Type
REMARK                         _______ _______ _______ _____ _____    ______ ____
ROOT
ATOM      1  C   UNL     1       0.958   9.812  19.830  0.00  0.00    +0.000 A 
ATOM      2  C   UNL     1       0.324   9.193  20.916  0.00  0.00    +0.000 A 
ATOM      3  C   UNL     1       0.588   7.857  21.225  0.00  0.00    +0.000 A 
ATOM      4  C   UNL     1       1.493   7.179  20.401  0.00  0.00    +0.000 A 
ATOM      5  N   UNL     1       1.964   5.890  20.478  0.00  0.00    +0.000 N 
ATOM      6  C   UNL     1       2.833   5.625  19.446  0.00  0.00    +0.000 A 
ATOM      7  C   UNL     1       3.531   4.437  19.158  0.00  0.00    +0.000 A 
ATOM      8  C   UNL     1       4.367   4.416  18.033  0.00  0.00    +0.000 A 
ATOM      9  C   UNL     1       4.463   5.565  17.240  0.00  0.00    +0.000 A 
ATOM     10  C   UNL     1       3.753   6.743  17.541  0.00  0.00    +0.000 A 
ATOM     11  C   UNL     1       2.919   6.770  18.668  0.00  0.00    +0.000 A 
ATOM     12  C   UNL     1       2.079   7.755  19.272  0.00  0.00    +0.000 A 
ATOM     13  C   UNL     1       1.797   9.102  18.965  0.00  0.00    +0.000 A 
ATOM     14  H   UNL     1       1.743   5.171  21.169  0.00  0.00    +0.000 HD
ENDROOT
BRANCH   1  16
ATOM     15  O   UNL     1      -0.313  11.930  19.624  0.00  0.00    +0.000 OA
ATOM     16  S   UNL     1       1.088  11.602  19.882  0.00  0.00    +0.000 S 
ATOM     17  O   UNL     1       2.003  12.005  18.820  0.00  0.00    +0.000 OA
ATOM     18  O   UNL     1       1.489  11.966  21.238  0.00  0.00    +0.000 OA
ENDBRANCH   1  16
BRANCH   7  19
ATOM     19  S   UNL     1       3.374   2.968  20.220  0.00  0.00    +0.000 S 
ATOM     20  O   UNL     1       2.868   3.512  21.467  0.00  0.00    +0.000 OA
ATOM     21  O   UNL     1       2.481   2.110  19.448  0.00  0.00    +0.000 OA
ATOM     22  O   UNL     1       4.764   2.486  20.280  0.00  0.00    +0.000 OA
ENDBRANCH   7  19
BRANCH   9  23
ATOM     23  S   UNL     1       5.577   5.635  15.808  0.00  0.00    +0.000 S 
ATOM     24  O   UNL     1       6.907   5.674  16.400  0.00  0.00    +0.000 OA
ATOM     25  O   UNL     1       5.216   4.419  15.087  0.00  0.00    +0.000 OA
ATOM     26  O   UNL     1       5.156   6.882  15.159  0.00  0.00    +0.000 OA
ENDBRANCH   9  23
TORSDOF 3
ENDMDL
MODEL 3
REMARK VINA RESULT:      -8.1      0.080      1.205
REMARK  Name = 
REMARK  3 active torsions:
REMARK  status: ('A' for Active; 'I' for Inactive)
REMARK    1  A    between atoms: S_2  and  C_5
REMARK    2  A    between atoms: C_11  and  S_12
REMARK    3  A    between atoms: C_17  and  S_18
REMARK                            x       y       z     vdW  Elec       q    Type
REMARK                         _______ _______ _______ _____ _____    ______ ____
ROOT
ATOM      1  C   UNL     1       0.924   9.837  19.825  0.00  0.00    +0.000 A 
ATOM      2  C   UNL     1       0.296   9.221  20.917  0.00  0.00    +0.000 A 
ATOM      3  C   UNL     1       0.565   7.888  21.231  0.00  0.00    +0.000 A 
ATOM      4  C   UNL     1       1.467   7.208  20.406  0.00  0.00    +0.000 A 
ATOM      5  N   UNL     1       1.941   5.920  20.487  0.00  0.00    +0.000 N 
ATOM      6  C   UNL     1       2.807   5.652  19.452  0.00  0.00    +0.000 A 
ATOM      7  C   UNL     1       3.506   4.464  19.167  0.00  0.00    +0.000 A 
ATOM      8  C   UNL     1       4.337   4.441  18.038  0.00  0.00    +0.000 A 
ATOM      9  C   UNL     1       4.428   5.586  17.240  0.00  0.00    +0.000 A 
ATOM     10  C   UNL     1       3.716   6.764  17.538  0.00  0.00    +0.000 A 
ATOM     11  C   UNL     1       2.887   6.794  18.669  0.00  0.00    +0.000 A 
ATOM     12  C   UNL     1       2.047   7.780  19.272  0.00  0.00    +0.000 A 
ATOM     13  C   UNL     1       1.761   9.125  18.960  0.00  0.00    +0.000 A 
ATOM     14  H   UNL     1       1.726   5.204  21.182  0.00  0.00    +0.000 HD
ENDROOT
BRANCH   1  16
ATOM     15  O   UNL     1       1.996  11.807  18.770  0.00  0.00    +0.000 OA
ATOM     16  S   UNL     1       1.050  11.627  19.869  0.00  0.00    +0.000 S 
ATOM     17  O   UNL     1       1.577  11.996  21.179  0.00  0.00    +0.000 OA
ATOM     18  O   UNL     1      -0.269  12.161  19.543  0.00  0.00    +0.000 OA
ENDBRANCH   1  16
BRANCH   7  19
ATOM     19  S   UNL     1       3.358   3.000  20.236  0.00  0.00    +0.000 S 
ATOM     20  O   UNL     1       2.853   3.548  21.481  0.00  0.00    +0.000 OA
ATOM     21  O   UNL     1       2.466   2.135  19.471  0.00  0.00    +0.000 OA
ATOM     22  O   UNL     1       4.749   2.524  20.294  0.00  0.00    +0.000 OA
ENDBRANCH   7  19
BRANCH   9  23
ATOM     23  S   UNL     1       5.534   5.652  15.803  0.00  0.00    +0.000 S 
ATOM     24  O   UNL     1       5.232   4.429  15.071  0.00  0.00    +0.000 OA
ATOM     25  O   UNL     1       5.138   6.907  15.175  0.00  0.00    +0.000 OA
ATOM     26  O   UNL     1       6.856   5.674  16.440  0.00  0.00    +0.000 OA
ENDBRANCH   9  23
TORSDOF 3
ENDMDL
MODEL 4
REMARK VINA RESULT:      -8.1      0.147      1.491
REMARK  Name = 
REMARK  3 active torsions:
REMARK  status: ('A' for Active; 'I' for Inactive)
REMARK    1  A    between atoms: S_2  and  C_5
REMARK    2  A    between atoms: C_11  and  S_12
REMARK    3  A    between atoms: C_17  and  S_18
REMARK                            x       y       z     vdW  Elec       q    Type
REMARK                         _______ _______ _______ _____ _____    ______ ____
ROOT
ATOM      1  C   UNL     1       0.918   9.817  19.840  0.00  0.00    +0.000 A 
ATOM      2  C   UNL     1       0.303   9.167  20.920  0.00  0.00    +0.000 A 
ATOM      3  C   UNL     1       0.594   7.831  21.204  0.00  0.00    +0.000 A 
ATOM      4  C   UNL     1       1.505   7.184  20.361  0.00  0.00    +0.000 A 
ATOM      5  N   UNL     1       2.000   5.902  20.412  0.00  0.00    +0.000 N 
ATOM      6  C   UNL     1       2.866   5.672  19.369  0.00  0.00    +0.000 A 
ATOM      7  C   UNL     1       3.583   4.502  19.056  0.00  0.00    +0.000 A 
ATOM      8  C   UNL     1       4.411   4.516  17.925  0.00  0.00    +0.000 A 
ATOM      9  C   UNL     1       4.481   5.680  17.152  0.00  0.00    +0.000 A 
ATOM     10  C   UNL     1       3.751   6.840  17.478  0.00  0.00    +0.000 A 
ATOM     11  C   UNL     1       2.926   6.832  18.612  0.00  0.00    +0.000 A 
ATOM     12  C   UNL     1       2.072   7.790  19.239  0.00  0.00    +0.000 A 
ATOM     13  C   UNL     1       1.763   9.137  18.957  0.00  0.00    +0.000 A 
ATOM     14  H   UNL     1       1.797   5.168  21.092  0.00  0.00    +0.000 HD
ENDROOT
BRANCH   1  16
ATOM     15  O   UNL     1       1.925  11.829  18.801  0.00  0.00    +0.000 OA
ATOM     16  S   UNL     1       1.015  11.607  19.924  0.00  0.00    +0.000 S 
ATOM     17  O   UNL     1       1.576  11.954  21.226  0.00  0.00    +0.000 OA
ATOM     18  O   UNL     1      -0.322  12.125  19.650  0.00  0.00    +0.000 OA
ENDBRANCH   1  16
BRANCH   7  19
ATOM     19  S   UNL     1       3.461   3.012  20.093  0.00  0.00    +0.000 S 
ATOM     20  O   UNL     1       2.490   2.196  19.389  0.00  0.00    +0.000 OA
ATOM     21  O   UNL     1       4.840   2.535  20.130  0.00  0.00    +0.000 OA
ATOM     22  O   UNL     1       2.986   3.568  21.370  0.00  0.00    +0.000 OA
ENDBRANCH   7  19
BRANCH   9  23
ATOM     23  S   UNL     1       5.582   5.796  15.714  0.00  0.00    +0.000 S 
ATOM     24  O   UNL     1       6.909   5.940  16.299  0.00  0.00    +0.000 OA
ATOM     25  O   UNL     1       5.305   4.543  15.020  0.00  0.00    +0.000 OA
ATOM     26  O   UNL     1       5.075   6.996  15.040  0.00  0.00    +0.000 OA
ENDBRANCH   9  23
TORSDOF 3
ENDMDL
MODEL 5
REMARK VINA RESULT:      -7.7      0.801      1.205
REMARK  Name = 
REMARK  3 active torsions:
REMARK  status: ('A' for Active; 'I' for Inactive)
REMARK    1  A    between atoms: S_2  and  C_5
REMARK    2  A    between atoms: C_11  and  S_12
REMARK    3  A    between atoms: C_17  and  S_18
REMARK                            x       y       z     vdW  Elec       q    Type
REMARK                         _______ _______ _______ _____ _____    ______ ____
ROOT
ATOM      1  C   UNL     1       1.198  10.536  19.181  0.00  0.00    +0.000 A 
ATOM      2  C   UNL     1       0.453  10.113  20.290  0.00  0.00    +0.000 A 
ATOM      3  C   UNL     1       0.555   8.800  20.755  0.00  0.00    +0.000 A 
ATOM      4  C   UNL     1       1.414   7.943  20.059  0.00  0.00    +0.000 A 
ATOM      5  N   UNL     1       1.737   6.628  20.301  0.00  0.00    +0.000 N 
ATOM      6  C   UNL     1       2.616   6.159  19.353  0.00  0.00    +0.000 A 
ATOM      7  C   UNL     1       3.191   4.880  19.234  0.00  0.00    +0.000 A 
ATOM      8  C   UNL     1       4.068   4.645  18.166  0.00  0.00    +0.000 A 
ATOM      9  C   UNL     1       4.325   5.681  17.261  0.00  0.00    +0.000 A 
ATOM     10  C   UNL     1       3.736   6.954  17.393  0.00  0.00    +0.000 A 
ATOM     11  C   UNL     1       2.862   7.194  18.463  0.00  0.00    +0.000 A 
ATOM     12  C   UNL     1       2.109   8.323  18.910  0.00  0.00    +0.000 A 
ATOM     13  C   UNL     1       1.991   9.649  18.445  0.00  0.00    +0.000 A 
ATOM     14  H   UNL     1       1.408   6.019  21.051  0.00  0.00    +0.000 HD
ENDROOT
BRANCH   1  16
ATOM     15  O   UNL     1       2.617  12.246  18.083  0.00  0.00    +0.000 OA
ATOM     16  S   UNL     1       1.522  12.297  19.048  0.00  0.00    +0.000 S 
ATOM     17  O   UNL     1       1.912  12.770  20.372  0.00  0.00    +0.000 OA
ATOM     18  O   UNL     1       0.326  12.913  18.480  0.00  0.00    +0.000 OA
ENDBRANCH   1  16
BRANCH   7  19
ATOM     19  S   UNL     1       2.828   3.564  20.437  0.00  0.00    +0.000 S 
ATOM     20  O   UNL     1       4.027   2.748  20.408  0.00  0.00    +0.000 OA
ATOM     21  O   UNL     1       2.554   4.316  21.658  0.00  0.00    +0.000 OA
ATOM     22  O   UNL     1       1.638   2.931  19.845  0.00  0.00    +0.000 OA
ENDBRANCH   7  19
BRANCH   9  23
ATOM     23  S   UNL     1       5.501   5.472  15.894  0.00  0.00    +0.000 S 
ATOM     24  O   UNL     1       5.114   4.204  15.290  0.00  0.00    +0.000 OA
ATOM     25  O   UNL     1       5.261   6.675  15.104  0.00  0.00    +0.000 OA
ATOM     26  O   UNL     1       6.786   5.448  16.602  0.00  0.00    +0.000 OA
ENDBRANCH   9  23
TORSDOF 3
ENDMDL
MODEL 6
REMARK VINA RESULT:      -7.7      1.553      4.245
REMARK  Name = 
REMARK  3 active torsions:
REMARK  status: ('A' for Active; 'I' for Inactive)
REMARK    1  A    between atoms: S_2  and  C_5
REMARK    2  A    between atoms: C_11  and  S_12
REMARK    3  A    between atoms: C_17  and  S_18
REMARK                            x       y       z     vdW  Elec       q    Type
REMARK                         _______ _______ _______ _____ _____    ______ ____
ROOT
ATOM      1  C   UNL     1       1.165   9.256  19.797  0.00  0.00    +0.000 A 
ATOM      2  C   UNL     1       1.627  10.100  18.777  0.00  0.00    +0.000 A 
ATOM      3  C   UNL     1       2.525   9.629  17.818  0.00  0.00    +0.000 A 
ATOM      4  C   UNL     1       2.942   8.298  17.934  0.00  0.00    +0.000 A 
ATOM      5  N   UNL     1       3.781   7.562  17.132  0.00  0.00    +0.000 N 
ATOM      6  C   UNL     1       3.934   6.288  17.625  0.00  0.00    +0.000 A 
ATOM      7  C   UNL     1       4.701   5.225  17.112  0.00  0.00    +0.000 A 
ATOM      8  C   UNL     1       4.694   4.008  17.807  0.00  0.00    +0.000 A 
ATOM      9  C   UNL     1       3.941   3.903  18.982  0.00  0.00    +0.000 A 
ATOM     10  C   UNL     1       3.184   4.979  19.484  0.00  0.00    +0.000 A 
ATOM     11  C   UNL     1       3.184   6.197  18.788  0.00  0.00    +0.000 A 
ATOM     12  C   UNL     1       2.551   7.464  18.982  0.00  0.00    +0.000 A 
ATOM     13  C   UNL     1       1.651   7.954  19.951  0.00  0.00    +0.000 A 
ATOM     14  H   UNL     1       4.263   7.850  16.279  0.00  0.00    +0.000 HD
ENDROOT
BRANCH   1  16
ATOM     15  O   UNL     1       0.017  10.901  21.252  0.00  0.00    +0.000 OA
ATOM     16  S   UNL     1      -0.404   9.688  20.555  0.00  0.00    +0.000 S 
ATOM     17  O   UNL     1      -0.780   8.589  21.438  0.00  0.00    +0.000 OA
ATOM     18  O   UNL     1      -1.340   9.980  19.473  0.00  0.00    +0.000 OA
ENDBRANCH   1  16
BRANCH   7  19
ATOM     19  S   UNL     1       5.663   5.408  15.579  0.00  0.00    +0.000 S 
ATOM     20  O   UNL     1       5.217   6.686  15.058  0.00  0.00    +0.000 OA
ATOM     21  O   UNL     1       7.040   5.319  16.055  0.00  0.00    +0.000 OA
ATOM     22  O   UNL     1       5.222   4.239  14.801  0.00  0.00    +0.000 OA
ENDBRANCH   7  19
BRANCH   9  23
ATOM     23  S   UNL     1       3.830   2.340  19.898  0.00  0.00    +0.000 S 
ATOM     24  O   UNL     1       5.192   2.108  20.363  0.00  0.00    +0.000 OA
ATOM     25  O   UNL     1       2.835   2.657  20.916  0.00  0.00    +0.000 OA
ATOM     26  O   UNL     1       3.371   1.412  18.858  0.00  0.00    +0.000 OA
ENDBRANCH   9  23
TORSDOF 3
ENDMDL
MODEL 7
REMARK VINA RESULT:      -7.7      1.610      4.209
REMARK  Name = 
REMARK  3 active torsions:
REMARK  status: ('A' for Active; 'I' for Inactive)
REMARK    1  A    between atoms: S_2  and  C_5
REMARK    2  A    between atoms: C_11  and  S_12
REMARK    3  A    between atoms: C_17  and  S_18
REMARK                            x       y       z     vdW  Elec       q    Type
REMARK                         _______ _______ _______ _____ _____    ______ ____
ROOT
ATOM      1  C   UNL     1       1.193   9.177  19.847  0.00  0.00    +0.000 A 
ATOM      2  C   UNL     1       1.637  10.042  18.836  0.00  0.00    +0.000 A 
ATOM      3  C   UNL     1       2.518   9.591  17.853  0.00  0.00    +0.000 A 
ATOM      4  C   UNL     1       2.938   8.258  17.934  0.00  0.00    +0.000 A 
ATOM      5  N   UNL     1       3.764   7.539  17.103  0.00  0.00    +0.000 N 
ATOM      6  C   UNL     1       3.926   6.255  17.568  0.00  0.00    +0.000 A 
ATOM      7  C   UNL     1       4.685   5.204  17.020  0.00  0.00    +0.000 A 
ATOM      8  C   UNL     1       4.691   3.973  17.690  0.00  0.00    +0.000 A 
ATOM      9  C   UNL     1       3.959   3.843  18.875  0.00  0.00    +0.000 A 
ATOM     10  C   UNL     1       3.209   4.909  19.412  0.00  0.00    +0.000 A 
ATOM     11  C   UNL     1       3.196   6.141  18.741  0.00  0.00    +0.000 A 
ATOM     12  C   UNL     1       2.566   7.402  18.972  0.00  0.00    +0.000 A 
ATOM     13  C   UNL     1       1.683   7.872  19.966  0.00  0.00    +0.000 A 
ATOM     14  H   UNL     1       4.231   7.845  16.248  0.00  0.00    +0.000 HD
ENDROOT
BRANCH   1  16
ATOM     15  O   UNL     1      -1.176   9.778  19.441  0.00  0.00    +0.000 OA
ATOM     16  S   UNL     1      -0.363   9.591  20.641  0.00  0.00    +0.000 S 
ATOM     17  O   UNL     1      -0.147  10.809  21.414  0.00  0.00    +0.000 OA
ATOM     18  O   UNL     1      -0.783   8.420  21.404  0.00  0.00    +0.000 OA
ENDBRANCH   1  16
BRANCH   7  19
ATOM     19  S   UNL     1       5.621   5.419  15.474  0.00  0.00    +0.000 S 
ATOM     20  O   UNL     1       5.199   4.287  14.671  0.00  0.00    +0.000 OA
ATOM     21  O   UNL     1       5.208   6.748  15.034  0.00  0.00    +0.000 OA
ATOM     22  O   UNL     1       7.012   5.351  15.950  0.00  0.00    +0.000 OA
ENDBRANCH   7  19
BRANCH   9  23
ATOM     23  S   UNL     1       3.865   2.262  19.761  0.00  0.00    +0.000 S 
ATOM     24  O   UNL     1       3.577   1.290  18.714  0.00  0.00    +0.000 OA
ATOM     25  O   UNL     1       5.182   2.186  20.382  0.00  0.00    +0.000 OA
ATOM     26  O   UNL     1       2.758   2.504  20.695  0.00  0.00    +0.000 OA
ENDBRANCH   9  23
TORSDOF 3
ENDMDL
MODEL 8
REMARK VINA RESULT:      -7.6      0.925      1.303
REMARK  Name = 
REMARK  3 active torsions:
REMARK  status: ('A' for Active; 'I' for Inactive)
REMARK    1  A    between atoms: S_2  and  C_5
REMARK    2  A    between atoms: C_11  and  S_12
REMARK    3  A    between atoms: C_17  and  S_18
REMARK                            x       y       z     vdW  Elec       q    Type
REMARK                         _______ _______ _______ _____ _____    ______ ____
ROOT
ATOM      1  C   UNL     1       1.251  10.697  19.069  0.00  0.00    +0.000 A 
ATOM      2  C   UNL     1       0.459  10.292  20.153  0.00  0.00    +0.000 A 
ATOM      3  C   UNL     1       0.513   8.977  20.620  0.00  0.00    +0.000 A 
ATOM      4  C   UNL     1       1.373   8.098  19.952  0.00  0.00    +0.000 A 
ATOM      5  N   UNL     1       1.654   6.776  20.202  0.00  0.00    +0.000 N 
ATOM      6  C   UNL     1       2.552   6.285  19.283  0.00  0.00    +0.000 A 
ATOM      7  C   UNL     1       3.098   4.992  19.182  0.00  0.00    +0.000 A 
ATOM      8  C   UNL     1       4.004   4.736  18.143  0.00  0.00    +0.000 A 
ATOM      9  C   UNL     1       4.316   5.765  17.247  0.00  0.00    +0.000 A 
ATOM     10  C   UNL     1       3.755   7.052  17.362  0.00  0.00    +0.000 A 
ATOM     11  C   UNL     1       2.853   7.314  18.403  0.00  0.00    +0.000 A 
ATOM     12  C   UNL     1       2.114   8.462  18.826  0.00  0.00    +0.000 A 
ATOM     13  C   UNL     1       2.045   9.790  18.358  0.00  0.00    +0.000 A 
ATOM     14  H   UNL     1       1.287   6.175  20.941  0.00  0.00    +0.000 HD
ENDROOT
BRANCH   1  16
ATOM     15  O   UNL     1       0.327  12.913  18.457  0.00  0.00    +0.000 OA
ATOM     16  S   UNL     1       1.622  12.449  18.949  0.00  0.00    +0.000 S 
ATOM     17  O   UNL     1       2.714  12.599  17.993  0.00  0.00    +0.000 OA
ATOM     18  O   UNL     1       1.893  12.926  20.302  0.00  0.00    +0.000 OA
ENDBRANCH   1  16
BRANCH   7  19
ATOM     19  S   UNL     1       2.663   3.686  20.371  0.00  0.00    +0.000 S 
ATOM     20  O   UNL     1       3.802   2.789  20.310  0.00  0.00    +0.000 OA
ATOM     21  O   UNL     1       2.461   4.435  21.607  0.00  0.00    +0.000 OA
ATOM     22  O   UNL     1       1.424   3.145  19.789  0.00  0.00    +0.000 OA
ENDBRANCH   7  19
BRANCH   9  23
ATOM     23  S   UNL     1       5.530   5.527  15.919  0.00  0.00    +0.000 S 
ATOM     24  O   UNL     1       5.332   6.681  15.052  0.00  0.00    +0.000 OA
ATOM     25  O   UNL     1       6.784   5.473  16.663  0.00  0.00    +0.000 OA
ATOM     26  O   UNL     1       5.102   4.247  15.344  0.00  0.00    +0.000 OA
ENDBRANCH   9  23
TORSDOF 3
ENDMDL
MODEL 9
REMARK VINA RESULT:      -7.6      0.962      1.786
REMARK  Name = 
REMARK  3 active torsions:
REMARK  status: ('A' for Active; 'I' for Inactive)
REMARK    1  A    between atoms: S_2  and  C_5
REMARK    2  A    between atoms: C_11  and  S_12
REMARK    3  A    between atoms: C_17  and  S_18
REMARK                            x       y       z     vdW  Elec       q    Type
REMARK                         _______ _______ _______ _____ _____    ______ ____
ROOT
ATOM      1  C   UNL     1       1.246  10.724  18.987  0.00  0.00    +0.000 A 
ATOM      2  C   UNL     1       0.448  10.326  20.069  0.00  0.00    +0.000 A 
ATOM      3  C   UNL     1       0.500   9.015  20.545  0.00  0.00    +0.000 A 
ATOM      4  C   UNL     1       1.366   8.133  19.890  0.00  0.00    +0.000 A 
ATOM      5  N   UNL     1       1.647   6.813  20.151  0.00  0.00    +0.000 N 
ATOM      6  C   UNL     1       2.551   6.316  19.242  0.00  0.00    +0.000 A 
ATOM      7  C   UNL     1       3.100   5.023  19.154  0.00  0.00    +0.000 A 
ATOM      8  C   UNL     1       4.013   4.761  18.123  0.00  0.00    +0.000 A 
ATOM      9  C   UNL     1       4.330   5.783  17.222  0.00  0.00    +0.000 A 
ATOM     10  C   UNL     1       3.766   7.071  17.324  0.00  0.00    +0.000 A 
ATOM     11  C   UNL     1       2.857   7.339  18.357  0.00  0.00    +0.000 A 
ATOM     12  C   UNL     1       2.114   8.489  18.766  0.00  0.00    +0.000 A 
ATOM     13  C   UNL     1       2.046   9.814  18.288  0.00  0.00    +0.000 A 
ATOM     14  H   UNL     1       1.275   6.217  20.892  0.00  0.00    +0.000 HD
ENDROOT
BRANCH   1  16
ATOM     15  O   UNL     1       1.912  12.742  20.263  0.00  0.00    +0.000 OA
ATOM     16  S   UNL     1       1.616  12.476  18.857  0.00  0.00    +0.000 S 
ATOM     17  O   UNL     1       0.415  13.141  18.362  0.00  0.00    +0.000 OA
ATOM     18  O   UNL     1       2.804  12.605  18.018  0.00  0.00    +0.000 OA
ENDBRANCH   1  16
BRANCH   7  19
ATOM     19  S   UNL     1       2.658   3.725  20.350  0.00  0.00    +0.000 S 
ATOM     20  O   UNL     1       1.445   3.158  19.791  0.00  0.00    +0.000 OA
ATOM     21  O   UNL     1       3.851   2.884  20.362  0.00  0.00    +0.000 OA
ATOM     22  O   UNL     1       2.461   4.503  21.584  0.00  0.00    +0.000 OA
ENDBRANCH   7  19
BRANCH   9  23
ATOM     23  S   UNL     1       5.553   5.537  15.904  0.00  0.00    +0.000 S 
ATOM     24  O   UNL     1       5.307   6.642  14.987  0.00  0.00    +0.000 OA
ATOM     25  O   UNL     1       6.808   5.570  16.648  0.00  0.00    +0.000 OA
ATOM     26  O   UNL     1       5.179   4.216  15.388  0.00  0.00    +0.000 OA
ENDBRANCH   9  23
TORSDOF 3
ENDMDL
