MODEL 1
REMARK VINA RESULT:      -7.0      0.000      0.000
REMARK  Name = 
REMARK  5 active torsions:
REMARK  status: ('A' for Active; 'I' for Inactive)
REMARK    1  A    between atoms: C_1  and  C_2
REMARK    2  A    between atoms: C_2  and  C_3
REMARK    3  A    between atoms: C_2  and  N_15
REMARK    4  A    between atoms: N_6  and  C_7
REMARK    5  A    between atoms: C_7  and  C_8
REMARK                            x       y       z     vdW  Elec       q    Type
REMARK                         _______ _______ _______ _____ _____    ______ ____
ROOT
ATOM      1  C   UNL     1       3.387   5.536  18.772  0.00  0.00    +0.000 C 
ATOM      2  C   UNL     1       3.658   6.417  17.534  0.00  0.00    +0.000 C 
ATOM      3  C   UNL     1       4.946   6.069  16.780  0.00  0.00    +0.000 C 
ATOM      4  N   UNL     1       6.120   6.001  17.668  0.00  0.00    +0.000 NA
ATOM      5  C   UNL     1       5.881   5.031  18.750  0.00  0.00    +0.000 C 
ATOM      6  C   UNL     1       4.689   5.482  19.593  0.00  0.00    +0.000 C 
ENDROOT
BRANCH   1   8
ATOM      7  C   UNL     1       2.539   3.868  16.989  0.00  0.00    +0.000 C 
ATOM      8  C   UNL     1       2.815   4.101  18.483  0.00  0.00    +0.000 C 
BRANCH   8   9
ATOM      9  N   UNL     1       1.639   3.833  19.346  0.00  0.00    +0.000 NA
ATOM     10  C   UNL     1       1.529   4.651  20.555  0.00  0.00    +0.000 C 
ATOM     11  C   UNL     1       2.039   3.778  21.686  0.00  0.00    +0.000 C 
ATOM     12  C   UNL     1       1.620   2.381  21.275  0.00  0.00    +0.000 C 
ATOM     13  C   UNL     1       1.437   2.439  19.763  0.00  0.00    +0.000 C 
ENDBRANCH   8   9
ENDBRANCH   1   8
BRANCH   4  14
ATOM     14  C   UNL     1       7.321   5.656  16.869  0.00  0.00    +0.000 C 
BRANCH  14  15
ATOM     15  C   UNL     1       6.982   4.890  15.631  0.00  0.00    +0.000 A 
ATOM     16  C   UNL     1       6.247   3.731  15.479  0.00  0.00    +0.000 A 
ATOM     17  N   UNL     1       6.191   3.510  14.130  0.00  0.00    +0.000 N 
ATOM     18  C   UNL     1       6.889   4.509  13.516  0.00  0.00    +0.000 A 
ATOM     19  N   UNL     1       7.389   5.352  14.390  0.00  0.00    +0.000 NA
ATOM     20  H   UNL     1       5.702   2.756  13.663  0.00  0.00    +0.000 HD
ENDBRANCH  14  15
ENDBRANCH   4  14
TORSDOF 4
ENDMDL
MODEL 2
REMARK VINA RESULT:      -6.9      1.726      3.029
REMARK  Name = 
REMARK  5 active torsions:
REMARK  status: ('A' for Active; 'I' for Inactive)
REMARK    1  A    between atoms: C_1  and  C_2
REMARK    2  A    between atoms: C_2  and  C_3
REMARK    3  A    between atoms: C_2  and  N_15
REMARK    4  A    between atoms: N_6  and  C_7
REMARK    5  A    between atoms: C_7  and  C_8
REMARK                            x       y       z     vdW  Elec       q    Type
REMARK                         _______ _______ _______ _____ _____    ______ ____
ROOT
ATOM      1  C   UNL     1       3.048   3.813  18.094  0.00  0.00    +0.000 C 
ATOM      2  C   UNL     1       3.441   3.773  16.602  0.00  0.00    +0.000 C 
ATOM      3  C   UNL     1       4.924   4.048  16.332  0.00  0.00    +0.000 C 
ATOM      4  N   UNL     1       5.400   5.279  16.988  0.00  0.00    +0.000 NA
ATOM      5  C   UNL     1       5.147   5.210  18.436  0.00  0.00    +0.000 C 
ATOM      6  C   UNL     1       3.645   5.101  18.693  0.00  0.00    +0.000 C 
ENDROOT
BRANCH   1   8
ATOM      7  C   UNL     1       3.820   1.347  18.060  0.00  0.00    +0.000 C 
ATOM      8  C   UNL     1       3.424   2.543  18.940  0.00  0.00    +0.000 C 
BRANCH   8   9
ATOM      9  N   UNL     1       2.344   2.229  19.906  0.00  0.00    +0.000 NA
ATOM     10  C   UNL     1       1.030   2.805  19.610  0.00  0.00    +0.000 C 
ATOM     11  C   UNL     1       0.909   4.025  20.503  0.00  0.00    +0.000 C 
ATOM     12  C   UNL     1       1.667   3.629  21.754  0.00  0.00    +0.000 C 
ATOM     13  C   UNL     1       2.622   2.523  21.318  0.00  0.00    +0.000 C 
ENDBRANCH   8   9
ENDBRANCH   1   8
BRANCH   4  14
ATOM     14  C   UNL     1       6.840   5.472  16.684  0.00  0.00    +0.000 C 
BRANCH  14  15
ATOM     15  C   UNL     1       7.449   6.576  17.487  0.00  0.00    +0.000 A 
ATOM     16  C   UNL     1       8.084   6.535  18.712  0.00  0.00    +0.000 A 
ATOM     17  N   UNL     1       8.507   7.816  18.945  0.00  0.00    +0.000 N 
ATOM     18  C   UNL     1       8.113   8.583  17.887  0.00  0.00    +0.000 A 
ATOM     19  N   UNL     1       7.462   7.871  16.994  0.00  0.00    +0.000 NA
ATOM     20  H   UNL     1       9.037   8.139  19.745  0.00  0.00    +0.000 HD
ENDBRANCH  14  15
ENDBRANCH   4  14
TORSDOF 4
ENDMDL
MODEL 3
REMARK VINA RESULT:      -6.9      1.656      2.949
REMARK  Name = 
REMARK  5 active torsions:
REMARK  status: ('A' for Active; 'I' for Inactive)
REMARK    1  A    between atoms: C_1  and  C_2
REMARK    2  A    between atoms: C_2  and  C_3
REMARK    3  A    between atoms: C_2  and  N_15
REMARK    4  A    between atoms: N_6  and  C_7
REMARK    5  A    between atoms: C_7  and  C_8
REMARK                            x       y       z     vdW  Elec       q    Type
REMARK                         _______ _______ _______ _____ _____    ______ ____
ROOT
ATOM      1  C   UNL     1       2.995   4.334  17.468  0.00  0.00    +0.000 C 
ATOM      2  C   UNL     1       3.797   3.837  16.247  0.00  0.00    +0.000 C 
ATOM      3  C   UNL     1       5.316   3.995  16.382  0.00  0.00    +0.000 C 
ATOM      4  N   UNL     1       5.710   5.358  16.776  0.00  0.00    +0.000 NA
ATOM      5  C   UNL     1       5.042   5.736  18.032  0.00  0.00    +0.000 C 
ATOM      6  C   UNL     1       3.528   5.733  17.832  0.00  0.00    +0.000 C 
ENDROOT
BRANCH   1   8
ATOM      7  C   UNL     1       2.924   1.891  18.309  0.00  0.00    +0.000 C 
ATOM      8  C   UNL     1       2.970   3.374  18.711  0.00  0.00    +0.000 C 
BRANCH   8   9
ATOM      9  N   UNL     1       1.882   3.763  19.642  0.00  0.00    +0.000 NA
ATOM     10  C   UNL     1       2.289   4.532  20.820  0.00  0.00    +0.000 C 
ATOM     11  C   UNL     1       2.345   3.533  21.959  0.00  0.00    +0.000 C 
ATOM     12  C   UNL     1       1.237   2.552  21.629  0.00  0.00    +0.000 C 
ATOM     13  C   UNL     1       1.015   2.681  20.126  0.00  0.00    +0.000 C 
ENDBRANCH   8   9
ENDBRANCH   1   8
BRANCH   4  14
ATOM     14  C   UNL     1       7.188   5.428  16.891  0.00  0.00    +0.000 C 
BRANCH  14  15
ATOM     15  C   UNL     1       7.648   6.667  17.590  0.00  0.00    +0.000 A 
ATOM     16  C   UNL     1       8.244   6.818  18.826  0.00  0.00    +0.000 A 
ATOM     17  N   UNL     1       8.518   8.154  18.937  0.00  0.00    +0.000 N 
ATOM     18  C   UNL     1       8.080   8.764  17.798  0.00  0.00    +0.000 A 
ATOM     19  N   UNL     1       7.539   7.901  16.968  0.00  0.00    +0.000 NA
ATOM     20  H   UNL     1       8.984   8.610  19.711  0.00  0.00    +0.000 HD
ENDBRANCH  14  15
ENDBRANCH   4  14
TORSDOF 4
ENDMDL
MODEL 4
REMARK VINA RESULT:      -6.9      1.203      1.871
REMARK  Name = 
REMARK  5 active torsions:
REMARK  status: ('A' for Active; 'I' for Inactive)
REMARK    1  A    between atoms: C_1  and  C_2
REMARK    2  A    between atoms: C_2  and  C_3
REMARK    3  A    between atoms: C_2  and  N_15
REMARK    4  A    between atoms: N_6  and  C_7
REMARK    5  A    between atoms: C_7  and  C_8
REMARK                            x       y       z     vdW  Elec       q    Type
REMARK                         _______ _______ _______ _____ _____    ______ ____
ROOT
ATOM      1  C   UNL     1       3.170   5.151  18.212  0.00  0.00    +0.000 C 
ATOM      2  C   UNL     1       3.417   4.020  17.192  0.00  0.00    +0.000 C 
ATOM      3  C   UNL     1       4.876   3.878  16.747  0.00  0.00    +0.000 C 
ATOM      4  N   UNL     1       5.456   5.155  16.295  0.00  0.00    +0.000 NA
ATOM      5  C   UNL     1       5.341   6.167  17.358  0.00  0.00    +0.000 C 
ATOM      6  C   UNL     1       3.867   6.416  17.676  0.00  0.00    +0.000 C 
ENDROOT
BRANCH   1   8
ATOM      7  C   UNL     1       4.503   3.617  19.809  0.00  0.00    +0.000 C 
ATOM      8  C   UNL     1       3.579   4.840  19.698  0.00  0.00    +0.000 C 
BRANCH   8   9
ATOM      9  N   UNL     1       2.373   4.744  20.555  0.00  0.00    +0.000 NA
ATOM     10  C   UNL     1       2.423   3.748  21.626  0.00  0.00    +0.000 C 
ATOM     11  C   UNL     1       1.644   2.553  21.109  0.00  0.00    +0.000 C 
ATOM     12  C   UNL     1       0.560   3.178  20.253  0.00  0.00    +0.000 C 
ATOM     13  C   UNL     1       1.091   4.552  19.864  0.00  0.00    +0.000 C 
ENDBRANCH   8   9
ENDBRANCH   1   8
BRANCH   4  14
ATOM     14  C   UNL     1       6.866   4.937  15.888  0.00  0.00    +0.000 C 
BRANCH  14  15
ATOM     15  C   UNL     1       7.010   4.738  14.413  0.00  0.00    +0.000 A 
ATOM     16  C   UNL     1       6.369   3.850  13.572  0.00  0.00    +0.000 A 
ATOM     17  N   UNL     1       6.826   4.145  12.316  0.00  0.00    +0.000 N 
ATOM     18  C   UNL     1       7.720   5.170  12.429  0.00  0.00    +0.000 A 
ATOM     19  N   UNL     1       7.865   5.545  13.680  0.00  0.00    +0.000 NA
ATOM     20  H   UNL     1       6.538   3.703  11.452  0.00  0.00    +0.000 HD
ENDBRANCH  14  15
ENDBRANCH   4  14
TORSDOF 4
ENDMDL
MODEL 5
REMARK VINA RESULT:      -6.8      0.686      1.191
REMARK  Name = 
REMARK  5 active torsions:
REMARK  status: ('A' for Active; 'I' for Inactive)
REMARK    1  A    between atoms: C_1  and  C_2
REMARK    2  A    between atoms: C_2  and  C_3
REMARK    3  A    between atoms: C_2  and  N_15
REMARK    4  A    between atoms: N_6  and  C_7
REMARK    5  A    between atoms: C_7  and  C_8
REMARK                            x       y       z     vdW  Elec       q    Type
REMARK                         _______ _______ _______ _____ _____    ______ ____
ROOT
ATOM      1  C   UNL     1       3.564   5.783  18.716  0.00  0.00    +0.000 C 
ATOM      2  C   UNL     1       3.797   6.801  17.579  0.00  0.00    +0.000 C 
ATOM      3  C   UNL     1       5.012   6.495  16.697  0.00  0.00    +0.000 C 
ATOM      4  N   UNL     1       6.238   6.264  17.481  0.00  0.00    +0.000 NA
ATOM      5  C   UNL     1       6.021   5.177  18.450  0.00  0.00    +0.000 C 
ATOM      6  C   UNL     1       4.914   5.569  19.427  0.00  0.00    +0.000 C 
ENDROOT
BRANCH   1   8
ATOM      7  C   UNL     1       1.506   4.615  17.676  0.00  0.00    +0.000 C 
ATOM      8  C   UNL     1       2.899   4.423  18.295  0.00  0.00    +0.000 C 
BRANCH   8   9
ATOM      9  N   UNL     1       2.910   3.471  19.433  0.00  0.00    +0.000 NA
ATOM     10  C   UNL     1       2.429   2.119  19.144  0.00  0.00    +0.000 C 
ATOM     11  C   UNL     1       1.002   2.075  19.657  0.00  0.00    +0.000 C 
ATOM     12  C   UNL     1       1.030   2.985  20.869  0.00  0.00    +0.000 C 
ATOM     13  C   UNL     1       2.226   3.906  20.658  0.00  0.00    +0.000 C 
ENDBRANCH   8   9
ENDBRANCH   1   8
BRANCH   4  14
ATOM     14  C   UNL     1       7.363   5.970  16.560  0.00  0.00    +0.000 C 
BRANCH  14  15
ATOM     15  C   UNL     1       6.973   5.031  15.464  0.00  0.00    +0.000 A 
ATOM     16  C   UNL     1       6.323   3.814  15.530  0.00  0.00    +0.000 A 
ATOM     17  N   UNL     1       6.160   3.419  14.230  0.00  0.00    +0.000 N 
ATOM     18  C   UNL     1       6.715   4.377  13.431  0.00  0.00    +0.000 A 
ATOM     19  N   UNL     1       7.225   5.357  14.142  0.00  0.00    +0.000 NA
ATOM     20  H   UNL     1       5.692   2.580  13.910  0.00  0.00    +0.000 HD
ENDBRANCH  14  15
ENDBRANCH   4  14
TORSDOF 4
ENDMDL
MODEL 6
REMARK VINA RESULT:      -6.8      1.148      1.812
REMARK  Name = 
REMARK  5 active torsions:
REMARK  status: ('A' for Active; 'I' for Inactive)
REMARK    1  A    between atoms: C_1  and  C_2
REMARK    2  A    between atoms: C_2  and  C_3
REMARK    3  A    between atoms: C_2  and  N_15
REMARK    4  A    between atoms: N_6  and  C_7
REMARK    5  A    between atoms: C_7  and  C_8
REMARK                            x       y       z     vdW  Elec       q    Type
REMARK                         _______ _______ _______ _____ _____    ______ ____
ROOT
ATOM      1  C   UNL     1       3.700   3.745  18.539  0.00  0.00    +0.000 C 
ATOM      2  C   UNL     1       5.085   4.132  19.099  0.00  0.00    +0.000 C 
ATOM      3  C   UNL     1       5.921   5.013  18.164  0.00  0.00    +0.000 C 
ATOM      4  N   UNL     1       6.019   4.459  16.803  0.00  0.00    +0.000 NA
ATOM      5  C   UNL     1       4.674   4.250  16.243  0.00  0.00    +0.000 C 
ATOM      6  C   UNL     1       3.909   3.241  17.098  0.00  0.00    +0.000 C 
ENDROOT
BRANCH   1   8
ATOM      7  C   UNL     1       3.160   6.227  19.016  0.00  0.00    +0.000 C 
ATOM      8  C   UNL     1       2.591   4.857  18.617  0.00  0.00    +0.000 C 
BRANCH   8   9
ATOM      9  N   UNL     1       1.474   4.410  19.483  0.00  0.00    +0.000 NA
ATOM     10  C   UNL     1       1.555   4.804  20.891  0.00  0.00    +0.000 C 
ATOM     11  C   UNL     1       2.069   3.583  21.628  0.00  0.00    +0.000 C 
ATOM     12  C   UNL     1       1.474   2.422  20.855  0.00  0.00    +0.000 C 
ATOM     13  C   UNL     1       1.167   2.973  19.468  0.00  0.00    +0.000 C 
ENDBRANCH   8   9
ENDBRANCH   1   8
BRANCH   4  14
ATOM     14  C   UNL     1       6.836   5.367  15.960  0.00  0.00    +0.000 C 
BRANCH  14  15
ATOM     15  C   UNL     1       6.955   4.884  14.550  0.00  0.00    +0.000 A 
ATOM     16  C   UNL     1       6.272   3.879  13.897  0.00  0.00    +0.000 A 
ATOM     17  N   UNL     1       6.726   3.910  12.606  0.00  0.00    +0.000 N 
ATOM     18  C   UNL     1       7.660   4.900  12.518  0.00  0.00    +0.000 A 
ATOM     19  N   UNL     1       7.833   5.501  13.674  0.00  0.00    +0.000 NA
ATOM     20  H   UNL     1       6.412   3.323  11.843  0.00  0.00    +0.000 HD
ENDBRANCH  14  15
ENDBRANCH   4  14
TORSDOF 4
ENDMDL
MODEL 7
REMARK VINA RESULT:      -6.7      1.070      1.399
REMARK  Name = 
REMARK  5 active torsions:
REMARK  status: ('A' for Active; 'I' for Inactive)
REMARK    1  A    between atoms: C_1  and  C_2
REMARK    2  A    between atoms: C_2  and  C_3
REMARK    3  A    between atoms: C_2  and  N_15
REMARK    4  A    between atoms: N_6  and  C_7
REMARK    5  A    between atoms: C_7  and  C_8
REMARK                            x       y       z     vdW  Elec       q    Type
REMARK                         _______ _______ _______ _____ _____    ______ ____
ROOT
ATOM      1  C   UNL     1       4.030   4.392  19.365  0.00  0.00    +0.000 C 
ATOM      2  C   UNL     1       3.433   5.719  18.850  0.00  0.00    +0.000 C 
ATOM      3  C   UNL     1       4.035   6.213  17.530  0.00  0.00    +0.000 C 
ATOM      4  N   UNL     1       5.508   6.252  17.560  0.00  0.00    +0.000 NA
ATOM      5  C   UNL     1       6.043   4.924  17.902  0.00  0.00    +0.000 C 
ATOM      6  C   UNL     1       5.563   4.518  19.294  0.00  0.00    +0.000 C 
ENDROOT
BRANCH   1   8
ATOM      7  C   UNL     1       2.787   3.382  17.336  0.00  0.00    +0.000 C 
ATOM      8  C   UNL     1       3.514   3.087  18.657  0.00  0.00    +0.000 C 
BRANCH   8   9
ATOM      9  N   UNL     1       2.711   2.272  19.600  0.00  0.00    +0.000 NA
ATOM     10  C   UNL     1       1.262   2.284  19.387  0.00  0.00    +0.000 C 
ATOM     11  C   UNL     1       0.708   3.262  20.405  0.00  0.00    +0.000 C 
ATOM     12  C   UNL     1       1.631   3.099  21.596  0.00  0.00    +0.000 C 
ATOM     13  C   UNL     1       2.925   2.525  21.031  0.00  0.00    +0.000 C 
ENDBRANCH   8   9
ENDBRANCH   1   8
BRANCH   4  14
ATOM     14  C   UNL     1       6.013   6.733  16.250  0.00  0.00    +0.000 C 
BRANCH  14  15
ATOM     15  C   UNL     1       6.187   5.624  15.263  0.00  0.00    +0.000 A 
ATOM     16  C   UNL     1       5.265   4.723  14.771  0.00  0.00    +0.000 A 
ATOM     17  N   UNL     1       5.944   3.976  13.847  0.00  0.00    +0.000 N 
ATOM     18  C   UNL     1       7.232   4.424  13.816  0.00  0.00    +0.000 A 
ATOM     19  N   UNL     1       7.418   5.409  14.665  0.00  0.00    +0.000 NA
ATOM     20  H   UNL     1       5.560   3.237  13.270  0.00  0.00    +0.000 HD
ENDBRANCH  14  15
ENDBRANCH   4  14
TORSDOF 4
ENDMDL
MODEL 8
REMARK VINA RESULT:      -6.7      1.603      3.044
REMARK  Name = 
REMARK  5 active torsions:
REMARK  status: ('A' for Active; 'I' for Inactive)
REMARK    1  A    between atoms: C_1  and  C_2
REMARK    2  A    between atoms: C_2  and  C_3
REMARK    3  A    between atoms: C_2  and  N_15
REMARK    4  A    between atoms: N_6  and  C_7
REMARK    5  A    between atoms: C_7  and  C_8
REMARK                            x       y       z     vdW  Elec       q    Type
REMARK                         _______ _______ _______ _____ _____    ______ ____
ROOT
ATOM      1  C   UNL     1       3.637   3.677  18.463  0.00  0.00    +0.000 C 
ATOM      2  C   UNL     1       4.791   4.326  19.255  0.00  0.00    +0.000 C 
ATOM      3  C   UNL     1       5.620   5.334  18.452  0.00  0.00    +0.000 C 
ATOM      4  N   UNL     1       6.082   4.788  17.164  0.00  0.00    +0.000 NA
ATOM      5  C   UNL     1       4.933   4.321  16.371  0.00  0.00    +0.000 C 
ATOM      6  C   UNL     1       4.213   3.199  17.117  0.00  0.00    +0.000 C 
ENDROOT
BRANCH   1   8
ATOM      7  C   UNL     1       2.659   6.065  18.329  0.00  0.00    +0.000 C 
ATOM      8  C   UNL     1       2.352   4.561  18.272  0.00  0.00    +0.000 C 
BRANCH   8   9
ATOM      9  N   UNL     1       1.292   4.141  19.221  0.00  0.00    +0.000 NA
ATOM     10  C   UNL     1       1.313   4.789  20.534  0.00  0.00    +0.000 C 
ATOM     11  C   UNL     1       1.970   3.793  21.470  0.00  0.00    +0.000 C 
ATOM     12  C   UNL     1       1.530   2.448  20.927  0.00  0.00    +0.000 C 
ATOM     13  C   UNL     1       1.167   2.699  19.468  0.00  0.00    +0.000 C 
ENDBRANCH   8   9
ENDBRANCH   1   8
BRANCH   4  14
ATOM     14  C   UNL     1       6.869   5.821  16.446  0.00  0.00    +0.000 C 
BRANCH  14  15
ATOM     15  C   UNL     1       7.488   6.815  17.375  0.00  0.00    +0.000 A 
ATOM     16  C   UNL     1       8.148   6.619  18.571  0.00  0.00    +0.000 A 
ATOM     17  N   UNL     1       8.568   7.861  18.963  0.00  0.00    +0.000 N 
ATOM     18  C   UNL     1       8.149   8.757  18.023  0.00  0.00    +0.000 A 
ATOM     19  N   UNL     1       7.484   8.163  17.057  0.00  0.00    +0.000 NA
ATOM     20  H   UNL     1       9.113   8.080  19.788  0.00  0.00    +0.000 HD
ENDBRANCH  14  15
ENDBRANCH   4  14
TORSDOF 4
ENDMDL
MODEL 9
REMARK VINA RESULT:      -6.6      1.393      2.181
REMARK  Name = 
REMARK  5 active torsions:
REMARK  status: ('A' for Active; 'I' for Inactive)
REMARK    1  A    between atoms: C_1  and  C_2
REMARK    2  A    between atoms: C_2  and  C_3
REMARK    3  A    between atoms: C_2  and  N_15
REMARK    4  A    between atoms: N_6  and  C_7
REMARK    5  A    between atoms: C_7  and  C_8
REMARK                            x       y       z     vdW  Elec       q    Type
REMARK                         _______ _______ _______ _____ _____    ______ ____
ROOT
ATOM      1  C   UNL     1       4.749   6.043  18.489  0.00  0.00    +0.000 C 
ATOM      2  C   UNL     1       5.083   6.719  17.142  0.00  0.00    +0.000 C 
ATOM      3  C   UNL     1       5.116   5.762  15.946  0.00  0.00    +0.000 C 
ATOM      4  N   UNL     1       5.965   4.582  16.189  0.00  0.00    +0.000 NA
ATOM      5  C   UNL     1       5.513   3.875  17.399  0.00  0.00    +0.000 C 
ATOM      6  C   UNL     1       5.642   4.794  18.612  0.00  0.00    +0.000 C 
ENDROOT
BRANCH   1   8
ATOM      7  C   UNL     1       2.444   6.909  19.277  0.00  0.00    +0.000 C 
ATOM      8  C   UNL     1       3.233   5.708  18.732  0.00  0.00    +0.000 C 
BRANCH   8   9
ATOM      9  N   UNL     1       3.102   4.491  19.570  0.00  0.00    +0.000 NA
ATOM     10  C   UNL     1       2.497   3.326  18.922  0.00  0.00    +0.000 C 
ATOM     11  C   UNL     1       1.054   3.303  19.392  0.00  0.00    +0.000 C 
ATOM     12  C   UNL     1       1.130   3.845  20.805  0.00  0.00    +0.000 C 
ATOM     13  C   UNL     1       2.421   4.655  20.861  0.00  0.00    +0.000 C 
ENDBRANCH   8   9
ENDBRANCH   1   8
BRANCH   4  14
ATOM     14  C   UNL     1       5.941   3.705  14.992  0.00  0.00    +0.000 C 
BRANCH  14  15
ATOM     15  C   UNL     1       6.734   4.267  13.857  0.00  0.00    +0.000 A 
ATOM     16  C   UNL     1       6.669   3.988  12.506  0.00  0.00    +0.000 A 
ATOM     17  N   UNL     1       7.567   4.835  11.916  0.00  0.00    +0.000 N 
ATOM     18  C   UNL     1       8.148   5.577  12.903  0.00  0.00    +0.000 A 
ATOM     19  N   UNL     1       7.679   5.254  14.086  0.00  0.00    +0.000 NA
ATOM     20  H   UNL     1       7.754   4.918  10.924  0.00  0.00    +0.000 HD
ENDBRANCH  14  15
ENDBRANCH   4  14
TORSDOF 4
ENDMDL
