MODEL 1
REMARK VINA RESULT:      -8.7      0.000      0.000
REMARK  Name = 
REMARK  6 active torsions:
REMARK  status: ('A' for Active; 'I' for Inactive)
REMARK    1  A    between atoms: N_2  and  C_3
REMARK    2  A    between atoms: C_5  and  N_6
REMARK    3  A    between atoms: N_6  and  S_7
REMARK    4  A    between atoms: S_7  and  C_8
REMARK    5  A    between atoms: C_13  and  N_14
REMARK    6  A    between atoms: N_14  and  C_15
REMARK                            x       y       z     vdW  Elec       q    Type
REMARK                         _______ _______ _______ _____ _____    ______ ____
ROOT
ATOM      1  N   UNL     1       2.636   7.231  19.545  0.00  0.00    +0.000 N 
ATOM      2  H   UNL     1       2.718   7.006  20.537  0.00  0.00    +0.000 HD
ENDROOT
BRANCH   1   3
ATOM      3  C   UNL     1       2.786   6.079  18.690  0.00  0.00    +0.000 A 
ATOM      4  C   UNL     1       2.106   4.851  18.997  0.00  0.00    +0.000 A 
ATOM      5  C   UNL     1       1.303   4.586  20.132  0.00  0.00    +0.000 A 
ATOM      6  C   UNL     1       0.712   3.327  20.321  0.00  0.00    +0.000 A 
ATOM      7  C   UNL     1       0.825   2.350  19.338  0.00  0.00    +0.000 A 
ATOM      8  C   UNL     1       1.660   2.575  18.258  0.00  0.00    +0.000 A 
ATOM      9  C   UNL     1       2.384   3.749  18.167  0.00  0.00    +0.000 A 
ATOM     10  N   UNL     1       3.471   3.704  17.411  0.00  0.00    +0.000 NA
ATOM     11  C   UNL     1       4.256   4.782  17.419  0.00  0.00    +0.000 A 
ATOM     12  C   UNL     1       5.625   4.632  17.523  0.00  0.00    +0.000 A 
ATOM     13  C   UNL     1       6.463   5.744  17.499  0.00  0.00    +0.000 A 
ATOM     14  C   UNL     1       5.924   6.970  17.131  0.00  0.00    +0.000 A 
ATOM     15  C   UNL     1       4.541   7.124  17.168  0.00  0.00    +0.000 A 
ATOM     16  C   UNL     1       3.782   6.048  17.673  0.00  0.00    +0.000 A 
ENDBRANCH   1   3
BRANCH   1  22
ATOM     17  C   UNL     1       1.043   8.945  20.400  0.00  0.00    +0.000 A 
ATOM     18  C   UNL     1       0.086   9.916  20.095  0.00  0.00    +0.000 A 
ATOM     19  C   UNL     1      -0.136  10.348  18.788  0.00  0.00    +0.000 A 
ATOM     20  C   UNL     1       0.658   9.866  17.763  0.00  0.00    +0.000 A 
ATOM     21  C   UNL     1       1.658   8.935  18.056  0.00  0.00    +0.000 A 
ATOM     22  C   UNL     1       1.792   8.371  19.335  0.00  0.00    +0.000 A 
BRANCH  17  24
ATOM     23  C   UNL     1       0.877   9.274  22.696  0.00  0.00    +0.000 C 
ATOM     24  N   UNL     1       1.274   8.509  21.729  0.00  0.00    +0.000 NA
ENDBRANCH  17  24
BRANCH  19  25
ATOM     25  N   UNL     1      -1.210  11.252  18.510  0.00  0.00    +0.000 N 
ATOM     26  H   UNL     1      -1.577  11.738  19.338  0.00  0.00    +0.000 HD
BRANCH  25  27
ATOM     27  S   UNL     1      -2.499  10.670  17.585  0.00  0.00    +0.000 S 
ATOM     28  C   UNL     1      -3.833  11.665  18.211  0.00  0.00    +0.000 C 
ATOM     29  O   UNL     1      -2.292  10.992  16.183  0.00  0.00    +0.000 OA
ATOM     30  O   UNL     1      -2.713   9.312  18.019  0.00  0.00    +0.000 OA
ENDBRANCH  25  27
ENDBRANCH  19  25
ENDBRANCH   1  22
TORSDOF 5
ENDMDL
MODEL 2
REMARK VINA RESULT:      -8.1      1.486      1.607
REMARK  Name = 
REMARK  6 active torsions:
REMARK  status: ('A' for Active; 'I' for Inactive)
REMARK    1  A    between atoms: N_2  and  C_3
REMARK    2  A    between atoms: C_5  and  N_6
REMARK    3  A    between atoms: N_6  and  S_7
REMARK    4  A    between atoms: S_7  and  C_8
REMARK    5  A    between atoms: C_13  and  N_14
REMARK    6  A    between atoms: N_14  and  C_15
REMARK                            x       y       z     vdW  Elec       q    Type
REMARK                         _______ _______ _______ _____ _____    ______ ____
ROOT
ATOM      1  N   UNL     1       2.865   6.928  19.567  0.00  0.00    +0.000 N 
ATOM      2  H   UNL     1       2.791   6.649  20.546  0.00  0.00    +0.000 HD
ENDROOT
BRANCH   1   3
ATOM      3  C   UNL     1       3.082   5.814  18.676  0.00  0.00    +0.000 A 
ATOM      4  C   UNL     1       2.358   4.587  18.858  0.00  0.00    +0.000 A 
ATOM      5  C   UNL     1       1.443   4.285  19.895  0.00  0.00    +0.000 A 
ATOM      6  C   UNL     1       0.818   3.030  19.966  0.00  0.00    +0.000 A 
ATOM      7  C   UNL     1       1.013   2.096  18.953  0.00  0.00    +0.000 A 
ATOM      8  C   UNL     1       1.954   2.355  17.972  0.00  0.00    +0.000 A 
ATOM      9  C   UNL     1       2.700   3.518  18.007  0.00  0.00    +0.000 A 
ATOM     10  N   UNL     1       3.855   3.487  17.360  0.00  0.00    +0.000 NA
ATOM     11  C   UNL     1       4.651   4.548  17.495  0.00  0.00    +0.000 A 
ATOM     12  C   UNL     1       6.001   4.368  17.725  0.00  0.00    +0.000 A 
ATOM     13  C   UNL     1       6.853   5.464  17.835  0.00  0.00    +0.000 A 
ATOM     14  C   UNL     1       6.370   6.715  17.475  0.00  0.00    +0.000 A 
ATOM     15  C   UNL     1       4.993   6.894  17.384  0.00  0.00    +0.000 A 
ATOM     16  C   UNL     1       4.173   5.811  17.761  0.00  0.00    +0.000 A 
ENDBRANCH   1   3
BRANCH   1  22
ATOM     17  C   UNL     1       1.315   8.730  20.310  0.00  0.00    +0.000 A 
ATOM     18  C   UNL     1       0.451   9.765  19.940  0.00  0.00    +0.000 A 
ATOM     19  C   UNL     1       0.372  10.226  18.627  0.00  0.00    +0.000 A 
ATOM     20  C   UNL     1       1.221   9.707  17.667  0.00  0.00    +0.000 A 
ATOM     21  C   UNL     1       2.131   8.710  18.029  0.00  0.00    +0.000 A 
ATOM     22  C   UNL     1       2.116   8.123  19.304  0.00  0.00    +0.000 A 
BRANCH  17  24
ATOM     23  C   UNL     1       1.050   9.074  22.595  0.00  0.00    +0.000 C 
ATOM     24  N   UNL     1       1.399   8.264  21.646  0.00  0.00    +0.000 NA
ENDBRANCH  17  24
BRANCH  19  25
ATOM     25  N   UNL     1      -0.614  11.202  18.274  0.00  0.00    +0.000 N 
ATOM     26  H   UNL     1      -0.756  11.310  17.262  0.00  0.00    +0.000 HD
BRANCH  25  27
ATOM     27  S   UNL     1      -0.489  12.728  18.990  0.00  0.00    +0.000 S 
ATOM     28  C   UNL     1      -2.010  12.788  19.909  0.00  0.00    +0.000 C 
ATOM     29  O   UNL     1       0.624  12.751  19.924  0.00  0.00    +0.000 OA
ATOM     30  O   UNL     1      -0.581  13.678  17.909  0.00  0.00    +0.000 OA
ENDBRANCH  25  27
ENDBRANCH  19  25
ENDBRANCH   1  22
TORSDOF 5
ENDMDL
MODEL 3
REMARK VINA RESULT:      -8.0      2.155      2.773
REMARK  Name = 
REMARK  6 active torsions:
REMARK  status: ('A' for Active; 'I' for Inactive)
REMARK    1  A    between atoms: N_2  and  C_3
REMARK    2  A    between atoms: C_5  and  N_6
REMARK    3  A    between atoms: N_6  and  S_7
REMARK    4  A    between atoms: S_7  and  C_8
REMARK    5  A    between atoms: C_13  and  N_14
REMARK    6  A    between atoms: N_14  and  C_15
REMARK                            x       y       z     vdW  Elec       q    Type
REMARK                         _______ _______ _______ _____ _____    ______ ____
ROOT
ATOM      1  N   UNL     1       2.774   7.166  19.836  0.00  0.00    +0.000 N 
ATOM      2  H   UNL     1       3.399   7.004  20.626  0.00  0.00    +0.000 HD
ENDROOT
BRANCH   1   3
ATOM      3  C   UNL     1       2.763   6.077  18.890  0.00  0.00    +0.000 A 
ATOM      4  C   UNL     1       2.073   4.855  19.198  0.00  0.00    +0.000 A 
ATOM      5  C   UNL     1       1.409   4.535  20.407  0.00  0.00    +0.000 A 
ATOM      6  C   UNL     1       0.792   3.286  20.583  0.00  0.00    +0.000 A 
ATOM      7  C   UNL     1       0.735   2.382  19.528  0.00  0.00    +0.000 A 
ATOM      8  C   UNL     1       1.435   2.657  18.367  0.00  0.00    +0.000 A 
ATOM      9  C   UNL     1       2.194   3.808  18.264  0.00  0.00    +0.000 A 
ATOM     10  N   UNL     1       3.172   3.781  17.372  0.00  0.00    +0.000 NA
ATOM     11  C   UNL     1       3.999   4.826  17.353  0.00  0.00    +0.000 A 
ATOM     12  C   UNL     1       5.363   4.621  17.267  0.00  0.00    +0.000 A 
ATOM     13  C   UNL     1       6.239   5.701  17.211  0.00  0.00    +0.000 A 
ATOM     14  C   UNL     1       5.714   6.969  17.002  0.00  0.00    +0.000 A 
ATOM     15  C   UNL     1       4.356   7.169  17.229  0.00  0.00    +0.000 A 
ATOM     16  C   UNL     1       3.619   6.087  17.753  0.00  0.00    +0.000 A 
ENDBRANCH   1   3
BRANCH   1  22
ATOM     17  C   UNL     1       1.269   9.094  19.364  0.00  0.00    +0.000 A 
ATOM     18  C   UNL     1       0.340  10.010  19.865  0.00  0.00    +0.000 A 
ATOM     19  C   UNL     1      -0.205   9.885  21.143  0.00  0.00    +0.000 A 
ATOM     20  C   UNL     1       0.116   8.787  21.920  0.00  0.00    +0.000 A 
ATOM     21  C   UNL     1       1.001   7.830  21.415  0.00  0.00    +0.000 A 
ATOM     22  C   UNL     1       1.679   8.018  20.200  0.00  0.00    +0.000 A 
BRANCH  17  24
ATOM     23  C   UNL     1       2.291  10.370  17.712  0.00  0.00    +0.000 C 
ATOM     24  N   UNL     1       1.819   9.217  18.064  0.00  0.00    +0.000 NA
ENDBRANCH  17  24
BRANCH  19  25
ATOM     25  N   UNL     1      -1.056  10.914  21.657  0.00  0.00    +0.000 N 
ATOM     26  H   UNL     1      -2.021  10.879  21.304  0.00  0.00    +0.000 HD
BRANCH  25  27
ATOM     27  S   UNL     1      -0.489  12.505  21.579  0.00  0.00    +0.000 S 
ATOM     28  C   UNL     1      -1.171  13.174  23.079  0.00  0.00    +0.000 C 
ATOM     29  O   UNL     1       0.962  12.522  21.676  0.00  0.00    +0.000 OA
ATOM     30  O   UNL     1      -1.173  13.113  20.466  0.00  0.00    +0.000 OA
ENDBRANCH  25  27
ENDBRANCH  19  25
ENDBRANCH   1  22
TORSDOF 5
ENDMDL
MODEL 4
REMARK VINA RESULT:      -7.9      2.612      4.301
REMARK  Name = 
REMARK  6 active torsions:
REMARK  status: ('A' for Active; 'I' for Inactive)
REMARK    1  A    between atoms: N_2  and  C_3
REMARK    2  A    between atoms: C_5  and  N_6
REMARK    3  A    between atoms: N_6  and  S_7
REMARK    4  A    between atoms: S_7  and  C_8
REMARK    5  A    between atoms: C_13  and  N_14
REMARK    6  A    between atoms: N_14  and  C_15
REMARK                            x       y       z     vdW  Elec       q    Type
REMARK                         _______ _______ _______ _____ _____    ______ ____
ROOT
ATOM      1  N   UNL     1       2.036   6.742  18.661  0.00  0.00    +0.000 N 
ATOM      2  H   UNL     1       1.604   6.434  17.789  0.00  0.00    +0.000 HD
ENDROOT
BRANCH   1   3
ATOM      3  C   UNL     1       3.128   5.897  19.081  0.00  0.00    +0.000 A 
ATOM      4  C   UNL     1       4.397   5.963  18.411  0.00  0.00    +0.000 A 
ATOM      5  C   UNL     1       4.722   6.756  17.284  0.00  0.00    +0.000 A 
ATOM      6  C   UNL     1       6.004   6.706  16.712  0.00  0.00    +0.000 A 
ATOM      7  C   UNL     1       7.006   5.951  17.312  0.00  0.00    +0.000 A 
ATOM      8  C   UNL     1       6.682   5.124  18.372  0.00  0.00    +0.000 A 
ATOM      9  C   UNL     1       5.377   5.038  18.819  0.00  0.00    +0.000 A 
ATOM     10  N   UNL     1       5.058   3.933  19.475  0.00  0.00    +0.000 NA
ATOM     11  C   UNL     1       3.774   3.769  19.794  0.00  0.00    +0.000 A 
ATOM     12  C   UNL     1       3.169   2.544  19.594  0.00  0.00    +0.000 A 
ATOM     13  C   UNL     1       1.839   2.344  19.953  0.00  0.00    +0.000 A 
ATOM     14  C   UNL     1       1.210   3.312  20.726  0.00  0.00    +0.000 A 
ATOM     15  C   UNL     1       1.781   4.579  20.795  0.00  0.00    +0.000 A 
ATOM     16  C   UNL     1       2.914   4.824  19.992  0.00  0.00    +0.000 A 
ENDBRANCH   1   3
BRANCH   1  22
ATOM     17  C   UNL     1       1.297   8.712  19.994  0.00  0.00    +0.000 A 
ATOM     18  C   UNL     1       1.018  10.080  20.012  0.00  0.00    +0.000 A 
ATOM     19  C   UNL     1       1.343  10.915  18.943  0.00  0.00    +0.000 A 
ATOM     20  C   UNL     1       2.029  10.401  17.858  0.00  0.00    +0.000 A 
ATOM     21  C   UNL     1       2.366   9.044  17.845  0.00  0.00    +0.000 A 
ATOM     22  C   UNL     1       1.911   8.160  18.835  0.00  0.00    +0.000 A 
BRANCH  17  24
ATOM     23  C   UNL     1      -0.033   8.195  21.830  0.00  0.00    +0.000 C 
ATOM     24  N   UNL     1       0.972   7.865  21.083  0.00  0.00    +0.000 NA
ENDBRANCH  17  24
BRANCH  19  25
ATOM     25  N   UNL     1       0.927  12.284  18.957  0.00  0.00    +0.000 N 
ATOM     26  H   UNL     1       0.619  12.641  18.044  0.00  0.00    +0.000 HD
BRANCH  25  27
ATOM     27  S   UNL     1       1.967  13.405  19.676  0.00  0.00    +0.000 S 
ATOM     28  C   UNL     1       0.980  14.881  19.582  0.00  0.00    +0.000 C 
ATOM     29  O   UNL     1       2.173  13.068  21.075  0.00  0.00    +0.000 OA
ATOM     30  O   UNL     1       3.077  13.551  18.768  0.00  0.00    +0.000 OA
ENDBRANCH  25  27
ENDBRANCH  19  25
ENDBRANCH   1  22
TORSDOF 5
ENDMDL
MODEL 5
REMARK VINA RESULT:      -7.9      1.425      1.478
REMARK  Name = 
REMARK  6 active torsions:
REMARK  status: ('A' for Active; 'I' for Inactive)
REMARK    1  A    between atoms: N_2  and  C_3
REMARK    2  A    between atoms: C_5  and  N_6
REMARK    3  A    between atoms: N_6  and  S_7
REMARK    4  A    between atoms: S_7  and  C_8
REMARK    5  A    between atoms: C_13  and  N_14
REMARK    6  A    between atoms: N_14  and  C_15
REMARK                            x       y       z     vdW  Elec       q    Type
REMARK                         _______ _______ _______ _____ _____    ______ ____
ROOT
ATOM      1  N   UNL     1       2.828   7.231  19.378  0.00  0.00    +0.000 N 
ATOM      2  H   UNL     1       3.102   7.061  20.346  0.00  0.00    +0.000 HD
ENDROOT
BRANCH   1   3
ATOM      3  C   UNL     1       2.907   6.051  18.551  0.00  0.00    +0.000 A 
ATOM      4  C   UNL     1       2.199   4.857  18.921  0.00  0.00    +0.000 A 
ATOM      5  C   UNL     1       1.431   4.652  20.092  0.00  0.00    +0.000 A 
ATOM      6  C   UNL     1       0.806   3.419  20.341  0.00  0.00    +0.000 A 
ATOM      7  C   UNL     1       0.849   2.411  19.383  0.00  0.00    +0.000 A 
ATOM      8  C   UNL     1       1.649   2.577  18.267  0.00  0.00    +0.000 A 
ATOM      9  C   UNL     1       2.407   3.722  18.113  0.00  0.00    +0.000 A 
ATOM     10  N   UNL     1       3.462   3.619  17.319  0.00  0.00    +0.000 NA
ATOM     11  C   UNL     1       4.282   4.669  17.265  0.00  0.00    +0.000 A 
ATOM     12  C   UNL     1       5.648   4.475  17.322  0.00  0.00    +0.000 A 
ATOM     13  C   UNL     1       6.521   5.556  17.233  0.00  0.00    +0.000 A 
ATOM     14  C   UNL     1       6.009   6.789  16.850  0.00  0.00    +0.000 A 
ATOM     15  C   UNL     1       4.635   6.992  16.934  0.00  0.00    +0.000 A 
ATOM     16  C   UNL     1       3.861   5.958  17.499  0.00  0.00    +0.000 A 
ENDBRANCH   1   3
BRANCH   1  22
ATOM     17  C   UNL     1       1.152   8.751  20.421  0.00  0.00    +0.000 A 
ATOM     18  C   UNL     1       0.100   9.649  20.227  0.00  0.00    +0.000 A 
ATOM     19  C   UNL     1      -0.240  10.128  18.962  0.00  0.00    +0.000 A 
ATOM     20  C   UNL     1       0.526   9.772  17.867  0.00  0.00    +0.000 A 
ATOM     21  C   UNL     1       1.618   8.918  18.048  0.00  0.00    +0.000 A 
ATOM     22  C   UNL     1       1.879   8.302  19.282  0.00  0.00    +0.000 A 
BRANCH  17  24
ATOM     23  C   UNL     1       1.414   9.087  22.706  0.00  0.00    +0.000 C 
ATOM     24  N   UNL     1       1.501   8.268  21.707  0.00  0.00    +0.000 NA
ENDBRANCH  17  24
BRANCH  19  25
ATOM     25  N   UNL     1      -1.402  10.948  18.800  0.00  0.00    +0.000 N 
ATOM     26  H   UNL     1      -1.722  11.039  17.829  0.00  0.00    +0.000 HD
BRANCH  25  27
ATOM     27  S   UNL     1      -1.385  12.473  19.531  0.00  0.00    +0.000 S 
ATOM     28  C   UNL     1      -0.516  13.419  18.302  0.00  0.00    +0.000 C 
ATOM     29  O   UNL     1      -2.741  12.986  19.644  0.00  0.00    +0.000 OA
ATOM     30  O   UNL     1      -0.532  12.346  20.685  0.00  0.00    +0.000 OA
ENDBRANCH  25  27
ENDBRANCH  19  25
ENDBRANCH   1  22
TORSDOF 5
ENDMDL
MODEL 6
REMARK VINA RESULT:      -7.6      1.807      3.785
REMARK  Name = 
REMARK  6 active torsions:
REMARK  status: ('A' for Active; 'I' for Inactive)
REMARK    1  A    between atoms: N_2  and  C_3
REMARK    2  A    between atoms: C_5  and  N_6
REMARK    3  A    between atoms: N_6  and  S_7
REMARK    4  A    between atoms: S_7  and  C_8
REMARK    5  A    between atoms: C_13  and  N_14
REMARK    6  A    between atoms: N_14  and  C_15
REMARK                            x       y       z     vdW  Elec       q    Type
REMARK                         _______ _______ _______ _____ _____    ______ ____
ROOT
ATOM      1  N   UNL     1       2.006   6.804  18.667  0.00  0.00    +0.000 N 
ATOM      2  H   UNL     1       1.561   6.515  17.796  0.00  0.00    +0.000 HD
ENDROOT
BRANCH   1   3
ATOM      3  C   UNL     1       3.079   5.929  19.072  0.00  0.00    +0.000 A 
ATOM      4  C   UNL     1       4.346   5.971  18.396  0.00  0.00    +0.000 A 
ATOM      5  C   UNL     1       4.685   6.767  17.276  0.00  0.00    +0.000 A 
ATOM      6  C   UNL     1       5.962   6.692  16.696  0.00  0.00    +0.000 A 
ATOM      7  C   UNL     1       6.948   5.906  17.283  0.00  0.00    +0.000 A 
ATOM      8  C   UNL     1       6.609   5.075  18.335  0.00  0.00    +0.000 A 
ATOM      9  C   UNL     1       5.305   5.017  18.788  0.00  0.00    +0.000 A 
ATOM     10  N   UNL     1       4.962   3.912  19.434  0.00  0.00    +0.000 NA
ATOM     11  C   UNL     1       3.676   3.777  19.758  0.00  0.00    +0.000 A 
ATOM     12  C   UNL     1       3.039   2.570  19.548  0.00  0.00    +0.000 A 
ATOM     13  C   UNL     1       1.706   2.399  19.911  0.00  0.00    +0.000 A 
ATOM     14  C   UNL     1       1.106   3.373  20.698  0.00  0.00    +0.000 A 
ATOM     15  C   UNL     1       1.708   4.625  20.778  0.00  0.00    +0.000 A 
ATOM     16  C   UNL     1       2.843   4.851  19.972  0.00  0.00    +0.000 A 
ENDBRANCH   1   3
BRANCH   1  22
ATOM     17  C   UNL     1       1.340   8.781  20.028  0.00  0.00    +0.000 A 
ATOM     18  C   UNL     1       1.096  10.156  20.061  0.00  0.00    +0.000 A 
ATOM     19  C   UNL     1       1.421  10.991  18.992  0.00  0.00    +0.000 A 
ATOM     20  C   UNL     1       2.075  10.469  17.891  0.00  0.00    +0.000 A 
ATOM     21  C   UNL     1       2.379   9.105  17.862  0.00  0.00    +0.000 A 
ATOM     22  C   UNL     1       1.920   8.224  18.854  0.00  0.00    +0.000 A 
BRANCH  17  24
ATOM     23  C   UNL     1      -0.010   8.248  21.844  0.00  0.00    +0.000 C 
ATOM     24  N   UNL     1       1.014   7.934  21.116  0.00  0.00    +0.000 NA
ENDBRANCH  17  24
BRANCH  19  25
ATOM     25  N   UNL     1       1.039  12.370  19.024  0.00  0.00    +0.000 N 
ATOM     26  H   UNL     1       1.508  12.921  19.753  0.00  0.00    +0.000 HD
BRANCH  25  27
ATOM     27  S   UNL     1      -0.615  12.719  19.033  0.00  0.00    +0.000 S 
ATOM     28  C   UNL     1      -0.581  14.487  18.850  0.00  0.00    +0.000 C 
ATOM     29  O   UNL     1      -1.253  12.139  17.863  0.00  0.00    +0.000 OA
ATOM     30  O   UNL     1      -1.073  12.415  20.366  0.00  0.00    +0.000 OA
ENDBRANCH  25  27
ENDBRANCH  19  25
ENDBRANCH   1  22
TORSDOF 5
ENDMDL
MODEL 7
REMARK VINA RESULT:      -7.6      1.282      3.557
REMARK  Name = 
REMARK  6 active torsions:
REMARK  status: ('A' for Active; 'I' for Inactive)
REMARK    1  A    between atoms: N_2  and  C_3
REMARK    2  A    between atoms: C_5  and  N_6
REMARK    3  A    between atoms: N_6  and  S_7
REMARK    4  A    between atoms: S_7  and  C_8
REMARK    5  A    between atoms: C_13  and  N_14
REMARK    6  A    between atoms: N_14  and  C_15
REMARK                            x       y       z     vdW  Elec       q    Type
REMARK                         _______ _______ _______ _____ _____    ______ ____
ROOT
ATOM      1  N   UNL     1       3.080   6.862  19.889  0.00  0.00    +0.000 N 
ATOM      2  H   UNL     1       3.027   6.765  20.903  0.00  0.00    +0.000 HD
ENDROOT
BRANCH   1   3
ATOM      3  C   UNL     1       3.425   5.631  19.220  0.00  0.00    +0.000 A 
ATOM      4  C   UNL     1       4.127   5.658  17.967  0.00  0.00    +0.000 A 
ATOM      5  C   UNL     1       4.497   6.804  17.224  0.00  0.00    +0.000 A 
ATOM      6  C   UNL     1       5.164   6.685  15.995  0.00  0.00    +0.000 A 
ATOM      7  C   UNL     1       5.564   5.434  15.538  0.00  0.00    +0.000 A 
ATOM      8  C   UNL     1       5.151   4.304  16.221  0.00  0.00    +0.000 A 
ATOM      9  C   UNL     1       4.339   4.418  17.334  0.00  0.00    +0.000 A 
ATOM     10  N   UNL     1       3.618   3.349  17.639  0.00  0.00    +0.000 NA
ATOM     11  C   UNL     1       2.729   3.483  18.624  0.00  0.00    +0.000 A 
ATOM     12  C   UNL     1       1.455   2.973  18.470  0.00  0.00    +0.000 A 
ATOM     13  C   UNL     1       0.523   3.072  19.500  0.00  0.00    +0.000 A 
ATOM     14  C   UNL     1       0.965   3.472  20.755  0.00  0.00    +0.000 A 
ATOM     15  C   UNL     1       2.200   4.106  20.851  0.00  0.00    +0.000 A 
ATOM     16  C   UNL     1       2.880   4.387  19.649  0.00  0.00    +0.000 A 
ENDBRANCH   1   3
BRANCH   1  22
ATOM     17  C   UNL     1       1.330   8.587  20.298  0.00  0.00    +0.000 A 
ATOM     18  C   UNL     1       0.364   9.434  19.749  0.00  0.00    +0.000 A 
ATOM     19  C   UNL     1       0.255   9.637  18.374  0.00  0.00    +0.000 A 
ATOM     20  C   UNL     1       1.171   9.048  17.521  0.00  0.00    +0.000 A 
ATOM     21  C   UNL     1       2.179   8.241  18.055  0.00  0.00    +0.000 A 
ATOM     22  C   UNL     1       2.209   7.898  19.416  0.00  0.00    +0.000 A 
BRANCH  17  24
ATOM     23  C   UNL     1       0.829   9.211  22.481  0.00  0.00    +0.000 C 
ATOM     24  N   UNL     1       1.445   8.384  21.696  0.00  0.00    +0.000 NA
ENDBRANCH  17  24
BRANCH  19  25
ATOM     25  N   UNL     1      -0.826  10.416  17.853  0.00  0.00    +0.000 N 
ATOM     26  H   UNL     1      -0.728  10.664  16.861  0.00  0.00    +0.000 HD
BRANCH  25  27
ATOM     27  S   UNL     1      -1.291  11.785  18.730  0.00  0.00    +0.000 S 
ATOM     28  C   UNL     1      -3.047  11.778  18.448  0.00  0.00    +0.000 C 
ATOM     29  O   UNL     1      -1.044  11.576  20.147  0.00  0.00    +0.000 OA
ATOM     30  O   UNL     1      -0.729  12.911  18.028  0.00  0.00    +0.000 OA
ENDBRANCH  25  27
ENDBRANCH  19  25
ENDBRANCH   1  22
TORSDOF 5
ENDMDL
MODEL 8
REMARK VINA RESULT:      -7.6      2.382      4.383
REMARK  Name = 
REMARK  6 active torsions:
REMARK  status: ('A' for Active; 'I' for Inactive)
REMARK    1  A    between atoms: N_2  and  C_3
REMARK    2  A    between atoms: C_5  and  N_6
REMARK    3  A    between atoms: N_6  and  S_7
REMARK    4  A    between atoms: S_7  and  C_8
REMARK    5  A    between atoms: C_13  and  N_14
REMARK    6  A    between atoms: N_14  and  C_15
REMARK                            x       y       z     vdW  Elec       q    Type
REMARK                         _______ _______ _______ _____ _____    ______ ____
ROOT
ATOM      1  N   UNL     1       3.410   6.679  19.872  0.00  0.00    +0.000 N 
ATOM      2  H   UNL     1       4.004   6.726  20.701  0.00  0.00    +0.000 HD
ENDROOT
BRANCH   1   3
ATOM      3  C   UNL     1       3.583   5.459  19.121  0.00  0.00    +0.000 A 
ATOM      4  C   UNL     1       4.182   5.488  17.816  0.00  0.00    +0.000 A 
ATOM      5  C   UNL     1       4.601   6.634  17.099  0.00  0.00    +0.000 A 
ATOM      6  C   UNL     1       5.154   6.520  15.813  0.00  0.00    +0.000 A 
ATOM      7  C   UNL     1       5.395   5.264  15.268  0.00  0.00    +0.000 A 
ATOM      8  C   UNL     1       4.931   4.142  15.931  0.00  0.00    +0.000 A 
ATOM      9  C   UNL     1       4.224   4.270  17.112  0.00  0.00    +0.000 A 
ATOM     10  N   UNL     1       3.431   3.257  17.427  0.00  0.00    +0.000 NA
ATOM     11  C   UNL     1       2.639   3.419  18.487  0.00  0.00    +0.000 A 
ATOM     12  C   UNL     1       1.314   3.037  18.418  0.00  0.00    +0.000 A 
ATOM     13  C   UNL     1       0.480   3.166  19.526  0.00  0.00    +0.000 A 
ATOM     14  C   UNL     1       1.056   3.456  20.756  0.00  0.00    +0.000 A 
ATOM     15  C   UNL     1       2.350   3.967  20.778  0.00  0.00    +0.000 A 
ATOM     16  C   UNL     1       2.957   4.249  19.537  0.00  0.00    +0.000 A 
ENDBRANCH   1   3
BRANCH   1  22
ATOM     17  C   UNL     1       1.850   8.485  19.159  0.00  0.00    +0.000 A 
ATOM     18  C   UNL     1       0.778   9.313  19.500  0.00  0.00    +0.000 A 
ATOM     19  C   UNL     1       0.039   9.124  20.667  0.00  0.00    +0.000 A 
ATOM     20  C   UNL     1       0.315   8.042  21.483  0.00  0.00    +0.000 A 
ATOM     21  C   UNL     1       1.349   7.169  21.132  0.00  0.00    +0.000 A 
ATOM     22  C   UNL     1       2.203   7.432  20.050  0.00  0.00    +0.000 A 
BRANCH  17  24
ATOM     23  C   UNL     1       2.601   9.854  17.437  0.00  0.00    +0.000 C 
ATOM     24  N   UNL     1       2.598   8.674  17.970  0.00  0.00    +0.000 NA
ENDBRANCH  17  24
BRANCH  19  25
ATOM     25  N   UNL     1      -0.969  10.071  21.033  0.00  0.00    +0.000 N 
ATOM     26  H   UNL     1      -1.426  10.530  20.235  0.00  0.00    +0.000 HD
BRANCH  25  27
ATOM     27  S   UNL     1      -0.561  11.234  22.190  0.00  0.00    +0.000 S 
ATOM     28  C   UNL     1      -2.020  12.249  22.169  0.00  0.00    +0.000 C 
ATOM     29  O   UNL     1      -0.442  10.613  23.500  0.00  0.00    +0.000 OA
ATOM     30  O   UNL     1       0.522  11.994  21.619  0.00  0.00    +0.000 OA
ENDBRANCH  25  27
ENDBRANCH  19  25
ENDBRANCH   1  22
TORSDOF 5
ENDMDL
MODEL 9
REMARK VINA RESULT:      -7.4      3.356      7.560
REMARK  Name = 
REMARK  6 active torsions:
REMARK  status: ('A' for Active; 'I' for Inactive)
REMARK    1  A    between atoms: N_2  and  C_3
REMARK    2  A    between atoms: C_5  and  N_6
REMARK    3  A    between atoms: N_6  and  S_7
REMARK    4  A    between atoms: S_7  and  C_8
REMARK    5  A    between atoms: C_13  and  N_14
REMARK    6  A    between atoms: N_14  and  C_15
REMARK                            x       y       z     vdW  Elec       q    Type
REMARK                         _______ _______ _______ _____ _____    ______ ____
ROOT
ATOM      1  N   UNL     1       1.243  10.379  18.271  0.00  0.00    +0.000 N 
ATOM      2  H   UNL     1       1.453  10.546  17.287  0.00  0.00    +0.000 HD
ENDROOT
BRANCH   1   3
ATOM      3  C   UNL     1       0.134  11.164  18.755  0.00  0.00    +0.000 A 
ATOM      4  C   UNL     1      -1.200  10.901  18.292  0.00  0.00    +0.000 A 
ATOM      5  C   UNL     1      -1.589   9.951  17.318  0.00  0.00    +0.000 A 
ATOM      6  C   UNL     1      -2.934   9.812  16.939  0.00  0.00    +0.000 A 
ATOM      7  C   UNL     1      -3.921  10.540  17.596  0.00  0.00    +0.000 A 
ATOM      8  C   UNL     1      -3.547  11.516  18.502  0.00  0.00    +0.000 A 
ATOM      9  C   UNL     1      -2.209  11.775  18.739  0.00  0.00    +0.000 A 
ATOM     10  N   UNL     1      -1.926  12.977  19.218  0.00  0.00    +0.000 NA
ATOM     11  C   UNL     1      -0.636  13.295  19.323  0.00  0.00    +0.000 A 
ATOM     12  C   UNL     1      -0.199  14.537  18.905  0.00  0.00    +0.000 A 
ATOM     13  C   UNL     1       1.138  14.900  19.039  0.00  0.00    +0.000 A 
ATOM     14  C   UNL     1       1.967  14.096  19.810  0.00  0.00    +0.000 A 
ATOM     15  C   UNL     1       1.552  12.800  20.098  0.00  0.00    +0.000 A 
ATOM     16  C   UNL     1       0.353  12.356  19.504  0.00  0.00    +0.000 A 
ENDBRANCH   1   3
BRANCH   1  22
ATOM     17  C   UNL     1       1.396   8.587  19.995  0.00  0.00    +0.000 A 
ATOM     18  C   UNL     1       1.960   7.366  20.374  0.00  0.00    +0.000 A 
ATOM     19  C   UNL     1       2.703   6.589  19.487  0.00  0.00    +0.000 A 
ATOM     20  C   UNL     1       2.829   6.986  18.168  0.00  0.00    +0.000 A 
ATOM     21  C   UNL     1       2.226   8.177  17.755  0.00  0.00    +0.000 A 
ATOM     22  C   UNL     1       1.611   9.050  18.667  0.00  0.00    +0.000 A 
BRANCH  17  24
ATOM     23  C   UNL     1       1.006   9.405  22.136  0.00  0.00    +0.000 C 
ATOM     24  N   UNL     1       0.637   9.375  20.895  0.00  0.00    +0.000 NA
ENDBRANCH  17  24
BRANCH  19  25
ATOM     25  N   UNL     1       3.363   5.408  19.955  0.00  0.00    +0.000 N 
ATOM     26  H   UNL     1       4.182   5.134  19.400  0.00  0.00    +0.000 HD
BRANCH  25  27
ATOM     27  S   UNL     1       2.405   4.047  20.253  0.00  0.00    +0.000 S 
ATOM     28  C   UNL     1       3.514   2.747  19.760  0.00  0.00    +0.000 C 
ATOM     29  O   UNL     1       2.143   3.924  21.677  0.00  0.00    +0.000 OA
ATOM     30  O   UNL     1       1.330   4.106  19.294  0.00  0.00    +0.000 OA
ENDBRANCH  25  27
ENDBRANCH  19  25
ENDBRANCH   1  22
TORSDOF 5
ENDMDL
