MODEL 1
REMARK VINA RESULT:      -7.3      0.000      0.000
REMARK  Name = 
REMARK  11 active torsions:
REMARK  status: ('A' for Active; 'I' for Inactive)
REMARK    1  A    between atoms: C_1  and  C_2
REMARK    2  A    between atoms: C_2  and  C_3
REMARK    3  A    between atoms: C_3  and  C_4
REMARK    4  A    between atoms: C_4  and  N_5
REMARK    5  A    between atoms: N_5  and  C_6
REMARK    6  A    between atoms: C_8  and  S_9
REMARK    7  A    between atoms: S_9  and  C_12
REMARK    8  A    between atoms: C_12  and  C_13
REMARK    9  A    between atoms: C_15  and  S_16
REMARK   10  A    between atoms: S_16  and  C_19
REMARK   11  A    between atoms: C_22  and  C_23
REMARK                            x       y       z     vdW  Elec       q    Type
REMARK                         _______ _______ _______ _____ _____    ______ ____
ROOT
ATOM      1  C   UNL     1       4.069   6.185  18.044  0.00  0.00    +0.000 A 
ATOM      2  S   UNL     1       3.003   5.257  19.053  0.00  0.00    +0.000 S 
ATOM      3  C   UNL     1       4.094   3.959  19.056  0.00  0.00    +0.000 A 
ATOM      4  N   UNL     1       5.185   4.105  18.342  0.00  0.00    +0.000 NA
ATOM      5  C   UNL     1       5.191   5.392  17.776  0.00  0.00    +0.000 A 
ENDROOT
BRANCH   3   6
ATOM      6  S   UNL     1       3.635   2.537  20.003  0.00  0.00    +0.000 S 
ATOM      7  O   UNL     1       2.725   1.774  19.169  0.00  0.00    +0.000 OA
ATOM      8  O   UNL     1       4.879   1.978  20.498  0.00  0.00    +0.000 OA
BRANCH   6   9
ATOM      9  C   UNL     1       2.729   3.223  21.373  0.00  0.00    +0.000 C 
ATOM     10  C   UNL     1       1.278   2.785  21.346  0.00  0.00    +0.000 C 
ENDBRANCH   6   9
ENDBRANCH   3   6
BRANCH   5  11
ATOM     11  S   UNL     1       6.579   5.917  16.851  0.00  0.00    +0.000 S 
ATOM     12  O   UNL     1       6.391   7.352  16.686  0.00  0.00    +0.000 OA
ATOM     13  O   UNL     1       7.736   5.373  17.532  0.00  0.00    +0.000 OA
BRANCH  11  14
ATOM     14  C   UNL     1       6.456   5.145  15.266  0.00  0.00    +0.000 A 
ATOM     15  C   UNL     1       7.502   5.292  14.346  0.00  0.00    +0.000 A 
ATOM     16  C   UNL     1       7.447   4.617  13.128  0.00  0.00    +0.000 A 
ATOM     17  C   UNL     1       6.358   3.791  12.820  0.00  0.00    +0.000 A 
ATOM     18  C   UNL     1       6.309   3.047  11.516  0.00  0.00    +0.000 C 
ATOM     19  C   UNL     1       5.321   3.650  13.751  0.00  0.00    +0.000 A 
ATOM     20  C   UNL     1       5.366   4.319  14.976  0.00  0.00    +0.000 A 
ENDBRANCH  11  14
ENDBRANCH   5  11
BRANCH   1  21
ATOM     21  N   UNL     1       3.766   7.464  17.636  0.00  0.00    +0.000 N 
ATOM     22  H   UNL     1       4.375   8.208  17.995  0.00  0.00    +0.000 HD
BRANCH  21  23
ATOM     23  C   UNL     1       2.359   7.877  17.603  0.00  0.00    +0.000 C 
BRANCH  23  24
ATOM     24  C   UNL     1       2.176   9.357  17.930  0.00  0.00    +0.000 C 
BRANCH  24  26
ATOM     25  C   UNL     1       0.389  10.709  19.135  0.00  0.00    +0.000 C 
ATOM     26  C   UNL     1       0.679   9.659  18.079  0.00  0.00    +0.000 C 
ENDBRANCH  24  26
ENDBRANCH  23  24
ENDBRANCH  21  23
ENDBRANCH   1  21
TORSDOF 8
ENDMDL
MODEL 2
REMARK VINA RESULT:      -7.1      1.191      1.670
REMARK  Name = 
REMARK  11 active torsions:
REMARK  status: ('A' for Active; 'I' for Inactive)
REMARK    1  A    between atoms: C_1  and  C_2
REMARK    2  A    between atoms: C_2  and  C_3
REMARK    3  A    between atoms: C_3  and  C_4
REMARK    4  A    between atoms: C_4  and  N_5
REMARK    5  A    between atoms: N_5  and  C_6
REMARK    6  A    between atoms: C_8  and  S_9
REMARK    7  A    between atoms: S_9  and  C_12
REMARK    8  A    between atoms: C_12  and  C_13
REMARK    9  A    between atoms: C_15  and  S_16
REMARK   10  A    between atoms: S_16  and  C_19
REMARK   11  A    between atoms: C_22  and  C_23
REMARK                            x       y       z     vdW  Elec       q    Type
REMARK                         _______ _______ _______ _____ _____    ______ ____
ROOT
ATOM      1  C   UNL     1       3.685   6.365  18.417  0.00  0.00    +0.000 A 
ATOM      2  S   UNL     1       2.462   5.598  19.380  0.00  0.00    +0.000 S 
ATOM      3  C   UNL     1       3.501   4.300  19.712  0.00  0.00    +0.000 A 
ATOM      4  N   UNL     1       4.686   4.335  19.148  0.00  0.00    +0.000 NA
ATOM      5  C   UNL     1       4.809   5.532  18.420  0.00  0.00    +0.000 A 
ENDROOT
BRANCH   3   6
ATOM      6  S   UNL     1       2.872   3.027  20.768  0.00  0.00    +0.000 S 
ATOM      7  O   UNL     1       4.005   2.182  21.098  0.00  0.00    +0.000 OA
ATOM      8  O   UNL     1       2.098   3.710  21.786  0.00  0.00    +0.000 OA
BRANCH   6   9
ATOM      9  C   UNL     1       1.761   2.122  19.713  0.00  0.00    +0.000 C 
ATOM     10  C   UNL     1       2.285   2.058  18.291  0.00  0.00    +0.000 C 
ENDBRANCH   6   9
ENDBRANCH   3   6
BRANCH   5  11
ATOM     11  S   UNL     1       6.327   5.909  17.640  0.00  0.00    +0.000 S 
ATOM     12  O   UNL     1       6.281   7.348  17.417  0.00  0.00    +0.000 OA
ATOM     13  O   UNL     1       7.355   5.296  18.457  0.00  0.00    +0.000 OA
BRANCH  11  14
ATOM     14  C   UNL     1       6.310   5.094  16.071  0.00  0.00    +0.000 A 
ATOM     15  C   UNL     1       5.200   4.322  15.709  0.00  0.00    +0.000 A 
ATOM     16  C   UNL     1       5.146   3.746  14.440  0.00  0.00    +0.000 A 
ATOM     17  C   UNL     1       6.191   3.938  13.527  0.00  0.00    +0.000 A 
ATOM     18  C   UNL     1       6.123   3.336  12.153  0.00  0.00    +0.000 C 
ATOM     19  C   UNL     1       7.294   4.717  13.901  0.00  0.00    +0.000 A 
ATOM     20  C   UNL     1       7.358   5.300  15.168  0.00  0.00    +0.000 A 
ENDBRANCH  11  14
ENDBRANCH   5  11
BRANCH   1  21
ATOM     21  N   UNL     1       3.482   7.580  17.801  0.00  0.00    +0.000 N 
ATOM     22  H   UNL     1       4.140   8.327  18.049  0.00  0.00    +0.000 HD
BRANCH  21  23
ATOM     23  C   UNL     1       2.109   8.080  17.672  0.00  0.00    +0.000 C 
BRANCH  23  24
ATOM     24  C   UNL     1       2.004   9.579  17.950  0.00  0.00    +0.000 C 
BRANCH  24  26
ATOM     25  C   UNL     1       0.293   9.929  19.800  0.00  0.00    +0.000 C 
ATOM     26  C   UNL     1       0.552   9.925  18.305  0.00  0.00    +0.000 C 
ENDBRANCH  24  26
ENDBRANCH  23  24
ENDBRANCH  21  23
ENDBRANCH   1  21
TORSDOF 8
ENDMDL
MODEL 3
REMARK VINA RESULT:      -7.0      1.324      1.532
REMARK  Name = 
REMARK  11 active torsions:
REMARK  status: ('A' for Active; 'I' for Inactive)
REMARK    1  A    between atoms: C_1  and  C_2
REMARK    2  A    between atoms: C_2  and  C_3
REMARK    3  A    between atoms: C_3  and  C_4
REMARK    4  A    between atoms: C_4  and  N_5
REMARK    5  A    between atoms: N_5  and  C_6
REMARK    6  A    between atoms: C_8  and  S_9
REMARK    7  A    between atoms: S_9  and  C_12
REMARK    8  A    between atoms: C_12  and  C_13
REMARK    9  A    between atoms: C_15  and  S_16
REMARK   10  A    between atoms: S_16  and  C_19
REMARK   11  A    between atoms: C_22  and  C_23
REMARK                            x       y       z     vdW  Elec       q    Type
REMARK                         _______ _______ _______ _____ _____    ______ ____
ROOT
ATOM      1  C   UNL     1       3.609   6.269  18.478  0.00  0.00    +0.000 A 
ATOM      2  S   UNL     1       2.288   5.564  19.357  0.00  0.00    +0.000 S 
ATOM      3  C   UNL     1       3.226   4.199  19.723  0.00  0.00    +0.000 A 
ATOM      4  N   UNL     1       4.440   4.169  19.226  0.00  0.00    +0.000 NA
ATOM      5  C   UNL     1       4.677   5.367  18.529  0.00  0.00    +0.000 A 
ENDROOT
BRANCH   3   6
ATOM      6  S   UNL     1       2.461   2.952  20.718  0.00  0.00    +0.000 S 
ATOM      7  O   UNL     1       3.529   2.342  21.488  0.00  0.00    +0.000 OA
ATOM      8  O   UNL     1       1.326   3.596  21.350  0.00  0.00    +0.000 OA
BRANCH   6   9
ATOM      9  C   UNL     1       1.862   1.776  19.524  0.00  0.00    +0.000 C 
ATOM     10  C   UNL     1       1.983   2.318  18.113  0.00  0.00    +0.000 C 
ENDBRANCH   6   9
ENDBRANCH   3   6
BRANCH   5  11
ATOM     11  S   UNL     1       6.257   5.661  17.840  0.00  0.00    +0.000 S 
ATOM     12  O   UNL     1       6.382   7.112  17.809  0.00  0.00    +0.000 OA
ATOM     13  O   UNL     1       7.176   4.832  18.593  0.00  0.00    +0.000 OA
BRANCH  11  14
ATOM     14  C   UNL     1       6.209   5.062  16.178  0.00  0.00    +0.000 A 
ATOM     15  C   UNL     1       7.288   5.318  15.323  0.00  0.00    +0.000 A 
ATOM     16  C   UNL     1       7.291   4.778  14.037  0.00  0.00    +0.000 A 
ATOM     17  C   UNL     1       6.227   3.978  13.599  0.00  0.00    +0.000 A 
ATOM     18  C   UNL     1       6.240   3.379  12.222  0.00  0.00    +0.000 C 
ATOM     19  C   UNL     1       5.156   3.727  14.467  0.00  0.00    +0.000 A 
ATOM     20  C   UNL     1       5.143   4.262  15.756  0.00  0.00    +0.000 A 
ENDBRANCH  11  14
ENDBRANCH   5  11
BRANCH   1  21
ATOM     21  N   UNL     1       3.515   7.503  17.875  0.00  0.00    +0.000 N 
ATOM     22  H   UNL     1       4.212   8.199  18.162  0.00  0.00    +0.000 HD
BRANCH  21  23
ATOM     23  C   UNL     1       2.186   8.099  17.699  0.00  0.00    +0.000 C 
BRANCH  23  24
ATOM     24  C   UNL     1       2.185   9.607  17.938  0.00  0.00    +0.000 C 
BRANCH  24  26
ATOM     25  C   UNL     1       0.669   9.507  19.978  0.00  0.00    +0.000 C 
ATOM     26  C   UNL     1       0.844  10.018  18.560  0.00  0.00    +0.000 C 
ENDBRANCH  24  26
ENDBRANCH  23  24
ENDBRANCH  21  23
ENDBRANCH   1  21
TORSDOF 8
ENDMDL
MODEL 4
REMARK VINA RESULT:      -6.9      0.918      1.058
REMARK  Name = 
REMARK  11 active torsions:
REMARK  status: ('A' for Active; 'I' for Inactive)
REMARK    1  A    between atoms: C_1  and  C_2
REMARK    2  A    between atoms: C_2  and  C_3
REMARK    3  A    between atoms: C_3  and  C_4
REMARK    4  A    between atoms: C_4  and  N_5
REMARK    5  A    between atoms: N_5  and  C_6
REMARK    6  A    between atoms: C_8  and  S_9
REMARK    7  A    between atoms: S_9  and  C_12
REMARK    8  A    between atoms: C_12  and  C_13
REMARK    9  A    between atoms: C_15  and  S_16
REMARK   10  A    between atoms: S_16  and  C_19
REMARK   11  A    between atoms: C_22  and  C_23
REMARK                            x       y       z     vdW  Elec       q    Type
REMARK                         _______ _______ _______ _____ _____    ______ ____
ROOT
ATOM      1  C   UNL     1       4.076   6.301  18.105  0.00  0.00    +0.000 A 
ATOM      2  S   UNL     1       2.979   5.429  19.129  0.00  0.00    +0.000 S 
ATOM      3  C   UNL     1       4.039   4.107  19.182  0.00  0.00    +0.000 A 
ATOM      4  N   UNL     1       5.141   4.207  18.477  0.00  0.00    +0.000 NA
ATOM      5  C   UNL     1       5.182   5.477  17.874  0.00  0.00    +0.000 A 
ENDROOT
BRANCH   3   6
ATOM      6  S   UNL     1       3.537   2.724  20.166  0.00  0.00    +0.000 S 
ATOM      7  O   UNL     1       4.751   1.995  20.483  0.00  0.00    +0.000 OA
ATOM      8  O   UNL     1       2.674   3.269  21.197  0.00  0.00    +0.000 OA
BRANCH   6   9
ATOM      9  C   UNL     1       2.551   1.753  19.047  0.00  0.00    +0.000 C 
ATOM     10  C   UNL     1       1.125   2.263  18.989  0.00  0.00    +0.000 C 
ENDBRANCH   6   9
ENDBRANCH   3   6
BRANCH   5  11
ATOM     11  S   UNL     1       6.592   5.942  16.950  0.00  0.00    +0.000 S 
ATOM     12  O   UNL     1       6.459   7.382  16.774  0.00  0.00    +0.000 OA
ATOM     13  O   UNL     1       7.725   5.359  17.637  0.00  0.00    +0.000 OA
BRANCH  11  14
ATOM     14  C   UNL     1       6.444   5.164  15.369  0.00  0.00    +0.000 A 
ATOM     15  C   UNL     1       7.486   5.287  14.442  0.00  0.00    +0.000 A 
ATOM     16  C   UNL     1       7.411   4.607  13.227  0.00  0.00    +0.000 A 
ATOM     17  C   UNL     1       6.305   3.800  12.931  0.00  0.00    +0.000 A 
ATOM     18  C   UNL     1       6.234   3.051  11.631  0.00  0.00    +0.000 C 
ATOM     19  C   UNL     1       5.271   3.683  13.870  0.00  0.00    +0.000 A 
ATOM     20  C   UNL     1       5.337   4.358  15.090  0.00  0.00    +0.000 A 
ENDBRANCH  11  14
ENDBRANCH   5  11
BRANCH   1  21
ATOM     21  N   UNL     1       3.807   7.575  17.656  0.00  0.00    +0.000 N 
ATOM     22  H   UNL     1       4.384   8.325  18.054  0.00  0.00    +0.000 HD
BRANCH  21  23
ATOM     23  C   UNL     1       2.408   7.985  17.503  0.00  0.00    +0.000 C 
BRANCH  23  24
ATOM     24  C   UNL     1       1.925   8.861  18.658  0.00  0.00    +0.000 C 
BRANCH  24  26
ATOM     25  C   UNL     1       0.740  11.106  18.816  0.00  0.00    +0.000 C 
ATOM     26  C   UNL     1       0.756   9.730  18.177  0.00  0.00    +0.000 C 
ENDBRANCH  24  26
ENDBRANCH  23  24
ENDBRANCH  21  23
ENDBRANCH   1  21
TORSDOF 8
ENDMDL
MODEL 5
REMARK VINA RESULT:      -6.8      0.585      1.153
REMARK  Name = 
REMARK  11 active torsions:
REMARK  status: ('A' for Active; 'I' for Inactive)
REMARK    1  A    between atoms: C_1  and  C_2
REMARK    2  A    between atoms: C_2  and  C_3
REMARK    3  A    between atoms: C_3  and  C_4
REMARK    4  A    between atoms: C_4  and  N_5
REMARK    5  A    between atoms: N_5  and  C_6
REMARK    6  A    between atoms: C_8  and  S_9
REMARK    7  A    between atoms: S_9  and  C_12
REMARK    8  A    between atoms: C_12  and  C_13
REMARK    9  A    between atoms: C_15  and  S_16
REMARK   10  A    between atoms: S_16  and  C_19
REMARK   11  A    between atoms: C_22  and  C_23
REMARK                            x       y       z     vdW  Elec       q    Type
REMARK                         _______ _______ _______ _____ _____    ______ ____
ROOT
ATOM      1  C   UNL     1       3.816   6.052  17.955  0.00  0.00    +0.000 A 
ATOM      2  S   UNL     1       2.722   5.020  18.821  0.00  0.00    +0.000 S 
ATOM      3  C   UNL     1       3.860   3.763  18.813  0.00  0.00    +0.000 A 
ATOM      4  N   UNL     1       4.991   3.997  18.190  0.00  0.00    +0.000 NA
ATOM      5  C   UNL     1       4.984   5.320  17.714  0.00  0.00    +0.000 A 
ENDROOT
BRANCH   3   6
ATOM      6  S   UNL     1       3.394   2.263  19.628  0.00  0.00    +0.000 S 
ATOM      7  O   UNL     1       3.402   1.232  18.608  0.00  0.00    +0.000 OA
ATOM      8  O   UNL     1       4.231   2.184  20.810  0.00  0.00    +0.000 OA
BRANCH   6   9
ATOM      9  C   UNL     1       1.715   2.568  20.134  0.00  0.00    +0.000 C 
ATOM     10  C   UNL     1       1.610   2.688  21.642  0.00  0.00    +0.000 C 
ENDBRANCH   6   9
ENDBRANCH   3   6
BRANCH   5  11
ATOM     11  S   UNL     1       6.409   5.955  16.926  0.00  0.00    +0.000 S 
ATOM     12  O   UNL     1       6.107   7.361  16.694  0.00  0.00    +0.000 OA
ATOM     13  O   UNL     1       7.531   5.542  17.744  0.00  0.00    +0.000 OA
BRANCH  11  14
ATOM     14  C   UNL     1       6.535   5.139  15.363  0.00  0.00    +0.000 A 
ATOM     15  C   UNL     1       5.512   4.275  14.954  0.00  0.00    +0.000 A 
ATOM     16  C   UNL     1       5.567   3.694  13.688  0.00  0.00    +0.000 A 
ATOM     17  C   UNL     1       6.634   3.972  12.823  0.00  0.00    +0.000 A 
ATOM     18  C   UNL     1       6.682   3.363  11.451  0.00  0.00    +0.000 C 
ATOM     19  C   UNL     1       7.648   4.842  13.244  0.00  0.00    +0.000 A 
ATOM     20  C   UNL     1       7.603   5.431  14.509  0.00  0.00    +0.000 A 
ENDBRANCH  11  14
ENDBRANCH   5  11
BRANCH   1  21
ATOM     21  N   UNL     1       3.492   7.346  17.613  0.00  0.00    +0.000 N 
ATOM     22  H   UNL     1       4.265   7.931  17.276  0.00  0.00    +0.000 HD
BRANCH  21  23
ATOM     23  C   UNL     1       2.581   8.094  18.485  0.00  0.00    +0.000 C 
BRANCH  23  24
ATOM     24  C   UNL     1       1.608   8.971  17.699  0.00  0.00    +0.000 C 
BRANCH  24  26
ATOM     25  C   UNL     1       0.376   9.907  19.718  0.00  0.00    +0.000 C 
ATOM     26  C   UNL     1       1.267  10.216  18.529  0.00  0.00    +0.000 C 
ENDBRANCH  24  26
ENDBRANCH  23  24
ENDBRANCH  21  23
ENDBRANCH   1  21
TORSDOF 8
ENDMDL
MODEL 6
REMARK VINA RESULT:      -6.8      1.977      4.448
REMARK  Name = 
REMARK  11 active torsions:
REMARK  status: ('A' for Active; 'I' for Inactive)
REMARK    1  A    between atoms: C_1  and  C_2
REMARK    2  A    between atoms: C_2  and  C_3
REMARK    3  A    between atoms: C_3  and  C_4
REMARK    4  A    between atoms: C_4  and  N_5
REMARK    5  A    between atoms: N_5  and  C_6
REMARK    6  A    between atoms: C_8  and  S_9
REMARK    7  A    between atoms: S_9  and  C_12
REMARK    8  A    between atoms: C_12  and  C_13
REMARK    9  A    between atoms: C_15  and  S_16
REMARK   10  A    between atoms: S_16  and  C_19
REMARK   11  A    between atoms: C_22  and  C_23
REMARK                            x       y       z     vdW  Elec       q    Type
REMARK                         _______ _______ _______ _____ _____    ______ ____
ROOT
ATOM      1  C   UNL     1       4.876   4.978  18.694  0.00  0.00    +0.000 A 
ATOM      2  S   UNL     1       3.359   5.656  19.197  0.00  0.00    +0.000 S 
ATOM      3  C   UNL     1       3.573   6.975  18.155  0.00  0.00    +0.000 A 
ATOM      4  N   UNL     1       4.693   7.010  17.471  0.00  0.00    +0.000 NA
ATOM      5  C   UNL     1       5.437   5.852  17.757  0.00  0.00    +0.000 A 
ENDROOT
BRANCH   3   6
ATOM      6  S   UNL     1       2.274   8.176  18.113  0.00  0.00    +0.000 S 
ATOM      7  O   UNL     1       2.877   9.405  17.633  0.00  0.00    +0.000 OA
ATOM      8  O   UNL     1       1.172   7.536  17.420  0.00  0.00    +0.000 OA
BRANCH   6   9
ATOM      9  C   UNL     1       1.835   8.374  19.827  0.00  0.00    +0.000 C 
ATOM     10  C   UNL     1       0.833   9.498  20.009  0.00  0.00    +0.000 C 
ENDBRANCH   6   9
ENDBRANCH   3   6
BRANCH   5  11
ATOM     11  S   UNL     1       6.940   5.567  16.910  0.00  0.00    +0.000 S 
ATOM     12  O   UNL     1       7.507   6.894  16.707  0.00  0.00    +0.000 OA
ATOM     13  O   UNL     1       7.635   4.549  17.670  0.00  0.00    +0.000 OA
BRANCH  11  14
ATOM     14  C   UNL     1       6.516   4.887  15.335  0.00  0.00    +0.000 A 
ATOM     15  C   UNL     1       7.428   4.982  14.276  0.00  0.00    +0.000 A 
ATOM     16  C   UNL     1       7.133   4.375  13.056  0.00  0.00    +0.000 A 
ATOM     17  C   UNL     1       5.936   3.668  12.885  0.00  0.00    +0.000 A 
ATOM     18  C   UNL     1       5.627   2.996  11.577  0.00  0.00    +0.000 C 
ATOM     19  C   UNL     1       5.034   3.577  13.954  0.00  0.00    +0.000 A 
ATOM     20  C   UNL     1       5.320   4.180  15.180  0.00  0.00    +0.000 A 
ENDBRANCH  11  14
ENDBRANCH   5  11
BRANCH   1  21
ATOM     21  N   UNL     1       5.349   3.785  19.193  0.00  0.00    +0.000 N 
ATOM     22  H   UNL     1       6.272   3.490  18.855  0.00  0.00    +0.000 HD
BRANCH  21  23
ATOM     23  C   UNL     1       4.422   2.655  19.309  0.00  0.00    +0.000 C 
BRANCH  23  24
ATOM     24  C   UNL     1       3.802   2.267  17.967  0.00  0.00    +0.000 C 
BRANCH  24  26
ATOM     25  C   UNL     1       1.839   2.238  19.584  0.00  0.00    +0.000 C 
ATOM     26  C   UNL     1       2.286   2.107  18.140  0.00  0.00    +0.000 C 
ENDBRANCH  24  26
ENDBRANCH  23  24
ENDBRANCH  21  23
ENDBRANCH   1  21
TORSDOF 8
ENDMDL
MODEL 7
REMARK VINA RESULT:      -6.6      3.203      6.973
REMARK  Name = 
REMARK  11 active torsions:
REMARK  status: ('A' for Active; 'I' for Inactive)
REMARK    1  A    between atoms: C_1  and  C_2
REMARK    2  A    between atoms: C_2  and  C_3
REMARK    3  A    between atoms: C_3  and  C_4
REMARK    4  A    between atoms: C_4  and  N_5
REMARK    5  A    between atoms: N_5  and  C_6
REMARK    6  A    between atoms: C_8  and  S_9
REMARK    7  A    between atoms: S_9  and  C_12
REMARK    8  A    between atoms: C_12  and  C_13
REMARK    9  A    between atoms: C_15  and  S_16
REMARK   10  A    between atoms: S_16  and  C_19
REMARK   11  A    between atoms: C_22  and  C_23
REMARK                            x       y       z     vdW  Elec       q    Type
REMARK                         _______ _______ _______ _____ _____    ______ ____
ROOT
ATOM      1  C   UNL     1       3.772   4.412  17.912  0.00  0.00    +0.000 A 
ATOM      2  S   UNL     1       5.439   4.241  17.460  0.00  0.00    +0.000 S 
ATOM      3  C   UNL     1       5.924   5.161  18.798  0.00  0.00    +0.000 A 
ATOM      4  N   UNL     1       4.969   5.640  19.560  0.00  0.00    +0.000 NA
ATOM      5  C   UNL     1       3.728   5.194  19.072  0.00  0.00    +0.000 A 
ENDROOT
BRANCH   3   6
ATOM      6  S   UNL     1       7.664   5.395  19.015  0.00  0.00    +0.000 S 
ATOM      7  O   UNL     1       7.903   5.339  20.445  0.00  0.00    +0.000 OA
ATOM      8  O   UNL     1       8.301   4.476  18.091  0.00  0.00    +0.000 OA
BRANCH   6   9
ATOM      9  C   UNL     1       7.935   7.060  18.446  0.00  0.00    +0.000 C 
ATOM     10  C   UNL     1       7.076   7.372  17.235  0.00  0.00    +0.000 C 
ENDBRANCH   6   9
ENDBRANCH   3   6
BRANCH   5  11
ATOM     11  S   UNL     1       2.268   5.589  19.948  0.00  0.00    +0.000 S 
ATOM     12  O   UNL     1       1.227   4.800  19.305  0.00  0.00    +0.000 OA
ATOM     13  O   UNL     1       2.593   5.426  21.350  0.00  0.00    +0.000 OA
BRANCH  11  14
ATOM     14  C   UNL     1       1.944   7.302  19.652  0.00  0.00    +0.000 A 
ATOM     15  C   UNL     1       2.209   7.844  18.389  0.00  0.00    +0.000 A 
ATOM     16  C   UNL     1       1.877   9.172  18.126  0.00  0.00    +0.000 A 
ATOM     17  C   UNL     1       1.277   9.965  19.114  0.00  0.00    +0.000 A 
ATOM     18  C   UNL     1       0.900  11.389  18.824  0.00  0.00    +0.000 C 
ATOM     19  C   UNL     1       1.013   9.407  20.372  0.00  0.00    +0.000 A 
ATOM     20  C   UNL     1       1.339   8.078  20.646  0.00  0.00    +0.000 A 
ENDBRANCH  11  14
ENDBRANCH   5  11
BRANCH   1  21
ATOM     21  N   UNL     1       2.751   3.840  17.187  0.00  0.00    +0.000 N 
ATOM     22  H   UNL     1       1.840   4.310  17.241  0.00  0.00    +0.000 HD
BRANCH  21  23
ATOM     23  C   UNL     1       2.614   2.380  17.198  0.00  0.00    +0.000 C 
BRANCH  23  24
ATOM     24  C   UNL     1       2.508   1.814  18.613  0.00  0.00    +0.000 C 
BRANCH  24  26
ATOM     25  C   UNL     1       4.498   1.790  20.198  0.00  0.00    +0.000 C 
ATOM     26  C   UNL     1       3.839   1.150  18.991  0.00  0.00    +0.000 C 
ENDBRANCH  24  26
ENDBRANCH  23  24
ENDBRANCH  21  23
ENDBRANCH   1  21
TORSDOF 8
ENDMDL
MODEL 8
REMARK VINA RESULT:      -6.6      2.758      6.896
REMARK  Name = 
REMARK  11 active torsions:
REMARK  status: ('A' for Active; 'I' for Inactive)
REMARK    1  A    between atoms: C_1  and  C_2
REMARK    2  A    between atoms: C_2  and  C_3
REMARK    3  A    between atoms: C_3  and  C_4
REMARK    4  A    between atoms: C_4  and  N_5
REMARK    5  A    between atoms: N_5  and  C_6
REMARK    6  A    between atoms: C_8  and  S_9
REMARK    7  A    between atoms: S_9  and  C_12
REMARK    8  A    between atoms: C_12  and  C_13
REMARK    9  A    between atoms: C_15  and  S_16
REMARK   10  A    between atoms: S_16  and  C_19
REMARK   11  A    between atoms: C_22  and  C_23
REMARK                            x       y       z     vdW  Elec       q    Type
REMARK                         _______ _______ _______ _____ _____    ______ ____
ROOT
ATOM      1  C   UNL     1       3.486   4.083  17.366  0.00  0.00    +0.000 A 
ATOM      2  S   UNL     1       4.989   3.940  16.510  0.00  0.00    +0.000 S 
ATOM      3  C   UNL     1       5.675   5.169  17.455  0.00  0.00    +0.000 A 
ATOM      4  N   UNL     1       4.893   5.733  18.345  0.00  0.00    +0.000 NA
ATOM      5  C   UNL     1       3.639   5.098  18.318  0.00  0.00    +0.000 A 
ENDROOT
BRANCH   3   6
ATOM      6  S   UNL     1       7.366   5.574  17.128  0.00  0.00    +0.000 S 
ATOM      7  O   UNL     1       8.136   4.391  17.464  0.00  0.00    +0.000 OA
ATOM      8  O   UNL     1       7.381   6.151  15.797  0.00  0.00    +0.000 OA
BRANCH   6   9
ATOM      9  C   UNL     1       7.724   6.854  18.312  0.00  0.00    +0.000 C 
ATOM     10  C   UNL     1       7.805   8.213  17.642  0.00  0.00    +0.000 C 
ENDBRANCH   6   9
ENDBRANCH   3   6
BRANCH   5  11
ATOM     11  S   UNL     1       2.413   5.568  19.473  0.00  0.00    +0.000 S 
ATOM     12  O   UNL     1       1.218   4.847  19.056  0.00  0.00    +0.000 OA
ATOM     13  O   UNL     1       3.006   5.371  20.780  0.00  0.00    +0.000 OA
BRANCH  11  14
ATOM     14  C   UNL     1       2.137   7.299  19.247  0.00  0.00    +0.000 A 
ATOM     15  C   UNL     1       2.368   7.875  17.991  0.00  0.00    +0.000 A 
ATOM     16  C   UNL     1       2.073   9.221  17.786  0.00  0.00    +0.000 A 
ATOM     17  C   UNL     1       1.543  10.000  18.824  0.00  0.00    +0.000 A 
ATOM     18  C   UNL     1       1.204  11.445  18.597  0.00  0.00    +0.000 C 
ATOM     19  C   UNL     1       1.313   9.409  20.074  0.00  0.00    +0.000 A 
ATOM     20  C   UNL     1       1.603   8.061  20.290  0.00  0.00    +0.000 A 
ENDBRANCH  11  14
ENDBRANCH   5  11
BRANCH   1  21
ATOM     21  N   UNL     1       2.398   3.289  17.080  0.00  0.00    +0.000 N 
ATOM     22  H   UNL     1       1.509   3.780  16.931  0.00  0.00    +0.000 HD
BRANCH  21  23
ATOM     23  C   UNL     1       2.217   2.046  17.837  0.00  0.00    +0.000 C 
BRANCH  23  24
ATOM     24  C   UNL     1       3.502   1.589  18.526  0.00  0.00    +0.000 C 
BRANCH  24  26
ATOM     25  C   UNL     1       2.023   2.019  20.550  0.00  0.00    +0.000 C 
ATOM     26  C   UNL     1       3.440   1.970  20.011  0.00  0.00    +0.000 C 
ENDBRANCH  24  26
ENDBRANCH  23  24
ENDBRANCH  21  23
ENDBRANCH   1  21
TORSDOF 8
ENDMDL
MODEL 9
REMARK VINA RESULT:      -6.6      2.490      3.855
REMARK  Name = 
REMARK  11 active torsions:
REMARK  status: ('A' for Active; 'I' for Inactive)
REMARK    1  A    between atoms: C_1  and  C_2
REMARK    2  A    between atoms: C_2  and  C_3
REMARK    3  A    between atoms: C_3  and  C_4
REMARK    4  A    between atoms: C_4  and  N_5
REMARK    5  A    between atoms: N_5  and  C_6
REMARK    6  A    between atoms: C_8  and  S_9
REMARK    7  A    between atoms: S_9  and  C_12
REMARK    8  A    between atoms: C_12  and  C_13
REMARK    9  A    between atoms: C_15  and  S_16
REMARK   10  A    between atoms: S_16  and  C_19
REMARK   11  A    between atoms: C_22  and  C_23
REMARK                            x       y       z     vdW  Elec       q    Type
REMARK                         _______ _______ _______ _____ _____    ______ ____
ROOT
ATOM      1  C   UNL     1       3.946   6.006  17.735  0.00  0.00    +0.000 A 
ATOM      2  S   UNL     1       2.896   5.044  18.727  0.00  0.00    +0.000 S 
ATOM      3  C   UNL     1       3.954   3.724  18.613  0.00  0.00    +0.000 A 
ATOM      4  N   UNL     1       5.023   3.889  17.870  0.00  0.00    +0.000 NA
ATOM      5  C   UNL     1       5.039   5.207  17.380  0.00  0.00    +0.000 A 
ENDROOT
BRANCH   3   6
ATOM      6  S   UNL     1       3.496   2.259  19.492  0.00  0.00    +0.000 S 
ATOM      7  O   UNL     1       3.444   1.197  18.505  0.00  0.00    +0.000 OA
ATOM      8  O   UNL     1       4.379   2.199  20.642  0.00  0.00    +0.000 OA
BRANCH   6   9
ATOM      9  C   UNL     1       1.845   2.610  20.056  0.00  0.00    +0.000 C 
ATOM     10  C   UNL     1       1.792   2.717  21.567  0.00  0.00    +0.000 C 
ENDBRANCH   6   9
ENDBRANCH   3   6
BRANCH   5  11
ATOM     11  S   UNL     1       6.404   5.756  16.436  0.00  0.00    +0.000 S 
ATOM     12  O   UNL     1       7.297   4.606  16.376  0.00  0.00    +0.000 OA
ATOM     13  O   UNL     1       5.845   6.351  15.240  0.00  0.00    +0.000 OA
BRANCH  11  14
ATOM     14  C   UNL     1       7.191   7.033  17.372  0.00  0.00    +0.000 A 
ATOM     15  C   UNL     1       7.971   6.690  18.484  0.00  0.00    +0.000 A 
ATOM     16  C   UNL     1       8.660   7.686  19.175  0.00  0.00    +0.000 A 
ATOM     17  C   UNL     1       8.581   9.023  18.762  0.00  0.00    +0.000 A 
ATOM     18  C   UNL     1       9.341  10.092  19.493  0.00  0.00    +0.000 C 
ATOM     19  C   UNL     1       7.801   9.350  17.646  0.00  0.00    +0.000 A 
ATOM     20  C   UNL     1       7.108   8.362  16.945  0.00  0.00    +0.000 A 
ENDBRANCH  11  14
ENDBRANCH   5  11
BRANCH   1  21
ATOM     21  N   UNL     1       3.660   7.314  17.414  0.00  0.00    +0.000 N 
ATOM     22  H   UNL     1       4.440   7.870  17.046  0.00  0.00    +0.000 HD
BRANCH  21  23
ATOM     23  C   UNL     1       2.818   8.093  18.328  0.00  0.00    +0.000 C 
BRANCH  23  24
ATOM     24  C   UNL     1       1.682   8.815  17.604  0.00  0.00    +0.000 C 
BRANCH  24  26
ATOM     25  C   UNL     1       0.850   9.495  19.910  0.00  0.00    +0.000 C 
ATOM     26  C   UNL     1       1.158   9.949  18.495  0.00  0.00    +0.000 C 
ENDBRANCH  24  26
ENDBRANCH  23  24
ENDBRANCH  21  23
ENDBRANCH   1  21
TORSDOF 8
ENDMDL
