MODEL 1
REMARK VINA RESULT:      -7.8      0.000      0.000
REMARK  Name = 
REMARK  6 active torsions:
REMARK  status: ('A' for Active; 'I' for Inactive)
REMARK    1  A    between atoms: C_1  and  C_2
REMARK    2  A    between atoms: C_2  and  C_3
REMARK    3  A    between atoms: C_6  and  N_7
REMARK    4  A    between atoms: C_8  and  C_10
REMARK    5  A    between atoms: C_10  and  N_11
REMARK    6  A    between atoms: C_13  and  C_14
REMARK                            x       y       z     vdW  Elec       q    Type
REMARK                         _______ _______ _______ _____ _____    ______ ____
ROOT
ATOM      1  C   UNL     1       3.180   3.826  17.196  0.00  0.00    +0.000 C 
ENDROOT
BRANCH   1   2
ATOM      2  N   UNL     1       4.551   4.266  17.064  0.00  0.00    +0.000 N 
ATOM      3  N   UNL     1       5.277   4.564  18.182  0.00  0.00    +0.000 NA
ATOM      4  C   UNL     1       6.497   4.951  17.719  0.00  0.00    +0.000 A 
ATOM      5  C   UNL     1       6.525   4.849  16.320  0.00  0.00    +0.000 A 
ATOM      6  C   UNL     1       5.295   4.400  15.947  0.00  0.00    +0.000 A 
ATOM      7  C   UNL     1       5.117   4.207  14.498  0.00  0.00    +0.000 C 
ATOM      8  C   UNL     1       6.614   4.312  14.026  0.00  0.00    +0.000 C 
ATOM      9  C   UNL     1       7.408   5.055  15.158  0.00  0.00    +0.000 C 
BRANCH   4  10
ATOM     10  C   UNL     1       7.618   5.409  18.612  0.00  0.00    +0.000 C 
ATOM     11  F   UNL     1       8.682   4.562  18.620  0.00  0.00    +0.000 F 
ATOM     12  F   UNL     1       8.093   6.629  18.240  0.00  0.00    +0.000 F 
ATOM     13  F   UNL     1       7.210   5.532  19.904  0.00  0.00    +0.000 F 
ENDBRANCH   4  10
ENDBRANCH   1   2
BRANCH   1  15
ATOM     14  N   UNL     1       2.821   6.094  18.025  0.00  0.00    +0.000 N 
ATOM     15  C   UNL     1       2.344   4.789  18.011  0.00  0.00    +0.000 C 
ATOM     16  O   UNL     1       1.360   4.376  18.620  0.00  0.00    +0.000 OA
ATOM     17  H   UNL     1       3.505   6.320  17.300  0.00  0.00    +0.000 HD
BRANCH  14  21
ATOM     18  C   UNL     1       1.024   9.363  20.033  0.00  0.00    +0.000 A 
ATOM     19  C   UNL     1       1.435   8.240  20.757  0.00  0.00    +0.000 A 
ATOM     20  C   UNL     1       2.052   7.162  20.114  0.00  0.00    +0.000 A 
ATOM     21  C   UNL     1       2.270   7.183  18.736  0.00  0.00    +0.000 A 
ATOM     22  C   UNL     1       1.920   8.333  18.019  0.00  0.00    +0.000 A 
ATOM     23  C   UNL     1       1.296   9.411  18.661  0.00  0.00    +0.000 A 
BRANCH  18  25
ATOM     24  C   UNL     1      -0.315  10.055  22.050  0.00  0.00    +0.000 C 
ATOM     25  C   UNL     1       0.303  10.488  20.730  0.00  0.00    +0.000 C 
ENDBRANCH  18  25
ENDBRANCH  14  21
ENDBRANCH   1  15
TORSDOF 5
ENDMDL
MODEL 2
REMARK VINA RESULT:      -7.7      0.143      1.256
REMARK  Name = 
REMARK  6 active torsions:
REMARK  status: ('A' for Active; 'I' for Inactive)
REMARK    1  A    between atoms: C_1  and  C_2
REMARK    2  A    between atoms: C_2  and  C_3
REMARK    3  A    between atoms: C_6  and  N_7
REMARK    4  A    between atoms: C_8  and  C_10
REMARK    5  A    between atoms: C_10  and  N_11
REMARK    6  A    between atoms: C_13  and  C_14
REMARK                            x       y       z     vdW  Elec       q    Type
REMARK                         _______ _______ _______ _____ _____    ______ ____
ROOT
ATOM      1  C   UNL     1       3.250   3.734  17.200  0.00  0.00    +0.000 C 
ENDROOT
BRANCH   1   2
ATOM      2  N   UNL     1       4.609   4.214  17.084  0.00  0.00    +0.000 N 
ATOM      3  N   UNL     1       5.319   4.515  18.211  0.00  0.00    +0.000 NA
ATOM      4  C   UNL     1       6.532   4.942  17.762  0.00  0.00    +0.000 A 
ATOM      5  C   UNL     1       6.572   4.861  16.362  0.00  0.00    +0.000 A 
ATOM      6  C   UNL     1       5.357   4.384  15.974  0.00  0.00    +0.000 A 
ATOM      7  C   UNL     1       5.194   4.207  14.521  0.00  0.00    +0.000 C 
ATOM      8  C   UNL     1       6.690   4.360  14.061  0.00  0.00    +0.000 C 
ATOM      9  C   UNL     1       7.456   5.108  15.210  0.00  0.00    +0.000 C 
BRANCH   4  10
ATOM     10  C   UNL     1       7.634   5.417  18.669  0.00  0.00    +0.000 C 
ATOM     11  F   UNL     1       7.247   5.541  19.968  0.00  0.00    +0.000 F 
ATOM     12  F   UNL     1       8.698   4.569  18.658  0.00  0.00    +0.000 F 
ATOM     13  F   UNL     1       8.108   6.634  18.287  0.00  0.00    +0.000 F 
ENDBRANCH   4  10
ENDBRANCH   1   2
BRANCH   1  15
ATOM     14  N   UNL     1       2.851   6.019  17.962  0.00  0.00    +0.000 N 
ATOM     15  C   UNL     1       2.352   4.723  17.911  0.00  0.00    +0.000 C 
ATOM     16  O   UNL     1       1.300   4.336  18.416  0.00  0.00    +0.000 OA
ATOM     17  H   UNL     1       3.613   6.223  17.313  0.00  0.00    +0.000 HD
BRANCH  14  21
ATOM     18  C   UNL     1       1.191   9.344  19.997  0.00  0.00    +0.000 A 
ATOM     19  C   UNL     1       1.327   9.373  18.606  0.00  0.00    +0.000 A 
ATOM     20  C   UNL     1       1.850   8.276  17.916  0.00  0.00    +0.000 A 
ATOM     21  C   UNL     1       2.249   7.127  18.599  0.00  0.00    +0.000 A 
ATOM     22  C   UNL     1       2.054   7.069  19.984  0.00  0.00    +0.000 A 
ATOM     23  C   UNL     1       1.536   8.171  20.678  0.00  0.00    +0.000 A 
BRANCH  18  25
ATOM     24  C   UNL     1      -0.306  10.208  21.828  0.00  0.00    +0.000 C 
ATOM     25  C   UNL     1       0.687  10.559  20.732  0.00  0.00    +0.000 C 
ENDBRANCH  18  25
ENDBRANCH  14  21
ENDBRANCH   1  15
TORSDOF 5
ENDMDL
MODEL 3
REMARK VINA RESULT:      -7.6      0.811      1.387
REMARK  Name = 
REMARK  6 active torsions:
REMARK  status: ('A' for Active; 'I' for Inactive)
REMARK    1  A    between atoms: C_1  and  C_2
REMARK    2  A    between atoms: C_2  and  C_3
REMARK    3  A    between atoms: C_6  and  N_7
REMARK    4  A    between atoms: C_8  and  C_10
REMARK    5  A    between atoms: C_10  and  N_11
REMARK    6  A    between atoms: C_13  and  C_14
REMARK                            x       y       z     vdW  Elec       q    Type
REMARK                         _______ _______ _______ _____ _____    ______ ____
ROOT
ATOM      1  C   UNL     1       3.508   3.593  18.332  0.00  0.00    +0.000 C 
ENDROOT
BRANCH   1   2
ATOM      2  N   UNL     1       4.817   4.125  18.027  0.00  0.00    +0.000 N 
ATOM      3  N   UNL     1       5.646   4.508  19.043  0.00  0.00    +0.000 NA
ATOM      4  C   UNL     1       6.771   4.966  18.428  0.00  0.00    +0.000 A 
ATOM      5  C   UNL     1       6.641   4.823  17.039  0.00  0.00    +0.000 A 
ATOM      6  C   UNL     1       5.412   4.276  16.825  0.00  0.00    +0.000 A 
ATOM      7  C   UNL     1       5.080   4.026  15.414  0.00  0.00    +0.000 C 
ATOM      8  C   UNL     1       6.498   4.222  14.763  0.00  0.00    +0.000 C 
ATOM      9  C   UNL     1       7.363   5.055  15.775  0.00  0.00    +0.000 C 
BRANCH   4  10
ATOM     10  C   UNL     1       7.952   5.530  19.170  0.00  0.00    +0.000 C 
ATOM     11  F   UNL     1       9.059   4.741  19.101  0.00  0.00    +0.000 F 
ATOM     12  F   UNL     1       8.313   6.751  18.691  0.00  0.00    +0.000 F 
ATOM     13  F   UNL     1       7.678   5.700  20.492  0.00  0.00    +0.000 F 
ENDBRANCH   4  10
ENDBRANCH   1   2
BRANCH   1  15
ATOM     14  N   UNL     1       3.024   5.962  18.671  0.00  0.00    +0.000 N 
ATOM     15  C   UNL     1       2.487   4.685  18.571  0.00  0.00    +0.000 C 
ATOM     16  O   UNL     1       1.300   4.390  18.700  0.00  0.00    +0.000 OA
ATOM     17  H   UNL     1       3.978   6.066  18.322  0.00  0.00    +0.000 HD
BRANCH  14  21
ATOM     18  C   UNL     1       1.013   9.570  19.614  0.00  0.00    +0.000 A 
ATOM     19  C   UNL     1       1.415   9.318  18.299  0.00  0.00    +0.000 A 
ATOM     20  C   UNL     1       2.058   8.122  17.965  0.00  0.00    +0.000 A 
ATOM     21  C   UNL     1       2.314   7.154  18.937  0.00  0.00    +0.000 A 
ATOM     22  C   UNL     1       1.854   7.375  20.240  0.00  0.00    +0.000 A 
ATOM     23  C   UNL     1       1.215   8.575  20.577  0.00  0.00    +0.000 A 
BRANCH  18  25
ATOM     24  C   UNL     1      -0.390  11.500  18.809  0.00  0.00    +0.000 C 
ATOM     25  C   UNL     1       0.379  10.891  19.970  0.00  0.00    +0.000 C 
ENDBRANCH  18  25
ENDBRANCH  14  21
ENDBRANCH   1  15
TORSDOF 5
ENDMDL
MODEL 4
REMARK VINA RESULT:      -7.4      5.231      6.795
REMARK  Name = 
REMARK  6 active torsions:
REMARK  status: ('A' for Active; 'I' for Inactive)
REMARK    1  A    between atoms: C_1  and  C_2
REMARK    2  A    between atoms: C_2  and  C_3
REMARK    3  A    between atoms: C_6  and  N_7
REMARK    4  A    between atoms: C_8  and  C_10
REMARK    5  A    between atoms: C_10  and  N_11
REMARK    6  A    between atoms: C_13  and  C_14
REMARK                            x       y       z     vdW  Elec       q    Type
REMARK                         _______ _______ _______ _____ _____    ______ ____
ROOT
ATOM      1  C   UNL     1       8.043   6.629  18.599  0.00  0.00    +0.000 C 
ENDROOT
BRANCH   1   2
ATOM      2  N   UNL     1       7.116   5.943  17.727  0.00  0.00    +0.000 N 
ATOM      3  N   UNL     1       7.465   5.694  16.430  0.00  0.00    +0.000 NA
ATOM      4  C   UNL     1       6.388   5.058  15.890  0.00  0.00    +0.000 A 
ATOM      5  C   UNL     1       5.401   4.885  16.871  0.00  0.00    +0.000 A 
ATOM      6  C   UNL     1       5.899   5.435  18.013  0.00  0.00    +0.000 A 
ATOM      7  C   UNL     1       5.013   5.343  19.185  0.00  0.00    +0.000 C 
ATOM      8  C   UNL     1       3.955   4.314  18.643  0.00  0.00    +0.000 C 
ATOM      9  C   UNL     1       4.053   4.326  17.076  0.00  0.00    +0.000 C 
BRANCH   4  10
ATOM     10  C   UNL     1       6.316   4.624  14.451  0.00  0.00    +0.000 C 
ATOM     11  F   UNL     1       6.503   3.287  14.281  0.00  0.00    +0.000 F 
ATOM     12  F   UNL     1       5.111   4.923  13.894  0.00  0.00    +0.000 F 
ATOM     13  F   UNL     1       7.257   5.248  13.691  0.00  0.00    +0.000 F 
ENDBRANCH   4  10
ENDBRANCH   1   2
BRANCH   1  15
ATOM     14  N   UNL     1       8.982   8.820  19.127  0.00  0.00    +0.000 N 
ATOM     15  C   UNL     1       8.146   8.105  18.279  0.00  0.00    +0.000 C 
ATOM     16  O   UNL     1       7.482   8.574  17.357  0.00  0.00    +0.000 OA
ATOM     17  H   UNL     1       9.624   8.258  19.689  0.00  0.00    +0.000 HD
BRANCH  14  21
ATOM     18  C   UNL     1       9.856  12.966  19.141  0.00  0.00    +0.000 A 
ATOM     19  C   UNL     1       9.730  12.283  17.927  0.00  0.00    +0.000 A 
ATOM     20  C   UNL     1       9.418  10.921  17.903  0.00  0.00    +0.000 A 
ATOM     21  C   UNL     1       9.227  10.211  19.089  0.00  0.00    +0.000 A 
ATOM     22  C   UNL     1       9.287  10.906  20.303  0.00  0.00    +0.000 A 
ATOM     23  C   UNL     1       9.606  12.270  20.329  0.00  0.00    +0.000 A 
BRANCH  18  25
ATOM     24  C   UNL     1       9.417  15.262  18.205  0.00  0.00    +0.000 C 
ATOM     25  C   UNL     1      10.257  14.419  19.151  0.00  0.00    +0.000 C 
ENDBRANCH  18  25
ENDBRANCH  14  21
ENDBRANCH   1  15
TORSDOF 5
ENDMDL
MODEL 5
REMARK VINA RESULT:      -7.3      5.217      6.742
REMARK  Name = 
REMARK  6 active torsions:
REMARK  status: ('A' for Active; 'I' for Inactive)
REMARK    1  A    between atoms: C_1  and  C_2
REMARK    2  A    between atoms: C_2  and  C_3
REMARK    3  A    between atoms: C_6  and  N_7
REMARK    4  A    between atoms: C_8  and  C_10
REMARK    5  A    between atoms: C_10  and  N_11
REMARK    6  A    between atoms: C_13  and  C_14
REMARK                            x       y       z     vdW  Elec       q    Type
REMARK                         _______ _______ _______ _____ _____    ______ ____
ROOT
ATOM      1  C   UNL     1       8.064   6.590  18.578  0.00  0.00    +0.000 C 
ENDROOT
BRANCH   1   2
ATOM      2  N   UNL     1       7.124   5.922  17.706  0.00  0.00    +0.000 N 
ATOM      3  N   UNL     1       7.469   5.664  16.409  0.00  0.00    +0.000 NA
ATOM      4  C   UNL     1       6.380   5.051  15.868  0.00  0.00    +0.000 A 
ATOM      5  C   UNL     1       5.388   4.899  16.849  0.00  0.00    +0.000 A 
ATOM      6  C   UNL     1       5.897   5.440  17.991  0.00  0.00    +0.000 A 
ATOM      7  C   UNL     1       5.007   5.368  19.161  0.00  0.00    +0.000 C 
ATOM      8  C   UNL     1       3.928   4.360  18.620  0.00  0.00    +0.000 C 
ATOM      9  C   UNL     1       4.029   4.368  17.052  0.00  0.00    +0.000 C 
BRANCH   4  10
ATOM     10  C   UNL     1       6.300   4.617  14.430  0.00  0.00    +0.000 C 
ATOM     11  F   UNL     1       7.206   5.238  13.628  0.00  0.00    +0.000 F 
ATOM     12  F   UNL     1       6.512   3.279  14.295  0.00  0.00    +0.000 F 
ATOM     13  F   UNL     1       5.073   4.868  13.898  0.00  0.00    +0.000 F 
ENDBRANCH   4  10
ENDBRANCH   1   2
BRANCH   1  15
ATOM     14  N   UNL     1       8.969   8.778  19.172  0.00  0.00    +0.000 N 
ATOM     15  C   UNL     1       8.155   8.074  18.294  0.00  0.00    +0.000 C 
ATOM     16  O   UNL     1       7.501   8.557  17.372  0.00  0.00    +0.000 OA
ATOM     17  H   UNL     1       9.608   8.210  19.732  0.00  0.00    +0.000 HD
BRANCH  14  21
ATOM     18  C   UNL     1       9.508  12.979  19.051  0.00  0.00    +0.000 A 
ATOM     19  C   UNL     1       9.462  12.316  20.281  0.00  0.00    +0.000 A 
ATOM     20  C   UNL     1       9.309  10.928  20.339  0.00  0.00    +0.000 A 
ATOM     21  C   UNL     1       9.198  10.172  19.171  0.00  0.00    +0.000 A 
ATOM     22  C   UNL     1       9.311  10.824  17.938  0.00  0.00    +0.000 A 
ATOM     23  C   UNL     1       9.458  12.217  17.878  0.00  0.00    +0.000 A 
BRANCH  18  25
ATOM     24  C   UNL     1      11.047  14.969  18.946  0.00  0.00    +0.000 C 
ATOM     25  C   UNL     1       9.609  14.482  19.006  0.00  0.00    +0.000 C 
ENDBRANCH  18  25
ENDBRANCH  14  21
ENDBRANCH   1  15
TORSDOF 5
ENDMDL
MODEL 6
REMARK VINA RESULT:      -7.3      3.111      4.413
REMARK  Name = 
REMARK  6 active torsions:
REMARK  status: ('A' for Active; 'I' for Inactive)
REMARK    1  A    between atoms: C_1  and  C_2
REMARK    2  A    between atoms: C_2  and  C_3
REMARK    3  A    between atoms: C_6  and  N_7
REMARK    4  A    between atoms: C_8  and  C_10
REMARK    5  A    between atoms: C_10  and  N_11
REMARK    6  A    between atoms: C_13  and  C_14
REMARK                            x       y       z     vdW  Elec       q    Type
REMARK                         _______ _______ _______ _____ _____    ______ ____
ROOT
ATOM      1  C   UNL     1       2.974   7.938  17.710  0.00  0.00    +0.000 C 
ENDROOT
BRANCH   1   2
ATOM      2  N   UNL     1       2.925   6.522  17.995  0.00  0.00    +0.000 N 
ATOM      3  N   UNL     1       1.943   6.028  18.806  0.00  0.00    +0.000 NA
ATOM      4  C   UNL     1       2.184   4.690  18.879  0.00  0.00    +0.000 A 
ATOM      5  C   UNL     1       3.289   4.365  18.078  0.00  0.00    +0.000 A 
ATOM      6  C   UNL     1       3.716   5.534  17.525  0.00  0.00    +0.000 A 
ATOM      7  C   UNL     1       4.874   5.410  16.626  0.00  0.00    +0.000 C 
ATOM      8  C   UNL     1       4.910   3.848  16.446  0.00  0.00    +0.000 C 
ATOM      9  C   UNL     1       4.115   3.222  17.647  0.00  0.00    +0.000 C 
BRANCH   4  10
ATOM     10  C   UNL     1       1.360   3.741  19.706  0.00  0.00    +0.000 C 
ATOM     11  F   UNL     1       0.512   4.370  20.564  0.00  0.00    +0.000 F 
ATOM     12  F   UNL     1       0.595   2.928  18.928  0.00  0.00    +0.000 F 
ATOM     13  F   UNL     1       2.143   2.924  20.462  0.00  0.00    +0.000 F 
ENDBRANCH   4  10
ENDBRANCH   1   2
BRANCH   1  15
ATOM     14  N   UNL     1       2.012   8.751  19.801  0.00  0.00    +0.000 N 
ATOM     15  C   UNL     1       1.878   8.704  18.419  0.00  0.00    +0.000 C 
ATOM     16  O   UNL     1       0.951   9.182  17.769  0.00  0.00    +0.000 OA
ATOM     17  H   UNL     1       2.936   8.506  20.162  0.00  0.00    +0.000 HD
BRANCH  14  21
ATOM     18  C   UNL     1      -0.760  10.643  22.387  0.00  0.00    +0.000 A 
ATOM     19  C   UNL     1      -0.529   9.269  22.496  0.00  0.00    +0.000 A 
ATOM     20  C   UNL     1       0.399   8.632  21.668  0.00  0.00    +0.000 A 
ATOM     21  C   UNL     1       1.117   9.354  20.713  0.00  0.00    +0.000 A 
ATOM     22  C   UNL     1       0.937  10.740  20.646  0.00  0.00    +0.000 A 
ATOM     23  C   UNL     1       0.001  11.378  21.472  0.00  0.00    +0.000 A 
BRANCH  18  25
ATOM     24  C   UNL     1      -1.775  12.819  23.146  0.00  0.00    +0.000 C 
ATOM     25  C   UNL     1      -1.811  11.303  23.243  0.00  0.00    +0.000 C 
ENDBRANCH  18  25
ENDBRANCH  14  21
ENDBRANCH   1  15
TORSDOF 5
ENDMDL
MODEL 7
REMARK VINA RESULT:      -7.2      2.090      2.970
REMARK  Name = 
REMARK  6 active torsions:
REMARK  status: ('A' for Active; 'I' for Inactive)
REMARK    1  A    between atoms: C_1  and  C_2
REMARK    2  A    between atoms: C_2  and  C_3
REMARK    3  A    between atoms: C_6  and  N_7
REMARK    4  A    between atoms: C_8  and  C_10
REMARK    5  A    between atoms: C_10  and  N_11
REMARK    6  A    between atoms: C_13  and  C_14
REMARK                            x       y       z     vdW  Elec       q    Type
REMARK                         _______ _______ _______ _____ _____    ______ ____
ROOT
ATOM      1  C   UNL     1       3.427   3.691  18.798  0.00  0.00    +0.000 C 
ENDROOT
BRANCH   1   2
ATOM      2  N   UNL     1       4.500   4.089  17.914  0.00  0.00    +0.000 N 
ATOM      3  N   UNL     1       4.369   3.907  16.566  0.00  0.00    +0.000 NA
ATOM      4  C   UNL     1       5.536   4.365  16.033  0.00  0.00    +0.000 A 
ATOM      5  C   UNL     1       6.358   4.864  17.054  0.00  0.00    +0.000 A 
ATOM      6  C   UNL     1       5.669   4.692  18.216  0.00  0.00    +0.000 A 
ATOM      7  C   UNL     1       6.359   5.171  19.424  0.00  0.00    +0.000 C 
ATOM      8  C   UNL     1       7.518   6.002  18.762  0.00  0.00    +0.000 C 
ATOM      9  C   UNL     1       7.671   5.493  17.284  0.00  0.00    +0.000 C 
BRANCH   4  10
ATOM     10  C   UNL     1       5.849   4.324  14.562  0.00  0.00    +0.000 C 
ATOM     11  F   UNL     1       6.569   3.230  14.193  0.00  0.00    +0.000 F 
ATOM     12  F   UNL     1       4.718   4.320  13.805  0.00  0.00    +0.000 F 
ATOM     13  F   UNL     1       6.568   5.412  14.172  0.00  0.00    +0.000 F 
ENDBRANCH   4  10
ENDBRANCH   1   2
BRANCH   1  15
ATOM     14  N   UNL     1       2.965   6.088  18.813  0.00  0.00    +0.000 N 
ATOM     15  C   UNL     1       2.456   4.820  19.065  0.00  0.00    +0.000 C 
ATOM     16  O   UNL     1       1.338   4.568  19.509  0.00  0.00    +0.000 OA
ATOM     17  H   UNL     1       3.813   6.116  18.244  0.00  0.00    +0.000 HD
BRANCH  14  21
ATOM     18  C   UNL     1       0.850   9.729  19.286  0.00  0.00    +0.000 A 
ATOM     19  C   UNL     1       1.118   8.928  20.399  0.00  0.00    +0.000 A 
ATOM     20  C   UNL     1       1.836   7.735  20.266  0.00  0.00    +0.000 A 
ATOM     21  C   UNL     1       2.299   7.317  19.018  0.00  0.00    +0.000 A 
ATOM     22  C   UNL     1       2.090   8.149  17.912  0.00  0.00    +0.000 A 
ATOM     23  C   UNL     1       1.365   9.341  18.043  0.00  0.00    +0.000 A 
BRANCH  18  25
ATOM     24  C   UNL     1       0.851  12.246  19.337  0.00  0.00    +0.000 C 
ATOM     25  C   UNL     1       0.019  10.978  19.436  0.00  0.00    +0.000 C 
ENDBRANCH  18  25
ENDBRANCH  14  21
ENDBRANCH   1  15
TORSDOF 5
ENDMDL
MODEL 8
REMARK VINA RESULT:      -7.2      1.513      2.027
REMARK  Name = 
REMARK  6 active torsions:
REMARK  status: ('A' for Active; 'I' for Inactive)
REMARK    1  A    between atoms: C_1  and  C_2
REMARK    2  A    between atoms: C_2  and  C_3
REMARK    3  A    between atoms: C_6  and  N_7
REMARK    4  A    between atoms: C_8  and  C_10
REMARK    5  A    between atoms: C_10  and  N_11
REMARK    6  A    between atoms: C_13  and  C_14
REMARK                            x       y       z     vdW  Elec       q    Type
REMARK                         _______ _______ _______ _____ _____    ______ ____
ROOT
ATOM      1  C   UNL     1       4.050   4.533  19.499  0.00  0.00    +0.000 C 
ENDROOT
BRANCH   1   2
ATOM      2  N   UNL     1       4.989   5.076  18.543  0.00  0.00    +0.000 N 
ATOM      3  N   UNL     1       5.840   6.075  18.922  0.00  0.00    +0.000 NA
ATOM      4  C   UNL     1       6.567   6.363  17.807  0.00  0.00    +0.000 A 
ATOM      5  C   UNL     1       6.185   5.510  16.761  0.00  0.00    +0.000 A 
ATOM      6  C   UNL     1       5.208   4.705  17.264  0.00  0.00    +0.000 A 
ATOM      7  C   UNL     1       4.673   3.712  16.318  0.00  0.00    +0.000 C 
ATOM      8  C   UNL     1       5.750   3.818  15.177  0.00  0.00    +0.000 C 
ATOM      9  C   UNL     1       6.477   5.200  15.350  0.00  0.00    +0.000 C 
BRANCH   4  10
ATOM     10  C   UNL     1       7.614   7.442  17.754  0.00  0.00    +0.000 C 
ATOM     11  F   UNL     1       7.106   8.695  17.904  0.00  0.00    +0.000 F 
ATOM     12  F   UNL     1       8.553   7.282  18.726  0.00  0.00    +0.000 F 
ATOM     13  F   UNL     1       8.282   7.433  16.568  0.00  0.00    +0.000 F 
ENDBRANCH   4  10
ENDBRANCH   1   2
BRANCH   1  15
ATOM     14  N   UNL     1       3.064   6.765  19.431  0.00  0.00    +0.000 N 
ATOM     15  C   UNL     1       2.834   5.417  19.674  0.00  0.00    +0.000 C 
ATOM     16  O   UNL     1       1.771   4.922  20.045  0.00  0.00    +0.000 OA
ATOM     17  H   UNL     1       3.923   6.980  18.922  0.00  0.00    +0.000 HD
BRANCH  14  21
ATOM     18  C   UNL     1       0.164   9.844  19.673  0.00  0.00    +0.000 A 
ATOM     19  C   UNL     1       0.485   9.097  20.810  0.00  0.00    +0.000 A 
ATOM     20  C   UNL     1       1.456   8.093  20.754  0.00  0.00    +0.000 A 
ATOM     21  C   UNL     1       2.127   7.814  19.563  0.00  0.00    +0.000 A 
ATOM     22  C   UNL     1       1.855   8.605  18.440  0.00  0.00    +0.000 A 
ATOM     23  C   UNL     1       0.877   9.606  18.493  0.00  0.00    +0.000 A 
BRANCH  18  25
ATOM     24  C   UNL     1      -1.817  10.863  18.498  0.00  0.00    +0.000 C 
ATOM     25  C   UNL     1      -0.932  10.878  19.734  0.00  0.00    +0.000 C 
ENDBRANCH  18  25
ENDBRANCH  14  21
ENDBRANCH   1  15
TORSDOF 5
ENDMDL
MODEL 9
REMARK VINA RESULT:      -7.2      3.089      4.456
REMARK  Name = 
REMARK  6 active torsions:
REMARK  status: ('A' for Active; 'I' for Inactive)
REMARK    1  A    between atoms: C_1  and  C_2
REMARK    2  A    between atoms: C_2  and  C_3
REMARK    3  A    between atoms: C_6  and  N_7
REMARK    4  A    between atoms: C_8  and  C_10
REMARK    5  A    between atoms: C_10  and  N_11
REMARK    6  A    between atoms: C_13  and  C_14
REMARK                            x       y       z     vdW  Elec       q    Type
REMARK                         _______ _______ _______ _____ _____    ______ ____
ROOT
ATOM      1  C   UNL     1       3.001   7.965  17.784  0.00  0.00    +0.000 C 
ENDROOT
BRANCH   1   2
ATOM      2  N   UNL     1       2.980   6.562  18.134  0.00  0.00    +0.000 N 
ATOM      3  N   UNL     1       2.082   6.108  19.058  0.00  0.00    +0.000 NA
ATOM      4  C   UNL     1       2.329   4.774  19.166  0.00  0.00    +0.000 A 
ATOM      5  C   UNL     1       3.351   4.409  18.277  0.00  0.00    +0.000 A 
ATOM      6  C   UNL     1       3.722   5.552  17.634  0.00  0.00    +0.000 A 
ATOM      7  C   UNL     1       4.787   5.383  16.632  0.00  0.00    +0.000 C 
ATOM      8  C   UNL     1       4.805   3.815  16.519  0.00  0.00    +0.000 C 
ATOM      9  C   UNL     1       4.131   3.246  17.818  0.00  0.00    +0.000 C 
BRANCH   4  10
ATOM     10  C   UNL     1       1.590   3.866  20.110  0.00  0.00    +0.000 C 
ATOM     11  F   UNL     1       1.256   2.668  19.557  0.00  0.00    +0.000 F 
ATOM     12  F   UNL     1       2.322   3.590  21.224  0.00  0.00    +0.000 F 
ATOM     13  F   UNL     1       0.429   4.430  20.543  0.00  0.00    +0.000 F 
ENDBRANCH   4  10
ENDBRANCH   1   2
BRANCH   1  15
ATOM     14  N   UNL     1       1.915   8.920  19.751  0.00  0.00    +0.000 N 
ATOM     15  C   UNL     1       1.832   8.721  18.378  0.00  0.00    +0.000 C 
ATOM     16  O   UNL     1       0.899   9.065  17.655  0.00  0.00    +0.000 OA
ATOM     17  H   UNL     1       2.840   8.778  20.161  0.00  0.00    +0.000 HD
BRANCH  14  21
ATOM     18  C   UNL     1      -0.880  10.751  22.356  0.00  0.00    +0.000 A 
ATOM     19  C   UNL     1      -0.355  11.470  21.279  0.00  0.00    +0.000 A 
ATOM     20  C   UNL     1       0.550  10.875  20.395  0.00  0.00    +0.000 A 
ATOM     21  C   UNL     1       0.950   9.549  20.569  0.00  0.00    +0.000 A 
ATOM     22  C   UNL     1       0.375   8.807  21.607  0.00  0.00    +0.000 A 
ATOM     23  C   UNL     1      -0.526   9.405  22.497  0.00  0.00    +0.000 A 
BRANCH  18  25
ATOM     24  C   UNL     1      -2.297  12.776  22.839  0.00  0.00    +0.000 C 
ATOM     25  C   UNL     1      -1.803  11.428  23.337  0.00  0.00    +0.000 C 
ENDBRANCH  18  25
ENDBRANCH  14  21
ENDBRANCH   1  15
TORSDOF 5
ENDMDL
