MODEL 1
REMARK VINA RESULT:      -8.7      0.000      0.000
REMARK  Name = 
REMARK  6 active torsions:
REMARK  status: ('A' for Active; 'I' for Inactive)
REMARK    1  A    between atoms: C_1  and  N_2
REMARK    2  A    between atoms: N_2  and  C_22
REMARK    3  A    between atoms: C_3  and  C_5
REMARK    4  A    between atoms: C_5  and  N_6
REMARK    5  A    between atoms: C_13  and  C_14
REMARK    6  A    between atoms: C_25  and  C_26
REMARK                            x       y       z     vdW  Elec       q    Type
REMARK                         _______ _______ _______ _____ _____    ______ ____
ROOT
ATOM      1  N   UNL     1       0.576   9.117  21.195  0.00  0.00    +0.000 N 
ATOM      2  C   UNL     1       1.188   9.872  22.179  0.00  0.00    +0.000 A 
ATOM      3  O   UNL     1       1.953   9.444  23.031  0.00  0.00    +0.000 OA
ATOM      4  O   UNL     1       0.815  11.219  22.093  0.00  0.00    +0.000 OA
ATOM      5  C   UNL     1      -0.033  11.223  21.000  0.00  0.00    +0.000 A 
ATOM      6  C   UNL     1      -0.617  12.342  20.454  0.00  0.00    +0.000 A 
ATOM      7  C   UNL     1      -1.406  12.171  19.307  0.00  0.00    +0.000 A 
ATOM      8  C   UNL     1      -1.637  10.890  18.738  0.00  0.00    +0.000 A 
ATOM      9  C   UNL     1      -1.051   9.773  19.371  0.00  0.00    +0.000 A 
ATOM     10  C   UNL     1      -0.224   9.967  20.461  0.00  0.00    +0.000 A 
ENDROOT
BRANCH   8  11
ATOM     11  C   UNL     1      -2.427  10.724  17.494  0.00  0.00    +0.000 A 
ATOM     12  C   UNL     1      -2.026   9.849  16.469  0.00  0.00    +0.000 A 
ATOM     13  C   UNL     1      -2.780   9.713  15.304  0.00  0.00    +0.000 A 
ATOM     14  C   UNL     1      -3.926  10.473  15.174  0.00  0.00    +0.000 A 
ATOM     15  N   UNL     1      -4.361  11.329  16.118  0.00  0.00    +0.000 NA
ATOM     16  C   UNL     1      -3.607  11.429  17.245  0.00  0.00    +0.000 A 
ENDBRANCH   8  11
BRANCH   1  17
ATOM     17  C   UNL     1       0.855   7.714  20.997  0.00  0.00    +0.000 C 
BRANCH  17  20
ATOM     18  C   UNL     1       1.660   4.918  20.532  0.00  0.00    +0.000 C 
ATOM     19  N   UNL     1       2.317   6.008  19.801  0.00  0.00    +0.000 N 
ATOM     20  C   UNL     1       1.859   7.339  19.891  0.00  0.00    +0.000 C 
ATOM     21  O   UNL     1       2.199   8.237  19.111  0.00  0.00    +0.000 OA
BRANCH  19  22
ATOM     22  C   UNL     1       3.455   5.636  18.967  0.00  0.00    +0.000 A 
ATOM     23  C   UNL     1       3.345   5.416  17.586  0.00  0.00    +0.000 A 
ATOM     24  C   UNL     1       4.450   5.068  16.792  0.00  0.00    +0.000 A 
ATOM     25  C   UNL     1       5.721   4.933  17.352  0.00  0.00    +0.000 A 
ATOM     26  C   UNL     1       5.859   5.162  18.723  0.00  0.00    +0.000 A 
ATOM     27  C   UNL     1       4.750   5.512  19.509  0.00  0.00    +0.000 A 
BRANCH  25  28
ATOM     28  C   UNL     1       6.919   4.560  16.517  0.00  0.00    +0.000 C 
ATOM     29  F   UNL     1       6.688   3.526  15.660  0.00  0.00    +0.000 F 
ATOM     30  F   UNL     1       7.358   5.593  15.746  0.00  0.00    +0.000 F 
ATOM     31  F   UNL     1       7.985   4.183  17.277  0.00  0.00    +0.000 F 
ENDBRANCH  25  28
ENDBRANCH  19  22
ENDBRANCH  17  20
ENDBRANCH   1  17
TORSDOF 5
ENDMDL
MODEL 2
REMARK VINA RESULT:      -8.7      0.120      1.090
REMARK  Name = 
REMARK  6 active torsions:
REMARK  status: ('A' for Active; 'I' for Inactive)
REMARK    1  A    between atoms: C_1  and  N_2
REMARK    2  A    between atoms: N_2  and  C_22
REMARK    3  A    between atoms: C_3  and  C_5
REMARK    4  A    between atoms: C_5  and  N_6
REMARK    5  A    between atoms: C_13  and  C_14
REMARK    6  A    between atoms: C_25  and  C_26
REMARK                            x       y       z     vdW  Elec       q    Type
REMARK                         _______ _______ _______ _____ _____    ______ ____
ROOT
ATOM      1  N   UNL     1       0.548   9.107  21.183  0.00  0.00    +0.000 N 
ATOM      2  C   UNL     1       1.151   9.856  22.176  0.00  0.00    +0.000 A 
ATOM      3  O   UNL     1       1.914   9.424  23.029  0.00  0.00    +0.000 OA
ATOM      4  O   UNL     1       0.774  11.202  22.099  0.00  0.00    +0.000 OA
ATOM      5  C   UNL     1      -0.068  11.211  21.002  0.00  0.00    +0.000 A 
ATOM      6  C   UNL     1      -0.653  12.333  20.462  0.00  0.00    +0.000 A 
ATOM      7  C   UNL     1      -1.435  12.169  19.310  0.00  0.00    +0.000 A 
ATOM      8  C   UNL     1      -1.659  10.891  18.728  0.00  0.00    +0.000 A 
ATOM      9  C   UNL     1      -1.071   9.771  19.356  0.00  0.00    +0.000 A 
ATOM     10  C   UNL     1      -0.251   9.959  20.452  0.00  0.00    +0.000 A 
ENDROOT
BRANCH   8  11
ATOM     11  C   UNL     1      -2.441  10.732  17.479  0.00  0.00    +0.000 A 
ATOM     12  C   UNL     1      -2.033   9.863  16.452  0.00  0.00    +0.000 A 
ATOM     13  C   UNL     1      -2.781   9.734  15.281  0.00  0.00    +0.000 A 
ATOM     14  C   UNL     1      -3.926  10.494  15.149  0.00  0.00    +0.000 A 
ATOM     15  N   UNL     1      -4.367  11.344  16.096  0.00  0.00    +0.000 NA
ATOM     16  C   UNL     1      -3.620  11.438  17.227  0.00  0.00    +0.000 A 
ENDBRANCH   8  11
BRANCH   1  17
ATOM     17  C   UNL     1       0.833   7.706  20.975  0.00  0.00    +0.000 C 
BRANCH  17  20
ATOM     18  C   UNL     1       1.643   4.916  20.485  0.00  0.00    +0.000 C 
ATOM     19  N   UNL     1       2.309   6.015  19.776  0.00  0.00    +0.000 N 
ATOM     20  C   UNL     1       1.852   7.344  19.877  0.00  0.00    +0.000 C 
ATOM     21  O   UNL     1       2.201   8.252  19.113  0.00  0.00    +0.000 OA
BRANCH  19  22
ATOM     22  C   UNL     1       3.458   5.652  18.952  0.00  0.00    +0.000 A 
ATOM     23  C   UNL     1       4.782   5.762  19.403  0.00  0.00    +0.000 A 
ATOM     24  C   UNL     1       5.879   5.400  18.604  0.00  0.00    +0.000 A 
ATOM     25  C   UNL     1       5.692   4.901  17.314  0.00  0.00    +0.000 A 
ATOM     26  C   UNL     1       4.382   4.766  16.848  0.00  0.00    +0.000 A 
ATOM     27  C   UNL     1       3.292   5.129  17.654  0.00  0.00    +0.000 A 
BRANCH  25  28
ATOM     28  C   UNL     1       6.856   4.507  16.441  0.00  0.00    +0.000 C 
ATOM     29  F   UNL     1       7.957   4.116  17.141  0.00  0.00    +0.000 F 
ATOM     30  F   UNL     1       6.554   3.473  15.609  0.00  0.00    +0.000 F 
ATOM     31  F   UNL     1       7.268   5.526  15.636  0.00  0.00    +0.000 F 
ENDBRANCH  25  28
ENDBRANCH  19  22
ENDBRANCH  17  20
ENDBRANCH   1  17
TORSDOF 5
ENDMDL
MODEL 3
REMARK VINA RESULT:      -8.6      0.510      1.384
REMARK  Name = 
REMARK  6 active torsions:
REMARK  status: ('A' for Active; 'I' for Inactive)
REMARK    1  A    between atoms: C_1  and  N_2
REMARK    2  A    between atoms: N_2  and  C_22
REMARK    3  A    between atoms: C_3  and  C_5
REMARK    4  A    between atoms: C_5  and  N_6
REMARK    5  A    between atoms: C_13  and  C_14
REMARK    6  A    between atoms: C_25  and  C_26
REMARK                            x       y       z     vdW  Elec       q    Type
REMARK                         _______ _______ _______ _____ _____    ______ ____
ROOT
ATOM      1  N   UNL     1       0.578   9.101  21.184  0.00  0.00    +0.000 N 
ATOM      2  C   UNL     1       1.190   9.851  22.171  0.00  0.00    +0.000 A 
ATOM      3  O   UNL     1       1.954   9.418  23.022  0.00  0.00    +0.000 OA
ATOM      4  O   UNL     1       0.819  11.199  22.091  0.00  0.00    +0.000 OA
ATOM      5  C   UNL     1      -0.028  11.209  20.998  0.00  0.00    +0.000 A 
ATOM      6  C   UNL     1      -0.609  12.332  20.456  0.00  0.00    +0.000 A 
ATOM      7  C   UNL     1      -1.397  12.167  19.308  0.00  0.00    +0.000 A 
ATOM      8  C   UNL     1      -1.631  10.889  18.732  0.00  0.00    +0.000 A 
ATOM      9  C   UNL     1      -1.046   9.768  19.361  0.00  0.00    +0.000 A 
ATOM     10  C   UNL     1      -0.221   9.956  20.452  0.00  0.00    +0.000 A 
ENDROOT
BRANCH   8  11
ATOM     11  C   UNL     1      -2.420  10.730  17.487  0.00  0.00    +0.000 A 
ATOM     12  C   UNL     1      -3.618  11.432  17.271  0.00  0.00    +0.000 A 
ATOM     13  C   UNL     1      -4.349  11.262  16.095  0.00  0.00    +0.000 A 
ATOM     14  C   UNL     1      -3.872  10.373  15.151  0.00  0.00    +0.000 A 
ATOM     15  N   UNL     1      -2.732   9.671  15.301  0.00  0.00    +0.000 NA
ATOM     16  C   UNL     1      -2.041   9.868  16.454  0.00  0.00    +0.000 A 
ENDBRANCH   8  11
BRANCH   1  17
ATOM     17  C   UNL     1       0.854   7.699  20.980  0.00  0.00    +0.000 C 
BRANCH  17  20
ATOM     18  C   UNL     1       1.717   4.913  20.554  0.00  0.00    +0.000 C 
ATOM     19  N   UNL     1       2.343   6.005  19.800  0.00  0.00    +0.000 N 
ATOM     20  C   UNL     1       1.858   7.327  19.871  0.00  0.00    +0.000 C 
ATOM     21  O   UNL     1       2.172   8.219  19.074  0.00  0.00    +0.000 OA
BRANCH  19  22
ATOM     22  C   UNL     1       3.483   5.643  18.963  0.00  0.00    +0.000 A 
ATOM     23  C   UNL     1       4.808   5.688  19.423  0.00  0.00    +0.000 A 
ATOM     24  C   UNL     1       5.896   5.328  18.611  0.00  0.00    +0.000 A 
ATOM     25  C   UNL     1       5.699   4.896  17.299  0.00  0.00    +0.000 A 
ATOM     26  C   UNL     1       4.387   4.827  16.823  0.00  0.00    +0.000 A 
ATOM     27  C   UNL     1       3.306   5.187  17.641  0.00  0.00    +0.000 A 
BRANCH  25  28
ATOM     28  C   UNL     1       6.853   4.505  16.412  0.00  0.00    +0.000 C 
ATOM     29  F   UNL     1       7.262   5.499  15.575  0.00  0.00    +0.000 F 
ATOM     30  F   UNL     1       7.955   4.139  17.124  0.00  0.00    +0.000 F 
ATOM     31  F   UNL     1       6.556   3.442  15.612  0.00  0.00    +0.000 F 
ENDBRANCH  25  28
ENDBRANCH  19  22
ENDBRANCH  17  20
ENDBRANCH   1  17
TORSDOF 5
ENDMDL
MODEL 4
REMARK VINA RESULT:      -8.5      0.513      1.097
REMARK  Name = 
REMARK  6 active torsions:
REMARK  status: ('A' for Active; 'I' for Inactive)
REMARK    1  A    between atoms: C_1  and  N_2
REMARK    2  A    between atoms: N_2  and  C_22
REMARK    3  A    between atoms: C_3  and  C_5
REMARK    4  A    between atoms: C_5  and  N_6
REMARK    5  A    between atoms: C_13  and  C_14
REMARK    6  A    between atoms: C_25  and  C_26
REMARK                            x       y       z     vdW  Elec       q    Type
REMARK                         _______ _______ _______ _____ _____    ______ ____
ROOT
ATOM      1  N   UNL     1       0.553   9.142  21.210  0.00  0.00    +0.000 N 
ATOM      2  C   UNL     1       1.154   9.897  22.200  0.00  0.00    +0.000 A 
ATOM      3  O   UNL     1       1.916   9.470  23.056  0.00  0.00    +0.000 OA
ATOM      4  O   UNL     1       0.775  11.242  22.116  0.00  0.00    +0.000 OA
ATOM      5  C   UNL     1      -0.065  11.245  21.018  0.00  0.00    +0.000 A 
ATOM      6  C   UNL     1      -0.651  12.364  20.471  0.00  0.00    +0.000 A 
ATOM      7  C   UNL     1      -1.432  12.193  19.319  0.00  0.00    +0.000 A 
ATOM      8  C   UNL     1      -1.653  10.912  18.744  0.00  0.00    +0.000 A 
ATOM      9  C   UNL     1      -1.065   9.796  19.378  0.00  0.00    +0.000 A 
ATOM     10  C   UNL     1      -0.247   9.991  20.473  0.00  0.00    +0.000 A 
ENDROOT
BRANCH   8  11
ATOM     11  C   UNL     1      -2.434  10.746  17.494  0.00  0.00    +0.000 A 
ATOM     12  C   UNL     1      -3.638  11.438  17.272  0.00  0.00    +0.000 A 
ATOM     13  C   UNL     1      -4.360  11.262  16.092  0.00  0.00    +0.000 A 
ATOM     14  C   UNL     1      -3.871  10.377  15.151  0.00  0.00    +0.000 A 
ATOM     15  N   UNL     1      -2.727   9.684  15.308  0.00  0.00    +0.000 NA
ATOM     16  C   UNL     1      -2.043   9.888  16.464  0.00  0.00    +0.000 A 
ENDBRANCH   8  11
BRANCH   1  17
ATOM     17  C   UNL     1       0.839   7.741  21.010  0.00  0.00    +0.000 C 
BRANCH  17  20
ATOM     18  C   UNL     1       1.673   4.952  20.551  0.00  0.00    +0.000 C 
ATOM     19  N   UNL     1       2.322   6.048  19.822  0.00  0.00    +0.000 N 
ATOM     20  C   UNL     1       1.852   7.374  19.908  0.00  0.00    +0.000 C 
ATOM     21  O   UNL     1       2.186   8.274  19.128  0.00  0.00    +0.000 OA
BRANCH  19  22
ATOM     22  C   UNL     1       3.467   5.685  18.992  0.00  0.00    +0.000 A 
ATOM     23  C   UNL     1       3.443   5.755  17.591  0.00  0.00    +0.000 A 
ATOM     24  C   UNL     1       4.555   5.413  16.804  0.00  0.00    +0.000 A 
ATOM     25  C   UNL     1       5.747   4.992  17.394  0.00  0.00    +0.000 A 
ATOM     26  C   UNL     1       5.801   4.929  18.788  0.00  0.00    +0.000 A 
ATOM     27  C   UNL     1       4.687   5.275  19.567  0.00  0.00    +0.000 A 
BRANCH  25  28
ATOM     28  C   UNL     1       6.951   4.620  16.566  0.00  0.00    +0.000 C 
ATOM     29  F   UNL     1       8.023   4.224  17.307  0.00  0.00    +0.000 F 
ATOM     30  F   UNL     1       6.694   3.599  15.703  0.00  0.00    +0.000 F 
ATOM     31  F   UNL     1       7.392   5.656  15.798  0.00  0.00    +0.000 F 
ENDBRANCH  25  28
ENDBRANCH  19  22
ENDBRANCH  17  20
ENDBRANCH   1  17
TORSDOF 5
ENDMDL
MODEL 5
REMARK VINA RESULT:      -8.1      5.461      9.526
REMARK  Name = 
REMARK  6 active torsions:
REMARK  status: ('A' for Active; 'I' for Inactive)
REMARK    1  A    between atoms: C_1  and  N_2
REMARK    2  A    between atoms: N_2  and  C_22
REMARK    3  A    between atoms: C_3  and  C_5
REMARK    4  A    between atoms: C_5  and  N_6
REMARK    5  A    between atoms: C_13  and  C_14
REMARK    6  A    between atoms: C_25  and  C_26
REMARK                            x       y       z     vdW  Elec       q    Type
REMARK                         _______ _______ _______ _____ _____    ______ ____
ROOT
ATOM      1  N   UNL     1       1.375   8.888  19.432  0.00  0.00    +0.000 N 
ATOM      2  C   UNL     1       0.717   8.693  20.631  0.00  0.00    +0.000 A 
ATOM      3  O   UNL     1      -0.057   9.482  21.155  0.00  0.00    +0.000 OA
ATOM      4  O   UNL     1       1.050   7.458  21.201  0.00  0.00    +0.000 OA
ATOM      5  C   UNL     1       1.925   6.929  20.269  0.00  0.00    +0.000 A 
ATOM      6  C   UNL     1       2.488   5.675  20.333  0.00  0.00    +0.000 A 
ATOM      7  C   UNL     1       3.310   5.276  19.270  0.00  0.00    +0.000 A 
ATOM      8  C   UNL     1       3.595   6.136  18.175  0.00  0.00    +0.000 A 
ATOM      9  C   UNL     1       3.027   7.428  18.189  0.00  0.00    +0.000 A 
ATOM     10  C   UNL     1       2.168   7.781  19.211  0.00  0.00    +0.000 A 
ENDROOT
BRANCH   8  11
ATOM     11  C   UNL     1       4.421   5.687  17.028  0.00  0.00    +0.000 A 
ATOM     12  C   UNL     1       4.701   4.328  16.801  0.00  0.00    +0.000 A 
ATOM     13  C   UNL     1       5.486   3.928  15.720  0.00  0.00    +0.000 A 
ATOM     14  C   UNL     1       5.995   4.902  14.884  0.00  0.00    +0.000 A 
ATOM     15  N   UNL     1       5.763   6.219  15.050  0.00  0.00    +0.000 NA
ATOM     16  C   UNL     1       4.986   6.573  16.107  0.00  0.00    +0.000 A 
ENDBRANCH   8  11
BRANCH   1  17
ATOM     17  C   UNL     1       1.145  10.038  18.589  0.00  0.00    +0.000 C 
BRANCH  17  20
ATOM     18  C   UNL     1      -0.229  12.574  19.194  0.00  0.00    +0.000 C 
ATOM     19  N   UNL     1      -0.959  11.469  18.561  0.00  0.00    +0.000 N 
ATOM     20  C   UNL     1      -0.302  10.301  18.127  0.00  0.00    +0.000 C 
ATOM     21  O   UNL     1      -0.809   9.468  17.366  0.00  0.00    +0.000 OA
BRANCH  19  22
ATOM     22  C   UNL     1      -2.397  11.656  18.392  0.00  0.00    +0.000 A 
ATOM     23  C   UNL     1      -3.065  11.364  17.193  0.00  0.00    +0.000 A 
ATOM     24  C   UNL     1      -4.451  11.539  17.046  0.00  0.00    +0.000 A 
ATOM     25  C   UNL     1      -5.231  12.008  18.104  0.00  0.00    +0.000 A 
ATOM     26  C   UNL     1      -4.591  12.289  19.313  0.00  0.00    +0.000 A 
ATOM     27  C   UNL     1      -3.207  12.111  19.452  0.00  0.00    +0.000 A 
BRANCH  25  28
ATOM     28  C   UNL     1      -6.719  12.201  17.965  0.00  0.00    +0.000 C 
ATOM     29  F   UNL     1      -7.089  12.779  16.788  0.00  0.00    +0.000 F 
ATOM     30  F   UNL     1      -7.405  11.027  18.038  0.00  0.00    +0.000 F 
ATOM     31  F   UNL     1      -7.233  12.994  18.947  0.00  0.00    +0.000 F 
ENDBRANCH  25  28
ENDBRANCH  19  22
ENDBRANCH  17  20
ENDBRANCH   1  17
TORSDOF 5
ENDMDL
MODEL 6
REMARK VINA RESULT:      -8.1      5.438      9.504
REMARK  Name = 
REMARK  6 active torsions:
REMARK  status: ('A' for Active; 'I' for Inactive)
REMARK    1  A    between atoms: C_1  and  N_2
REMARK    2  A    between atoms: N_2  and  C_22
REMARK    3  A    between atoms: C_3  and  C_5
REMARK    4  A    between atoms: C_5  and  N_6
REMARK    5  A    between atoms: C_13  and  C_14
REMARK    6  A    between atoms: C_25  and  C_26
REMARK                            x       y       z     vdW  Elec       q    Type
REMARK                         _______ _______ _______ _____ _____    ______ ____
ROOT
ATOM      1  N   UNL     1       1.379   8.956  19.648  0.00  0.00    +0.000 N 
ATOM      2  C   UNL     1       0.731   8.740  20.849  0.00  0.00    +0.000 A 
ATOM      3  O   UNL     1      -0.017   9.531  21.407  0.00  0.00    +0.000 OA
ATOM      4  O   UNL     1       1.042   7.481  21.377  0.00  0.00    +0.000 OA
ATOM      5  C   UNL     1       1.891   6.959  20.418  0.00  0.00    +0.000 A 
ATOM      6  C   UNL     1       2.425   5.692  20.437  0.00  0.00    +0.000 A 
ATOM      7  C   UNL     1       3.224   5.305  19.352  0.00  0.00    +0.000 A 
ATOM      8  C   UNL     1       3.515   6.191  18.279  0.00  0.00    +0.000 A 
ATOM      9  C   UNL     1       2.979   7.495  18.340  0.00  0.00    +0.000 A 
ATOM     10  C   UNL     1       2.141   7.837  19.384  0.00  0.00    +0.000 A 
ENDROOT
BRANCH   8  11
ATOM     11  C   UNL     1       4.315   5.757  17.109  0.00  0.00    +0.000 A 
ATOM     12  C   UNL     1       4.502   4.399  16.798  0.00  0.00    +0.000 A 
ATOM     13  C   UNL     1       5.264   4.013  15.696  0.00  0.00    +0.000 A 
ATOM     14  C   UNL     1       5.845   4.999  14.923  0.00  0.00    +0.000 A 
ATOM     15  N   UNL     1       5.704   6.316  15.171  0.00  0.00    +0.000 NA
ATOM     16  C   UNL     1       4.947   6.657  16.246  0.00  0.00    +0.000 A 
ENDBRANCH   8  11
BRANCH   1  17
ATOM     17  C   UNL     1       1.165  10.136  18.843  0.00  0.00    +0.000 C 
BRANCH  17  20
ATOM     18  C   UNL     1      -0.278  12.595  19.586  0.00  0.00    +0.000 C 
ATOM     19  N   UNL     1      -0.964  11.530  18.846  0.00  0.00    +0.000 N 
ATOM     20  C   UNL     1      -0.269  10.408  18.349  0.00  0.00    +0.000 C 
ATOM     21  O   UNL     1      -0.733   9.628  17.510  0.00  0.00    +0.000 OA
BRANCH  19  22
ATOM     22  C   UNL     1      -2.398  11.705  18.639  0.00  0.00    +0.000 A 
ATOM     23  C   UNL     1      -3.250  12.225  19.626  0.00  0.00    +0.000 A 
ATOM     24  C   UNL     1      -4.627  12.398  19.411  0.00  0.00    +0.000 A 
ATOM     25  C   UNL     1      -5.210  12.063  18.188  0.00  0.00    +0.000 A 
ATOM     26  C   UNL     1      -4.380  11.560  17.184  0.00  0.00    +0.000 A 
ATOM     27  C   UNL     1      -3.005  11.391  17.406  0.00  0.00    +0.000 A 
BRANCH  25  28
ATOM     28  C   UNL     1      -6.686  12.242  17.940  0.00  0.00    +0.000 C 
ATOM     29  F   UNL     1      -7.400  11.085  18.028  0.00  0.00    +0.000 F 
ATOM     30  F   UNL     1      -7.261  13.106  18.822  0.00  0.00    +0.000 F 
ATOM     31  F   UNL     1      -6.945  12.747  16.701  0.00  0.00    +0.000 F 
ENDBRANCH  25  28
ENDBRANCH  19  22
ENDBRANCH  17  20
ENDBRANCH   1  17
TORSDOF 5
ENDMDL
MODEL 7
REMARK VINA RESULT:      -8.0      4.975      9.310
REMARK  Name = 
REMARK  6 active torsions:
REMARK  status: ('A' for Active; 'I' for Inactive)
REMARK    1  A    between atoms: C_1  and  N_2
REMARK    2  A    between atoms: N_2  and  C_22
REMARK    3  A    between atoms: C_3  and  C_5
REMARK    4  A    between atoms: C_5  and  N_6
REMARK    5  A    between atoms: C_13  and  C_14
REMARK    6  A    between atoms: C_25  and  C_26
REMARK                            x       y       z     vdW  Elec       q    Type
REMARK                         _______ _______ _______ _____ _____    ______ ____
ROOT
ATOM      1  N   UNL     1       2.319   7.354  19.473  0.00  0.00    +0.000 N 
ATOM      2  C   UNL     1       1.483   6.801  20.425  0.00  0.00    +0.000 A 
ATOM      3  O   UNL     1       0.726   7.425  21.156  0.00  0.00    +0.000 OA
ATOM      4  O   UNL     1       1.610   5.407  20.467  0.00  0.00    +0.000 OA
ATOM      5  C   UNL     1       2.549   5.166  19.481  0.00  0.00    +0.000 A 
ATOM      6  C   UNL     1       2.970   3.920  19.076  0.00  0.00    +0.000 A 
ATOM      7  C   UNL     1       3.889   3.856  18.019  0.00  0.00    +0.000 A 
ATOM      8  C   UNL     1       4.408   5.026  17.401  0.00  0.00    +0.000 A 
ATOM      9  C   UNL     1       3.975   6.276  17.892  0.00  0.00    +0.000 A 
ATOM     10  C   UNL     1       3.020   6.320  18.890  0.00  0.00    +0.000 A 
ENDROOT
BRANCH   8  11
ATOM     11  C   UNL     1       5.337   4.948  16.248  0.00  0.00    +0.000 A 
ATOM     12  C   UNL     1       5.048   4.173  15.111  0.00  0.00    +0.000 A 
ATOM     13  C   UNL     1       5.940   4.109  14.040  0.00  0.00    +0.000 A 
ATOM     14  C   UNL     1       7.123   4.815  14.130  0.00  0.00    +0.000 A 
ATOM     15  N   UNL     1       7.457   5.573  15.193  0.00  0.00    +0.000 NA
ATOM     16  C   UNL     1       6.561   5.621  16.213  0.00  0.00    +0.000 A 
ENDBRANCH   8  11
BRANCH   1  17
ATOM     17  C   UNL     1       2.323   8.763  19.158  0.00  0.00    +0.000 C 
BRANCH  17  20
ATOM     18  C   UNL     1       0.776  10.829  20.581  0.00  0.00    +0.000 C 
ATOM     19  N   UNL     1       0.259  10.241  19.339  0.00  0.00    +0.000 N 
ATOM     20  C   UNL     1       1.035   9.361  18.558  0.00  0.00    +0.000 C 
ATOM     21  O   UNL     1       0.759   9.048  17.394  0.00  0.00    +0.000 OA
BRANCH  19  22
ATOM     22  C   UNL     1      -1.093  10.631  18.953  0.00  0.00    +0.000 A 
ATOM     23  C   UNL     1      -1.760  11.727  19.523  0.00  0.00    +0.000 A 
ATOM     24  C   UNL     1      -3.058  12.099  19.135  0.00  0.00    +0.000 A 
ATOM     25  C   UNL     1      -3.742  11.389  18.147  0.00  0.00    +0.000 A 
ATOM     26  C   UNL     1      -3.092  10.304  17.553  0.00  0.00    +0.000 A 
ATOM     27  C   UNL     1      -1.795   9.940  17.945  0.00  0.00    +0.000 A 
BRANCH  25  28
ATOM     28  C   UNL     1      -5.134  11.773  17.717  0.00  0.00    +0.000 C 
ATOM     29  F   UNL     1      -5.234  12.076  16.393  0.00  0.00    +0.000 F 
ATOM     30  F   UNL     1      -6.040  10.781  17.943  0.00  0.00    +0.000 F 
ATOM     31  F   UNL     1      -5.601  12.864  18.386  0.00  0.00    +0.000 F 
ENDBRANCH  25  28
ENDBRANCH  19  22
ENDBRANCH  17  20
ENDBRANCH   1  17
TORSDOF 5
ENDMDL
MODEL 8
REMARK VINA RESULT:      -8.0      4.125      5.947
REMARK  Name = 
REMARK  6 active torsions:
REMARK  status: ('A' for Active; 'I' for Inactive)
REMARK    1  A    between atoms: C_1  and  N_2
REMARK    2  A    between atoms: N_2  and  C_22
REMARK    3  A    between atoms: C_3  and  C_5
REMARK    4  A    between atoms: C_5  and  N_6
REMARK    5  A    between atoms: C_13  and  C_14
REMARK    6  A    between atoms: C_25  and  C_26
REMARK                            x       y       z     vdW  Elec       q    Type
REMARK                         _______ _______ _______ _____ _____    ______ ____
ROOT
ATOM      1  N   UNL     1      -2.850  11.591  18.054  0.00  0.00    +0.000 N 
ATOM      2  C   UNL     1      -3.070  11.115  16.775  0.00  0.00    +0.000 A 
ATOM      3  O   UNL     1      -2.202  10.851  15.955  0.00  0.00    +0.000 OA
ATOM      4  O   UNL     1      -4.438  10.974  16.512  0.00  0.00    +0.000 OA
ATOM      5  C   UNL     1      -5.012  11.374  17.705  0.00  0.00    +0.000 A 
ATOM      6  C   UNL     1      -6.358  11.348  17.985  0.00  0.00    +0.000 A 
ATOM      7  C   UNL     1      -6.764  11.736  19.270  0.00  0.00    +0.000 A 
ATOM      8  C   UNL     1      -5.835  12.181  20.250  0.00  0.00    +0.000 A 
ATOM      9  C   UNL     1      -4.471  12.232  19.888  0.00  0.00    +0.000 A 
ATOM     10  C   UNL     1      -4.083  11.785  18.640  0.00  0.00    +0.000 A 
ENDROOT
BRANCH   8  11
ATOM     11  C   UNL     1      -6.265  12.537  21.624  0.00  0.00    +0.000 A 
ATOM     12  C   UNL     1      -5.463  13.316  22.476  0.00  0.00    +0.000 A 
ATOM     13  C   UNL     1      -5.884  13.633  23.767  0.00  0.00    +0.000 A 
ATOM     14  C   UNL     1      -7.105  13.149  24.195  0.00  0.00    +0.000 A 
ATOM     15  N   UNL     1      -7.916  12.397  23.426  0.00  0.00    +0.000 NA
ATOM     16  C   UNL     1      -7.480  12.116  22.171  0.00  0.00    +0.000 A 
ENDBRANCH   8  11
BRANCH   1  17
ATOM     17  C   UNL     1      -1.529  11.742  18.617  0.00  0.00    +0.000 C 
BRANCH  17  20
ATOM     18  C   UNL     1       1.414  11.593  18.546  0.00  0.00    +0.000 C 
ATOM     19  N   UNL     1       0.619  10.394  18.836  0.00  0.00    +0.000 N 
ATOM     20  C   UNL     1      -0.777  10.459  19.021  0.00  0.00    +0.000 C 
ATOM     21  O   UNL     1      -1.448   9.546  19.517  0.00  0.00    +0.000 OA
BRANCH  19  22
ATOM     22  C   UNL     1       1.355   9.138  18.938  0.00  0.00    +0.000 A 
ATOM     23  C   UNL     1       2.057   8.579  17.859  0.00  0.00    +0.000 A 
ATOM     24  C   UNL     1       2.771   7.375  17.972  0.00  0.00    +0.000 A 
ATOM     25  C   UNL     1       2.818   6.680  19.181  0.00  0.00    +0.000 A 
ATOM     26  C   UNL     1       2.141   7.225  20.275  0.00  0.00    +0.000 A 
ATOM     27  C   UNL     1       1.431   8.430  20.154  0.00  0.00    +0.000 A 
BRANCH  25  28
ATOM     28  C   UNL     1       3.578   5.387  19.322  0.00  0.00    +0.000 C 
ATOM     29  F   UNL     1       4.875   5.553  19.706  0.00  0.00    +0.000 F 
ATOM     30  F   UNL     1       3.020   4.553  20.242  0.00  0.00    +0.000 F 
ATOM     31  F   UNL     1       3.622   4.681  18.157  0.00  0.00    +0.000 F 
ENDBRANCH  25  28
ENDBRANCH  19  22
ENDBRANCH  17  20
ENDBRANCH   1  17
TORSDOF 5
ENDMDL
MODEL 9
REMARK VINA RESULT:      -7.9      4.907      9.255
REMARK  Name = 
REMARK  6 active torsions:
REMARK  status: ('A' for Active; 'I' for Inactive)
REMARK    1  A    between atoms: C_1  and  N_2
REMARK    2  A    between atoms: N_2  and  C_22
REMARK    3  A    between atoms: C_3  and  C_5
REMARK    4  A    between atoms: C_5  and  N_6
REMARK    5  A    between atoms: C_13  and  C_14
REMARK    6  A    between atoms: C_25  and  C_26
REMARK                            x       y       z     vdW  Elec       q    Type
REMARK                         _______ _______ _______ _____ _____    ______ ____
ROOT
ATOM      1  N   UNL     1       2.508   7.165  19.406  0.00  0.00    +0.000 N 
ATOM      2  C   UNL     1       1.688   6.595  20.362  0.00  0.00    +0.000 A 
ATOM      3  O   UNL     1       0.943   7.204  21.115  0.00  0.00    +0.000 OA
ATOM      4  O   UNL     1       1.817   5.200  20.378  0.00  0.00    +0.000 OA
ATOM      5  C   UNL     1       2.741   4.977  19.373  0.00  0.00    +0.000 A 
ATOM      6  C   UNL     1       3.156   3.739  18.940  0.00  0.00    +0.000 A 
ATOM      7  C   UNL     1       4.058   3.694  17.867  0.00  0.00    +0.000 A 
ATOM      8  C   UNL     1       4.566   4.875  17.261  0.00  0.00    +0.000 A 
ATOM      9  C   UNL     1       4.139   6.116  17.780  0.00  0.00    +0.000 A 
ATOM     10  C   UNL     1       3.201   6.141  18.794  0.00  0.00    +0.000 A 
ENDROOT
BRANCH   8  11
ATOM     11  C   UNL     1       5.476   4.818  16.092  0.00  0.00    +0.000 A 
ATOM     12  C   UNL     1       5.179   4.046  14.955  0.00  0.00    +0.000 A 
ATOM     13  C   UNL     1       6.053   4.002  13.869  0.00  0.00    +0.000 A 
ATOM     14  C   UNL     1       7.227   4.725  13.943  0.00  0.00    +0.000 A 
ATOM     15  N   UNL     1       7.568   5.481  15.005  0.00  0.00    +0.000 NA
ATOM     16  C   UNL     1       6.690   5.509  16.041  0.00  0.00    +0.000 A 
ENDBRANCH   8  11
BRANCH   1  17
ATOM     17  C   UNL     1       2.506   8.579  19.115  0.00  0.00    +0.000 C 
BRANCH  17  20
ATOM     18  C   UNL     1       0.862  10.607  20.482  0.00  0.00    +0.000 C 
ATOM     19  N   UNL     1       0.416  10.028  19.210  0.00  0.00    +0.000 N 
ATOM     20  C   UNL     1       1.242   9.167  18.458  0.00  0.00    +0.000 C 
ATOM     21  O   UNL     1       1.028   8.865  17.279  0.00  0.00    +0.000 OA
BRANCH  19  22
ATOM     22  C   UNL     1      -0.921  10.405  18.760  0.00  0.00    +0.000 A 
ATOM     23  C   UNL     1      -1.592   9.734  17.726  0.00  0.00    +0.000 A 
ATOM     24  C   UNL     1      -2.882  10.100  17.309  0.00  0.00    +0.000 A 
ATOM     25  C   UNL     1      -3.561  11.155  17.921  0.00  0.00    +0.000 A 
ATOM     26  C   UNL     1      -2.920  11.828  18.963  0.00  0.00    +0.000 A 
ATOM     27  C   UNL     1      -1.631  11.455  19.375  0.00  0.00    +0.000 A 
BRANCH  25  28
ATOM     28  C   UNL     1      -4.945  11.563  17.487  0.00  0.00    +0.000 C 
ATOM     29  F   UNL     1      -5.921  10.703  17.892  0.00  0.00    +0.000 F 
ATOM     30  F   UNL     1      -5.302  12.786  17.967  0.00  0.00    +0.000 F 
ATOM     31  F   UNL     1      -5.061  11.646  16.132  0.00  0.00    +0.000 F 
ENDBRANCH  25  28
ENDBRANCH  19  22
ENDBRANCH  17  20
ENDBRANCH   1  17
TORSDOF 5
ENDMDL
