MODEL 1
REMARK VINA RESULT:      -9.1      0.000      0.000
REMARK  Name = 
REMARK  3 active torsions:
REMARK  status: ('A' for Active; 'I' for Inactive)
REMARK    1  A    between atoms: C_1  and  C_2
REMARK    2  A    between atoms: C_7  and  C_8
REMARK    3  A    between atoms: C_8  and  C_10
REMARK                            x       y       z     vdW  Elec       q    Type
REMARK                         _______ _______ _______ _____ _____    ______ ____
ROOT
ATOM      1  C   UNL     1       5.675   5.298  16.463  0.00  0.00    +0.000 A 
ATOM      2  C   UNL     1       5.299   4.678  17.595  0.00  0.00    +0.000 A 
ATOM      3  C   UNL     1       4.169   5.132  18.401  0.00  0.00    +0.000 A 
ATOM      4  C   UNL     1       3.686   6.408  18.126  0.00  0.00    +0.000 A 
ATOM      5  C   UNL     1       2.693   6.998  18.897  0.00  0.00    +0.000 A 
ATOM      6  C   UNL     1       2.143   6.278  19.955  0.00  0.00    +0.000 A 
ATOM      7  C   UNL     1       2.551   4.960  20.222  0.00  0.00    +0.000 A 
ATOM      8  C   UNL     1       1.942   4.233  21.259  0.00  0.00    +0.000 A 
ATOM      9  C   UNL     1       2.306   2.914  21.525  0.00  0.00    +0.000 A 
ATOM     10  C   UNL     1       3.285   2.303  20.756  0.00  0.00    +0.000 A 
ATOM     11  C   UNL     1       3.910   3.016  19.730  0.00  0.00    +0.000 A 
ATOM     12  C   UNL     1       3.572   4.361  19.438  0.00  0.00    +0.000 A 
ATOM     13  O   UNL     1       4.155   7.132  17.013  0.00  0.00    +0.000 OA
ATOM     14  C   UNL     1       5.008   6.562  16.064  0.00  0.00    +0.000 A 
ATOM     15  O   UNL     1       5.173   7.099  14.977  0.00  0.00    +0.000 OA
ENDROOT
BRANCH   1  16
ATOM     16  C   UNL     1       6.803   4.735  15.644  0.00  0.00    +0.000 C 
ATOM     17  O   UNL     1       7.897   4.518  16.149  0.00  0.00    +0.000 OA
BRANCH  16  24
ATOM     18  C   UNL     1       8.589   5.770  13.423  0.00  0.00    +0.000 C 
ATOM     19  C   UNL     1       7.438   4.830  13.178  0.00  0.00    +0.000 A 
ATOM     20  C   UNL     1       7.213   4.396  11.857  0.00  0.00    +0.000 A 
ATOM     21  C   UNL     1       6.166   3.528  11.551  0.00  0.00    +0.000 A 
ATOM     22  C   UNL     1       5.289   3.122  12.548  0.00  0.00    +0.000 A 
ATOM     23  C   UNL     1       5.466   3.577  13.853  0.00  0.00    +0.000 A 
ATOM     24  C   UNL     1       6.567   4.388  14.197  0.00  0.00    +0.000 A 
ENDBRANCH  16  24
ENDBRANCH   1  16
TORSDOF 2
ENDMDL
MODEL 2
REMARK VINA RESULT:      -8.9      4.389      6.947
REMARK  Name = 
REMARK  3 active torsions:
REMARK  status: ('A' for Active; 'I' for Inactive)
REMARK    1  A    between atoms: C_1  and  C_2
REMARK    2  A    between atoms: C_7  and  C_8
REMARK    3  A    between atoms: C_8  and  C_10
REMARK                            x       y       z     vdW  Elec       q    Type
REMARK                         _______ _______ _______ _____ _____    ______ ____
ROOT
ATOM      1  C   UNL     1       2.519   7.424  19.129  0.00  0.00    +0.000 A 
ATOM      2  C   UNL     1       1.951   8.014  20.195  0.00  0.00    +0.000 A 
ATOM      3  C   UNL     1       1.223   9.277  20.099  0.00  0.00    +0.000 A 
ATOM      4  C   UNL     1       1.401  10.005  18.926  0.00  0.00    +0.000 A 
ATOM      5  C   UNL     1       0.857  11.272  18.760  0.00  0.00    +0.000 A 
ATOM      6  C   UNL     1       0.085  11.814  19.784  0.00  0.00    +0.000 A 
ATOM      7  C   UNL     1      -0.178  11.084  20.956  0.00  0.00    +0.000 A 
ATOM      8  C   UNL     1      -1.006  11.628  21.953  0.00  0.00    +0.000 A 
ATOM      9  C   UNL     1      -1.309  10.911  23.109  0.00  0.00    +0.000 A 
ATOM     10  C   UNL     1      -0.787   9.639  23.286  0.00  0.00    +0.000 A 
ATOM     11  C   UNL     1       0.049   9.088  22.311  0.00  0.00    +0.000 A 
ATOM     12  C   UNL     1       0.385   9.791  21.128  0.00  0.00    +0.000 A 
ATOM     13  O   UNL     1       2.101   9.455  17.834  0.00  0.00    +0.000 OA
ATOM     14  C   UNL     1       2.522   8.123  17.820  0.00  0.00    +0.000 A 
ATOM     15  O   UNL     1       2.868   7.593  16.772  0.00  0.00    +0.000 OA
ENDROOT
BRANCH   1  16
ATOM     16  C   UNL     1       3.191   6.088  19.286  0.00  0.00    +0.000 C 
ATOM     17  O   UNL     1       4.384   5.954  19.041  0.00  0.00    +0.000 OA
BRANCH  16  24
ATOM     18  C   UNL     1       1.456   4.393  17.466  0.00  0.00    +0.000 C 
ATOM     19  C   UNL     1       1.638   4.099  18.932  0.00  0.00    +0.000 A 
ATOM     20  C   UNL     1       0.993   2.964  19.459  0.00  0.00    +0.000 A 
ATOM     21  C   UNL     1       1.111   2.627  20.807  0.00  0.00    +0.000 A 
ATOM     22  C   UNL     1       1.829   3.449  21.665  0.00  0.00    +0.000 A 
ATOM     23  C   UNL     1       2.437   4.603  21.173  0.00  0.00    +0.000 A 
ATOM     24  C   UNL     1       2.398   4.915  19.798  0.00  0.00    +0.000 A 
ENDBRANCH  16  24
ENDBRANCH   1  16
TORSDOF 2
ENDMDL
MODEL 3
REMARK VINA RESULT:      -8.3      3.283      6.086
REMARK  Name = 
REMARK  3 active torsions:
REMARK  status: ('A' for Active; 'I' for Inactive)
REMARK    1  A    between atoms: C_1  and  C_2
REMARK    2  A    between atoms: C_7  and  C_8
REMARK    3  A    between atoms: C_8  and  C_10
REMARK                            x       y       z     vdW  Elec       q    Type
REMARK                         _______ _______ _______ _____ _____    ______ ____
ROOT
ATOM      1  C   UNL     1       2.745   6.304  19.135  0.00  0.00    +0.000 A 
ATOM      2  C   UNL     1       2.400   7.539  18.730  0.00  0.00    +0.000 A 
ATOM      3  C   UNL     1       1.610   8.445  19.560  0.00  0.00    +0.000 A 
ATOM      4  C   UNL     1       0.965   7.877  20.656  0.00  0.00    +0.000 A 
ATOM      5  C   UNL     1       0.093   8.607  21.452  0.00  0.00    +0.000 A 
ATOM      6  C   UNL     1      -0.115   9.954  21.167  0.00  0.00    +0.000 A 
ATOM      7  C   UNL     1       0.570  10.584  20.114  0.00  0.00    +0.000 A 
ATOM      8  C   UNL     1       0.387  11.957  19.879  0.00  0.00    +0.000 A 
ATOM      9  C   UNL     1       1.079  12.614  18.861  0.00  0.00    +0.000 A 
ATOM     10  C   UNL     1       1.965  11.905  18.065  0.00  0.00    +0.000 A 
ATOM     11  C   UNL     1       2.149  10.536  18.276  0.00  0.00    +0.000 A 
ATOM     12  C   UNL     1       1.455   9.835  19.295  0.00  0.00    +0.000 A 
ATOM     13  O   UNL     1       1.217   6.543  21.029  0.00  0.00    +0.000 OA
ATOM     14  C   UNL     1       2.215   5.778  20.418  0.00  0.00    +0.000 A 
ATOM     15  O   UNL     1       2.605   4.741  20.936  0.00  0.00    +0.000 OA
ENDROOT
BRANCH   1  16
ATOM     16  C   UNL     1       3.622   5.451  18.261  0.00  0.00    +0.000 C 
ATOM     17  O   UNL     1       3.137   4.577  17.552  0.00  0.00    +0.000 OA
BRANCH  16  24
ATOM     18  C   UNL     1       4.960   6.834  15.917  0.00  0.00    +0.000 C 
ATOM     19  C   UNL     1       5.708   6.402  17.151  0.00  0.00    +0.000 A 
ATOM     20  C   UNL     1       7.085   6.689  17.218  0.00  0.00    +0.000 A 
ATOM     21  C   UNL     1       7.847   6.320  18.326  0.00  0.00    +0.000 A 
ATOM     22  C   UNL     1       7.260   5.606  19.362  0.00  0.00    +0.000 A 
ATOM     23  C   UNL     1       5.909   5.271  19.294  0.00  0.00    +0.000 A 
ATOM     24  C   UNL     1       5.105   5.708  18.221  0.00  0.00    +0.000 A 
ENDBRANCH  16  24
ENDBRANCH   1  16
TORSDOF 2
ENDMDL
MODEL 4
REMARK VINA RESULT:      -8.3      4.344      6.730
REMARK  Name = 
REMARK  3 active torsions:
REMARK  status: ('A' for Active; 'I' for Inactive)
REMARK    1  A    between atoms: C_1  and  C_2
REMARK    2  A    between atoms: C_7  and  C_8
REMARK    3  A    between atoms: C_8  and  C_10
REMARK                            x       y       z     vdW  Elec       q    Type
REMARK                         _______ _______ _______ _____ _____    ______ ____
ROOT
ATOM      1  C   UNL     1       2.557   7.387  19.090  0.00  0.00    +0.000 A 
ATOM      2  C   UNL     1       1.984   7.964  20.161  0.00  0.00    +0.000 A 
ATOM      3  C   UNL     1       1.272   9.237  20.080  0.00  0.00    +0.000 A 
ATOM      4  C   UNL     1       1.471   9.985  18.923  0.00  0.00    +0.000 A 
ATOM      5  C   UNL     1       0.945  11.261  18.775  0.00  0.00    +0.000 A 
ATOM      6  C   UNL     1       0.167  11.794  19.801  0.00  0.00    +0.000 A 
ATOM      7  C   UNL     1      -0.118  11.044  20.956  0.00  0.00    +0.000 A 
ATOM      8  C   UNL     1      -0.950  11.580  21.953  0.00  0.00    +0.000 A 
ATOM      9  C   UNL     1      -1.274  10.845  23.093  0.00  0.00    +0.000 A 
ATOM     10  C   UNL     1      -0.769   9.564  23.252  0.00  0.00    +0.000 A 
ATOM     11  C   UNL     1       0.071   9.021  22.276  0.00  0.00    +0.000 A 
ATOM     12  C   UNL     1       0.428   9.743  21.110  0.00  0.00    +0.000 A 
ATOM     13  O   UNL     1       2.177   9.448  17.829  0.00  0.00    +0.000 OA
ATOM     14  C   UNL     1       2.583   8.111  17.795  0.00  0.00    +0.000 A 
ATOM     15  O   UNL     1       2.934   7.596  16.740  0.00  0.00    +0.000 OA
ENDROOT
BRANCH   1  16
ATOM     16  C   UNL     1       3.211   6.041  19.230  0.00  0.00    +0.000 C 
ATOM     17  O   UNL     1       4.406   5.948  19.486  0.00  0.00    +0.000 OA
BRANCH  16  24
ATOM     18  C   UNL     1       2.310   4.445  21.645  0.00  0.00    +0.000 C 
ATOM     19  C   UNL     1       1.916   4.091  20.235  0.00  0.00    +0.000 A 
ATOM     20  C   UNL     1       1.064   2.985  20.049  0.00  0.00    +0.000 A 
ATOM     21  C   UNL     1       0.657   2.594  18.774  0.00  0.00    +0.000 A 
ATOM     22  C   UNL     1       1.139   3.264  17.658  0.00  0.00    +0.000 A 
ATOM     23  C   UNL     1       2.020   4.332  17.818  0.00  0.00    +0.000 A 
ATOM     24  C   UNL     1       2.377   4.794  19.102  0.00  0.00    +0.000 A 
ENDBRANCH  16  24
ENDBRANCH   1  16
TORSDOF 2
ENDMDL
MODEL 5
REMARK VINA RESULT:      -8.2      0.543      1.483
REMARK  Name = 
REMARK  3 active torsions:
REMARK  status: ('A' for Active; 'I' for Inactive)
REMARK    1  A    between atoms: C_1  and  C_2
REMARK    2  A    between atoms: C_7  and  C_8
REMARK    3  A    between atoms: C_8  and  C_10
REMARK                            x       y       z     vdW  Elec       q    Type
REMARK                         _______ _______ _______ _____ _____    ______ ____
ROOT
ATOM      1  C   UNL     1       5.814   5.350  16.853  0.00  0.00    +0.000 A 
ATOM      2  C   UNL     1       5.377   4.725  17.960  0.00  0.00    +0.000 A 
ATOM      3  C   UNL     1       4.142   5.107  18.641  0.00  0.00    +0.000 A 
ATOM      4  C   UNL     1       3.594   6.336  18.287  0.00  0.00    +0.000 A 
ATOM      5  C   UNL     1       2.490   6.863  18.943  0.00  0.00    +0.000 A 
ATOM      6  C   UNL     1       1.894   6.124  19.962  0.00  0.00    +0.000 A 
ATOM      7  C   UNL     1       2.372   4.847  20.303  0.00  0.00    +0.000 A 
ATOM      8  C   UNL     1       1.721   4.096  21.297  0.00  0.00    +0.000 A 
ATOM      9  C   UNL     1       2.155   2.814  21.632  0.00  0.00    +0.000 A 
ATOM     10  C   UNL     1       3.247   2.265  20.977  0.00  0.00    +0.000 A 
ATOM     11  C   UNL     1       3.914   3.004  19.997  0.00  0.00    +0.000 A 
ATOM     12  C   UNL     1       3.506   4.313  19.637  0.00  0.00    +0.000 A 
ATOM     13  O   UNL     1       4.114   7.072  17.205  0.00  0.00    +0.000 OA
ATOM     14  C   UNL     1       5.096   6.551  16.357  0.00  0.00    +0.000 A 
ATOM     15  O   UNL     1       5.325   7.077  15.276  0.00  0.00    +0.000 OA
ENDROOT
BRANCH   1  16
ATOM     16  C   UNL     1       7.055   4.859  16.161  0.00  0.00    +0.000 C 
ATOM     17  O   UNL     1       8.071   4.611  16.798  0.00  0.00    +0.000 OA
BRANCH  16  24
ATOM     18  C   UNL     1       5.094   2.947  14.859  0.00  0.00    +0.000 C 
ATOM     19  C   UNL     1       6.077   3.775  14.073  0.00  0.00    +0.000 A 
ATOM     20  C   UNL     1       6.050   3.669  12.669  0.00  0.00    +0.000 A 
ATOM     21  C   UNL     1       6.930   4.401  11.872  0.00  0.00    +0.000 A 
ATOM     22  C   UNL     1       7.890   5.209  12.465  0.00  0.00    +0.000 A 
ATOM     23  C   UNL     1       7.965   5.292  13.854  0.00  0.00    +0.000 A 
ATOM     24  C   UNL     1       7.031   4.624  14.674  0.00  0.00    +0.000 A 
ENDBRANCH  16  24
ENDBRANCH   1  16
TORSDOF 2
ENDMDL
MODEL 6
REMARK VINA RESULT:      -8.2      2.591      4.936
REMARK  Name = 
REMARK  3 active torsions:
REMARK  status: ('A' for Active; 'I' for Inactive)
REMARK    1  A    between atoms: C_1  and  C_2
REMARK    2  A    between atoms: C_7  and  C_8
REMARK    3  A    between atoms: C_8  and  C_10
REMARK                            x       y       z     vdW  Elec       q    Type
REMARK                         _______ _______ _______ _____ _____    ______ ____
ROOT
ATOM      1  C   UNL     1       3.130   4.637  18.744  0.00  0.00    +0.000 A 
ATOM      2  C   UNL     1       2.705   5.857  18.373  0.00  0.00    +0.000 A 
ATOM      3  C   UNL     1       2.111   6.802  19.316  0.00  0.00    +0.000 A 
ATOM      4  C   UNL     1       1.716   6.283  20.546  0.00  0.00    +0.000 A 
ATOM      5  C   UNL     1       1.036   7.051  21.481  0.00  0.00    +0.000 A 
ATOM      6  C   UNL     1       0.770   8.387  21.193  0.00  0.00    +0.000 A 
ATOM      7  C   UNL     1       1.214   8.970  19.993  0.00  0.00    +0.000 A 
ATOM      8  C   UNL     1       0.984  10.334  19.747  0.00  0.00    +0.000 A 
ATOM      9  C   UNL     1       1.441  10.944  18.579  0.00  0.00    +0.000 A 
ATOM     10  C   UNL     1       2.136  10.197  17.641  0.00  0.00    +0.000 A 
ATOM     11  C   UNL     1       2.361   8.836  17.863  0.00  0.00    +0.000 A 
ATOM     12  C   UNL     1       1.903   8.182  19.034  0.00  0.00    +0.000 A 
ATOM     13  O   UNL     1       2.043   4.962  20.910  0.00  0.00    +0.000 OA
ATOM     14  C   UNL     1       2.887   4.167  20.130  0.00  0.00    +0.000 A 
ATOM     15  O   UNL     1       3.381   3.147  20.594  0.00  0.00    +0.000 OA
ENDROOT
BRANCH   1  16
ATOM     16  C   UNL     1       3.799   3.743  17.737  0.00  0.00    +0.000 C 
ATOM     17  O   UNL     1       3.371   2.616  17.519  0.00  0.00    +0.000 OA
BRANCH  16  24
ATOM     18  C   UNL     1       6.257   4.893  19.089  0.00  0.00    +0.000 C 
ATOM     19  C   UNL     1       6.139   4.739  17.595  0.00  0.00    +0.000 A 
ATOM     20  C   UNL     1       7.241   5.122  16.806  0.00  0.00    +0.000 A 
ATOM     21  C   UNL     1       7.208   5.013  15.417  0.00  0.00    +0.000 A 
ATOM     22  C   UNL     1       6.052   4.572  14.786  0.00  0.00    +0.000 A 
ATOM     23  C   UNL     1       4.934   4.233  15.545  0.00  0.00    +0.000 A 
ATOM     24  C   UNL     1       4.977   4.258  16.955  0.00  0.00    +0.000 A 
ENDBRANCH  16  24
ENDBRANCH   1  16
TORSDOF 2
ENDMDL
MODEL 7
REMARK VINA RESULT:      -7.7      3.828      6.522
REMARK  Name = 
REMARK  3 active torsions:
REMARK  status: ('A' for Active; 'I' for Inactive)
REMARK    1  A    between atoms: C_1  and  C_2
REMARK    2  A    between atoms: C_7  and  C_8
REMARK    3  A    between atoms: C_8  and  C_10
REMARK                            x       y       z     vdW  Elec       q    Type
REMARK                         _______ _______ _______ _____ _____    ______ ____
ROOT
ATOM      1  C   UNL     1       2.081   7.406  19.572  0.00  0.00    +0.000 A 
ATOM      2  C   UNL     1       1.538   8.163  20.542  0.00  0.00    +0.000 A 
ATOM      3  C   UNL     1       1.063   9.523  20.303  0.00  0.00    +0.000 A 
ATOM      4  C   UNL     1       1.472  10.122  19.115  0.00  0.00    +0.000 A 
ATOM      5  C   UNL     1       1.185  11.449  18.826  0.00  0.00    +0.000 A 
ATOM      6  C   UNL     1       0.437  12.192  19.737  0.00  0.00    +0.000 A 
ATOM      7  C   UNL     1      -0.057  11.606  20.915  0.00  0.00    +0.000 A 
ATOM      8  C   UNL     1      -0.856  12.358  21.793  0.00  0.00    +0.000 A 
ATOM      9  C   UNL     1      -1.384  11.791  22.952  0.00  0.00    +0.000 A 
ATOM     10  C   UNL     1      -1.120  10.463  23.250  0.00  0.00    +0.000 A 
ATOM     11  C   UNL     1      -0.316   9.705  22.395  0.00  0.00    +0.000 A 
ATOM     12  C   UNL     1       0.245  10.251  21.214  0.00  0.00    +0.000 A 
ATOM     13  O   UNL     1       2.154   9.380  18.131  0.00  0.00    +0.000 OA
ATOM     14  C   UNL     1       2.326   7.997  18.233  0.00  0.00    +0.000 A 
ATOM     15  O   UNL     1       2.660   7.340  17.256  0.00  0.00    +0.000 OA
ENDROOT
BRANCH   1  16
ATOM     16  C   UNL     1       2.482   5.988  19.870  0.00  0.00    +0.000 C 
ATOM     17  O   UNL     1       1.995   5.385  20.819  0.00  0.00    +0.000 OA
BRANCH  16  24
ATOM     18  C   UNL     1       1.580   4.056  17.713  0.00  0.00    +0.000 C 
ATOM     19  C   UNL     1       3.023   4.434  17.925  0.00  0.00    +0.000 A 
ATOM     20  C   UNL     1       3.981   3.881  17.054  0.00  0.00    +0.000 A 
ATOM     21  C   UNL     1       5.337   4.180  17.187  0.00  0.00    +0.000 A 
ATOM     22  C   UNL     1       5.766   4.991  18.228  0.00  0.00    +0.000 A 
ATOM     23  C   UNL     1       4.840   5.511  19.130  0.00  0.00    +0.000 A 
ATOM     24  C   UNL     1       3.457   5.287  18.962  0.00  0.00    +0.000 A 
ENDBRANCH  16  24
ENDBRANCH   1  16
TORSDOF 2
ENDMDL
MODEL 8
REMARK VINA RESULT:      -7.7      3.670      7.408
REMARK  Name = 
REMARK  3 active torsions:
REMARK  status: ('A' for Active; 'I' for Inactive)
REMARK    1  A    between atoms: C_1  and  C_2
REMARK    2  A    between atoms: C_7  and  C_8
REMARK    3  A    between atoms: C_8  and  C_10
REMARK                            x       y       z     vdW  Elec       q    Type
REMARK                         _______ _______ _______ _____ _____    ______ ____
ROOT
ATOM      1  C   UNL     1       1.590   8.705  19.291  0.00  0.00    +0.000 A 
ATOM      2  C   UNL     1       1.552   7.443  19.754  0.00  0.00    +0.000 A 
ATOM      3  C   UNL     1       2.401   6.384  19.214  0.00  0.00    +0.000 A 
ATOM      4  C   UNL     1       3.027   6.650  18.000  0.00  0.00    +0.000 A 
ATOM      5  C   UNL     1       3.764   5.685  17.328  0.00  0.00    +0.000 A 
ATOM      6  C   UNL     1       3.909   4.424  17.903  0.00  0.00    +0.000 A 
ATOM      7  C   UNL     1       3.353   4.135  19.161  0.00  0.00    +0.000 A 
ATOM      8  C   UNL     1       3.559   2.875  19.748  0.00  0.00    +0.000 A 
ATOM      9  C   UNL     1       3.046   2.574  21.009  0.00  0.00    +0.000 A 
ATOM     10  C   UNL     1       2.319   3.530  21.701  0.00  0.00    +0.000 A 
ATOM     11  C   UNL     1       2.094   4.784  21.127  0.00  0.00    +0.000 A 
ATOM     12  C   UNL     1       2.592   5.121  19.844  0.00  0.00    +0.000 A 
ATOM     13  O   UNL     1       2.977   7.937  17.430  0.00  0.00    +0.000 OA
ATOM     14  C   UNL     1       2.429   9.028  18.111  0.00  0.00    +0.000 A 
ATOM     15  O   UNL     1       2.647  10.170  17.729  0.00  0.00    +0.000 OA
ENDROOT
BRANCH   1  16
ATOM     16  C   UNL     1       0.741   9.763  19.941  0.00  0.00    +0.000 C 
ATOM     17  O   UNL     1       0.920  10.077  21.112  0.00  0.00    +0.000 OA
BRANCH  16  24
ATOM     18  C   UNL     1       0.853  12.748  19.424  0.00  0.00    +0.000 C 
ATOM     19  C   UNL     1      -0.214  11.855  18.847  0.00  0.00    +0.000 A 
ATOM     20  C   UNL     1      -1.178  12.443  18.006  0.00  0.00    +0.000 A 
ATOM     21  C   UNL     1      -2.199  11.684  17.436  0.00  0.00    +0.000 A 
ATOM     22  C   UNL     1      -2.310  10.334  17.742  0.00  0.00    +0.000 A 
ATOM     23  C   UNL     1      -1.394   9.742  18.609  0.00  0.00    +0.000 A 
ATOM     24  C   UNL     1      -0.306  10.476  19.129  0.00  0.00    +0.000 A 
ENDBRANCH  16  24
ENDBRANCH   1  16
TORSDOF 2
ENDMDL
MODEL 9
REMARK VINA RESULT:      -7.7      3.392      6.311
REMARK  Name = 
REMARK  3 active torsions:
REMARK  status: ('A' for Active; 'I' for Inactive)
REMARK    1  A    between atoms: C_1  and  C_2
REMARK    2  A    between atoms: C_7  and  C_8
REMARK    3  A    between atoms: C_8  and  C_10
REMARK                            x       y       z     vdW  Elec       q    Type
REMARK                         _______ _______ _______ _____ _____    ______ ____
ROOT
ATOM      1  C   UNL     1       2.310   6.554  19.147  0.00  0.00    +0.000 A 
ATOM      2  C   UNL     1       2.057   7.821  18.774  0.00  0.00    +0.000 A 
ATOM      3  C   UNL     1       1.507   8.815  19.692  0.00  0.00    +0.000 A 
ATOM      4  C   UNL     1       0.965   8.328  20.878  0.00  0.00    +0.000 A 
ATOM      5  C   UNL     1       0.309   9.157  21.779  0.00  0.00    +0.000 A 
ATOM      6  C   UNL     1       0.222  10.519  21.502  0.00  0.00    +0.000 A 
ATOM      7  C   UNL     1       0.818  11.063  20.351  0.00  0.00    +0.000 A 
ATOM      8  C   UNL     1       0.765  12.448  20.120  0.00  0.00    +0.000 A 
ATOM      9  C   UNL     1       1.376  13.017  19.003  0.00  0.00    +0.000 A 
ATOM     10  C   UNL     1       2.048  12.207  18.100  0.00  0.00    +0.000 A 
ATOM     11  C   UNL     1       2.098  10.826  18.307  0.00  0.00    +0.000 A 
ATOM     12  C   UNL     1       1.481  10.213  19.427  0.00  0.00    +0.000 A 
ATOM     13  O   UNL     1       1.109   6.973  21.235  0.00  0.00    +0.000 OA
ATOM     14  C   UNL     1       1.912   6.096  20.501  0.00  0.00    +0.000 A 
ATOM     15  O   UNL     1       2.248   5.019  20.976  0.00  0.00    +0.000 OA
ENDROOT
BRANCH   1  16
ATOM     16  C   UNL     1       2.944   5.602  18.171  0.00  0.00    +0.000 C 
ATOM     17  O   UNL     1       2.261   4.806  17.538  0.00  0.00    +0.000 OA
BRANCH  16  24
ATOM     18  C   UNL     1       4.848   3.538  19.315  0.00  0.00    +0.000 C 
ATOM     19  C   UNL     1       5.300   4.666  18.425  0.00  0.00    +0.000 A 
ATOM     20  C   UNL     1       6.667   4.733  18.092  0.00  0.00    +0.000 A 
ATOM     21  C   UNL     1       7.163   5.749  17.276  0.00  0.00    +0.000 A 
ATOM     22  C   UNL     1       6.313   6.749  16.823  0.00  0.00    +0.000 A 
ATOM     23  C   UNL     1       4.965   6.727  17.179  0.00  0.00    +0.000 A 
ATOM     24  C   UNL     1       4.430   5.663  17.935  0.00  0.00    +0.000 A 
ENDBRANCH  16  24
ENDBRANCH   1  16
TORSDOF 2
ENDMDL
