MODEL 1
REMARK VINA RESULT:      -8.7      0.000      0.000
REMARK  Name = 
REMARK  5 active torsions:
REMARK  status: ('A' for Active; 'I' for Inactive)
REMARK    1  A    between atoms: C_2  and  C_3
REMARK    2  A    between atoms: C_3  and  N_4
REMARK    3  A    between atoms: C_12  and  S_13
REMARK    4  A    between atoms: S_13  and  N_16
REMARK    5  A    between atoms: N_25  and  C_26
REMARK                            x       y       z     vdW  Elec       q    Type
REMARK                         _______ _______ _______ _____ _____    ______ ____
ROOT
ATOM      1  N   UNL     1       0.651  10.680  19.543  0.00  0.00    +0.000 N 
ATOM      2  C   UNL     1      -0.674  10.627  20.005  0.00  0.00    +0.000 C 
ATOM      3  O   UNL     1      -1.602  11.133  19.368  0.00  0.00    +0.000 OA
ATOM      4  C   UNL     1      -0.895  10.220  21.449  0.00  0.00    +0.000 C 
ATOM      5  C   UNL     1      -0.302   8.908  21.916  0.00  0.00    +0.000 C 
ATOM      6  C   UNL     1       1.206   8.879  21.772  0.00  0.00    +0.000 C 
ATOM      7  C   UNL     1       1.590   8.538  20.355  0.00  0.00    +0.000 A 
ATOM      8  C   UNL     1       2.249   7.313  20.111  0.00  0.00    +0.000 A 
ATOM      9  C   UNL     1       2.695   6.998  18.831  0.00  0.00    +0.000 A 
ATOM     10  C   UNL     1       2.529   7.917  17.795  0.00  0.00    +0.000 A 
ATOM     11  C   UNL     1       1.858   9.125  18.029  0.00  0.00    +0.000 A 
ATOM     12  C   UNL     1       1.336   9.433  19.296  0.00  0.00    +0.000 A 
ENDROOT
BRANCH   9  13
ATOM     13  S   UNL     1       3.295   5.364  18.466  0.00  0.00    +0.000 S 
ATOM     14  O   UNL     1       3.982   5.457  17.200  0.00  0.00    +0.000 OA
ATOM     15  O   UNL     1       3.980   4.886  19.648  0.00  0.00    +0.000 OA
BRANCH  13  16
ATOM     16  N   UNL     1       1.912   4.380  18.225  0.00  0.00    +0.000 NA
ATOM     17  C   UNL     1       1.202   3.848  19.432  0.00  0.00    +0.000 C 
ATOM     18  C   UNL     1       1.958   2.680  20.078  0.00  0.00    +0.000 C 
ATOM     19  O   UNL     1       2.217   1.626  19.140  0.00  0.00    +0.000 OA
ATOM     20  C   UNL     1       2.937   2.097  17.990  0.00  0.00    +0.000 C 
ATOM     21  C   UNL     1       2.172   3.225  17.286  0.00  0.00    +0.000 C 
ENDBRANCH  13  16
ENDBRANCH   9  13
BRANCH   1  22
ATOM     22  C   UNL     1       0.897  11.829  18.649  0.00  0.00    +0.000 C 
BRANCH  22  24
ATOM     23  O   UNL     1       2.215  12.942  20.332  0.00  0.00    +0.000 OA
ATOM     24  C   UNL     1       1.882  12.898  19.150  0.00  0.00    +0.000 C 
ATOM     25  N   UNL     1       2.339  13.755  18.169  0.00  0.00    +0.000 N 
ATOM     26  H   UNL     1       1.808  13.775  17.312  0.00  0.00    +0.000 HD
BRANCH  25  27
ATOM     27  C   UNL     1       3.251  14.801  18.346  0.00  0.00    +0.000 A 
ATOM     28  C   UNL     1       2.884  16.032  18.917  0.00  0.00    +0.000 A 
ATOM     29  C   UNL     1       3.853  17.009  19.174  0.00  0.00    +0.000 A 
ATOM     30  C   UNL     1       5.157  16.723  18.829  0.00  0.00    +0.000 A 
ATOM     31  C   UNL     1       5.506  15.530  18.242  0.00  0.00    +0.000 A 
ATOM     32  C   UNL     1       4.581  14.544  17.998  0.00  0.00    +0.000 A 
ATOM     33  O   UNL     1       6.836  15.450  17.974  0.00  0.00    +0.000 OA
ATOM     34  C   UNL     1       7.303  16.635  18.651  0.00  0.00    +0.000 C 
ATOM     35  O   UNL     1       6.235  17.527  19.033  0.00  0.00    +0.000 OA
ENDBRANCH  25  27
ENDBRANCH  22  24
ENDBRANCH   1  22
TORSDOF 5
ENDMDL
MODEL 2
REMARK VINA RESULT:      -8.7      0.766      1.069
REMARK  Name = 
REMARK  5 active torsions:
REMARK  status: ('A' for Active; 'I' for Inactive)
REMARK    1  A    between atoms: C_2  and  C_3
REMARK    2  A    between atoms: C_3  and  N_4
REMARK    3  A    between atoms: C_12  and  S_13
REMARK    4  A    between atoms: S_13  and  N_16
REMARK    5  A    between atoms: N_25  and  C_26
REMARK                            x       y       z     vdW  Elec       q    Type
REMARK                         _______ _______ _______ _____ _____    ______ ____
ROOT
ATOM      1  N   UNL     1       0.641  10.900  19.843  0.00  0.00    +0.000 N 
ATOM      2  C   UNL     1      -0.621  10.957  20.457  0.00  0.00    +0.000 C 
ATOM      3  O   UNL     1      -1.567  11.555  19.935  0.00  0.00    +0.000 OA
ATOM      4  C   UNL     1      -0.709  10.547  21.914  0.00  0.00    +0.000 C 
ATOM      5  C   UNL     1      -0.187   9.180  22.300  0.00  0.00    +0.000 C 
ATOM      6  C   UNL     1       1.286   9.019  21.980  0.00  0.00    +0.000 C 
ATOM      7  C   UNL     1       1.471   8.671  20.525  0.00  0.00    +0.000 A 
ATOM      8  C   UNL     1       1.984   7.396  20.198  0.00  0.00    +0.000 A 
ATOM      9  C   UNL     1       2.249   7.065  18.873  0.00  0.00    +0.000 A 
ATOM     10  C   UNL     1       2.047   8.012  17.869  0.00  0.00    +0.000 A 
ATOM     11  C   UNL     1       1.519   9.271  18.188  0.00  0.00    +0.000 A 
ATOM     12  C   UNL     1       1.177   9.602  19.510  0.00  0.00    +0.000 A 
ENDROOT
BRANCH   9  13
ATOM     13  S   UNL     1       2.653   5.390  18.429  0.00  0.00    +0.000 S 
ATOM     14  O   UNL     1       1.636   4.959  17.500  0.00  0.00    +0.000 OA
ATOM     15  O   UNL     1       4.052   5.372  18.059  0.00  0.00    +0.000 OA
BRANCH  13  16
ATOM     16  N   UNL     1       2.474   4.452  19.853  0.00  0.00    +0.000 NA
ATOM     17  C   UNL     1       3.455   3.349  20.102  0.00  0.00    +0.000 C 
ATOM     18  C   UNL     1       3.179   2.122  19.223  0.00  0.00    +0.000 C 
ATOM     19  O   UNL     1       1.834   1.645  19.377  0.00  0.00    +0.000 OA
ATOM     20  C   UNL     1       0.868   2.672  19.101  0.00  0.00    +0.000 C 
ATOM     21  C   UNL     1       1.082   3.888  20.011  0.00  0.00    +0.000 C 
ENDBRANCH  13  16
ENDBRANCH   9  13
BRANCH   1  22
ATOM     22  C   UNL     1       0.884  12.038  18.934  0.00  0.00    +0.000 C 
BRANCH  22  24
ATOM     23  O   UNL     1       2.176  13.213  20.595  0.00  0.00    +0.000 OA
ATOM     24  C   UNL     1       1.895  13.097  19.404  0.00  0.00    +0.000 C 
ATOM     25  N   UNL     1       2.435  13.860  18.389  0.00  0.00    +0.000 N 
ATOM     26  H   UNL     1       1.945  13.840  17.508  0.00  0.00    +0.000 HD
BRANCH  25  27
ATOM     27  C   UNL     1       3.387  14.875  18.535  0.00  0.00    +0.000 A 
ATOM     28  C   UNL     1       3.100  16.087  19.188  0.00  0.00    +0.000 A 
ATOM     29  C   UNL     1       4.113  17.028  19.406  0.00  0.00    +0.000 A 
ATOM     30  C   UNL     1       5.376  16.728  18.941  0.00  0.00    +0.000 A 
ATOM     31  C   UNL     1       5.644  15.556  18.275  0.00  0.00    +0.000 A 
ATOM     32  C   UNL     1       4.675  14.603  18.066  0.00  0.00    +0.000 A 
ATOM     33  O   UNL     1       6.945  15.457  17.893  0.00  0.00    +0.000 OA
ATOM     34  C   UNL     1       7.497  16.599  18.581  0.00  0.00    +0.000 C 
ATOM     35  O   UNL     1       6.489  17.496  19.090  0.00  0.00    +0.000 OA
ENDBRANCH  25  27
ENDBRANCH  22  24
ENDBRANCH   1  22
TORSDOF 5
ENDMDL
MODEL 3
REMARK VINA RESULT:      -8.5      1.271      1.526
REMARK  Name = 
REMARK  5 active torsions:
REMARK  status: ('A' for Active; 'I' for Inactive)
REMARK    1  A    between atoms: C_2  and  C_3
REMARK    2  A    between atoms: C_3  and  N_4
REMARK    3  A    between atoms: C_12  and  S_13
REMARK    4  A    between atoms: S_13  and  N_16
REMARK    5  A    between atoms: N_25  and  C_26
REMARK                            x       y       z     vdW  Elec       q    Type
REMARK                         _______ _______ _______ _____ _____    ______ ____
ROOT
ATOM      1  N   UNL     1       1.088  10.724  19.438  0.00  0.00    +0.000 N 
ATOM      2  C   UNL     1      -0.247  11.107  19.651  0.00  0.00    +0.000 C 
ATOM      3  O   UNL     1      -0.904  11.673  18.773  0.00  0.00    +0.000 OA
ATOM      4  C   UNL     1      -0.757  11.100  21.078  0.00  0.00    +0.000 C 
ATOM      5  C   UNL     1      -0.622   9.820  21.875  0.00  0.00    +0.000 C 
ATOM      6  C   UNL     1       0.822   9.385  22.018  0.00  0.00    +0.000 C 
ATOM      7  C   UNL     1       1.274   8.653  20.781  0.00  0.00    +0.000 A 
ATOM      8  C   UNL     1       1.587   7.280  20.887  0.00  0.00    +0.000 A 
ATOM      9  C   UNL     1       2.088   6.587  19.789  0.00  0.00    +0.000 A 
ATOM     10  C   UNL     1       2.322   7.263  18.591  0.00  0.00    +0.000 A 
ATOM     11  C   UNL     1       1.993   8.621  18.477  0.00  0.00    +0.000 A 
ATOM     12  C   UNL     1       1.420   9.324  19.550  0.00  0.00    +0.000 A 
ENDROOT
BRANCH   9  13
ATOM     13  S   UNL     1       2.246   4.816  19.840  0.00  0.00    +0.000 S 
ATOM     14  O   UNL     1       2.763   4.491  21.148  0.00  0.00    +0.000 OA
ATOM     15  O   UNL     1       0.991   4.261  19.380  0.00  0.00    +0.000 OA
BRANCH  13  16
ATOM     16  N   UNL     1       3.454   4.402  18.697  0.00  0.00    +0.000 NA
ATOM     17  C   UNL     1       3.024   3.770  17.409  0.00  0.00    +0.000 C 
ATOM     18  C   UNL     1       2.646   2.293  17.589  0.00  0.00    +0.000 C 
ATOM     19  O   UNL     1       3.708   1.539  18.192  0.00  0.00    +0.000 OA
ATOM     20  C   UNL     1       4.113   2.097  19.452  0.00  0.00    +0.000 C 
ATOM     21  C   UNL     1       4.557   3.557  19.290  0.00  0.00    +0.000 C 
ENDBRANCH  13  16
ENDBRANCH   9  13
BRANCH   1  22
ATOM     22  C   UNL     1       1.760  11.547  18.413  0.00  0.00    +0.000 C 
BRANCH  22  24
ATOM     23  O   UNL     1       2.418  13.160  20.078  0.00  0.00    +0.000 OA
ATOM     24  C   UNL     1       2.501  12.801  18.906  0.00  0.00    +0.000 C 
ATOM     25  N   UNL     1       3.245  13.441  17.937  0.00  0.00    +0.000 N 
ATOM     26  H   UNL     1       3.032  13.201  16.980  0.00  0.00    +0.000 HD
BRANCH  25  27
ATOM     27  C   UNL     1       4.027  14.588  18.118  0.00  0.00    +0.000 A 
ATOM     28  C   UNL     1       3.486  15.803  18.573  0.00  0.00    +0.000 A 
ATOM     29  C   UNL     1       4.324  16.891  18.844  0.00  0.00    +0.000 A 
ATOM     30  C   UNL     1       5.675  16.727  18.628  0.00  0.00    +0.000 A 
ATOM     31  C   UNL     1       6.195  15.547  18.152  0.00  0.00    +0.000 A 
ATOM     32  C   UNL     1       5.401  14.455  17.899  0.00  0.00    +0.000 A 
ATOM     33  O   UNL     1       7.546  15.595  18.000  0.00  0.00    +0.000 OA
ATOM     34  C   UNL     1       7.826  16.860  18.633  0.00  0.00    +0.000 C 
ATOM     35  O   UNL     1       6.644  17.652  18.866  0.00  0.00    +0.000 OA
ENDBRANCH  25  27
ENDBRANCH  22  24
ENDBRANCH   1  22
TORSDOF 5
ENDMDL
MODEL 4
REMARK VINA RESULT:      -8.3      1.730      2.382
REMARK  Name = 
REMARK  5 active torsions:
REMARK  status: ('A' for Active; 'I' for Inactive)
REMARK    1  A    between atoms: C_2  and  C_3
REMARK    2  A    between atoms: C_3  and  N_4
REMARK    3  A    between atoms: C_12  and  S_13
REMARK    4  A    between atoms: S_13  and  N_16
REMARK    5  A    between atoms: N_25  and  C_26
REMARK                            x       y       z     vdW  Elec       q    Type
REMARK                         _______ _______ _______ _____ _____    ______ ____
ROOT
ATOM      1  N   UNL     1       0.608  10.476  19.416  0.00  0.00    +0.000 N 
ATOM      2  C   UNL     1      -0.706  10.255  19.860  0.00  0.00    +0.000 C 
ATOM      3  O   UNL     1      -1.679  10.713  19.255  0.00  0.00    +0.000 OA
ATOM      4  C   UNL     1      -0.887   9.717  21.266  0.00  0.00    +0.000 C 
ATOM      5  C   UNL     1      -0.165   8.439  21.637  0.00  0.00    +0.000 C 
ATOM      6  C   UNL     1       1.338   8.572  21.504  0.00  0.00    +0.000 C 
ATOM      7  C   UNL     1       1.757   8.383  20.069  0.00  0.00    +0.000 A 
ATOM      8  C   UNL     1       2.536   7.253  19.738  0.00  0.00    +0.000 A 
ATOM      9  C   UNL     1       3.013   7.084  18.442  0.00  0.00    +0.000 A 
ATOM     10  C   UNL     1       2.758   8.059  17.478  0.00  0.00    +0.000 A 
ATOM     11  C   UNL     1       1.967   9.172  17.798  0.00  0.00    +0.000 A 
ATOM     12  C   UNL     1       1.415   9.327  19.080  0.00  0.00    +0.000 A 
ENDROOT
BRANCH   9  13
ATOM     13  S   UNL     1       3.776   5.552  17.958  0.00  0.00    +0.000 S 
ATOM     14  O   UNL     1       4.641   5.166  19.046  0.00  0.00    +0.000 OA
ATOM     15  O   UNL     1       2.719   4.674  17.502  0.00  0.00    +0.000 OA
BRANCH  13  16
ATOM     16  N   UNL     1       4.777   5.910  16.612  0.00  0.00    +0.000 NA
ATOM     17  C   UNL     1       5.185   4.784  15.714  0.00  0.00    +0.000 C 
ATOM     18  C   UNL     1       6.285   3.916  16.339  0.00  0.00    +0.000 C 
ATOM     19  O   UNL     1       7.428   4.696  16.723  0.00  0.00    +0.000 OA
ATOM     20  C   UNL     1       7.073   5.759  17.622  0.00  0.00    +0.000 C 
ATOM     21  C   UNL     1       6.018   6.680  16.995  0.00  0.00    +0.000 C 
ENDBRANCH  13  16
ENDBRANCH   9  13
BRANCH   1  22
ATOM     22  C   UNL     1       0.737  11.710  18.615  0.00  0.00    +0.000 C 
BRANCH  22  24
ATOM     23  O   UNL     1       1.985  12.808  20.361  0.00  0.00    +0.000 OA
ATOM     24  C   UNL     1       1.659  12.806  19.176  0.00  0.00    +0.000 C 
ATOM     25  N   UNL     1       2.070  13.736  18.243  0.00  0.00    +0.000 N 
ATOM     26  H   UNL     1       1.542  13.769  17.384  0.00  0.00    +0.000 HD
BRANCH  25  27
ATOM     27  C   UNL     1       2.921  14.821  18.479  0.00  0.00    +0.000 A 
ATOM     28  C   UNL     1       2.486  15.994  19.121  0.00  0.00    +0.000 A 
ATOM     29  C   UNL     1       3.398  17.008  19.433  0.00  0.00    +0.000 A 
ATOM     30  C   UNL     1       4.715  16.820  19.069  0.00  0.00    +0.000 A 
ATOM     31  C   UNL     1       5.129  15.685  18.412  0.00  0.00    +0.000 A 
ATOM     32  C   UNL     1       4.261  14.662  18.113  0.00  0.00    +0.000 A 
ATOM     33  O   UNL     1       6.461  15.698  18.137  0.00  0.00    +0.000 OA
ATOM     34  C   UNL     1       6.861  16.867  18.881  0.00  0.00    +0.000 C 
ATOM     35  O   UNL     1       5.746  17.671  19.317  0.00  0.00    +0.000 OA
ENDBRANCH  25  27
ENDBRANCH  22  24
ENDBRANCH   1  22
TORSDOF 5
ENDMDL
MODEL 5
REMARK VINA RESULT:      -8.3      1.306      1.850
REMARK  Name = 
REMARK  5 active torsions:
REMARK  status: ('A' for Active; 'I' for Inactive)
REMARK    1  A    between atoms: C_2  and  C_3
REMARK    2  A    between atoms: C_3  and  N_4
REMARK    3  A    between atoms: C_12  and  S_13
REMARK    4  A    between atoms: S_13  and  N_16
REMARK    5  A    between atoms: N_25  and  C_26
REMARK                            x       y       z     vdW  Elec       q    Type
REMARK                         _______ _______ _______ _____ _____    ______ ____
ROOT
ATOM      1  N   UNL     1       0.921  10.647  19.678  0.00  0.00    +0.000 N 
ATOM      2  C   UNL     1      -0.351  10.927  20.203  0.00  0.00    +0.000 C 
ATOM      3  O   UNL     1      -1.198  11.544  19.552  0.00  0.00    +0.000 OA
ATOM      4  C   UNL     1      -0.548  10.737  21.694  0.00  0.00    +0.000 C 
ATOM      5  C   UNL     1      -0.204   9.389  22.291  0.00  0.00    +0.000 C 
ATOM      6  C   UNL     1       1.252   9.027  22.082  0.00  0.00    +0.000 C 
ATOM      7  C   UNL     1       1.458   8.459  20.702  0.00  0.00    +0.000 A 
ATOM      8  C   UNL     1       1.833   7.103  20.579  0.00  0.00    +0.000 A 
ATOM      9  C   UNL     1       2.114   6.562  19.329  0.00  0.00    +0.000 A 
ATOM     10  C   UNL     1       2.067   7.375  18.196  0.00  0.00    +0.000 A 
ATOM     11  C   UNL     1       1.675   8.716  18.312  0.00  0.00    +0.000 A 
ATOM     12  C   UNL     1       1.317   9.265  19.554  0.00  0.00    +0.000 A 
ENDROOT
BRANCH   9  13
ATOM     13  S   UNL     1       2.341   4.808  19.139  0.00  0.00    +0.000 S 
ATOM     14  O   UNL     1       1.640   4.186  20.237  0.00  0.00    +0.000 OA
ATOM     15  O   UNL     1       2.013   4.480  17.768  0.00  0.00    +0.000 OA
BRANCH  13  16
ATOM     16  N   UNL     1       4.013   4.505  19.366  0.00  0.00    +0.000 NA
ATOM     17  C   UNL     1       4.987   5.564  18.950  0.00  0.00    +0.000 C 
ATOM     18  C   UNL     1       5.172   5.613  17.427  0.00  0.00    +0.000 C 
ATOM     19  O   UNL     1       5.555   4.336  16.894  0.00  0.00    +0.000 OA
ATOM     20  C   UNL     1       4.614   3.307  17.240  0.00  0.00    +0.000 C 
ATOM     21  C   UNL     1       4.458   3.194  18.762  0.00  0.00    +0.000 C 
ENDBRANCH  13  16
ENDBRANCH   9  13
BRANCH   1  22
ATOM     22  C   UNL     1       1.333  11.613  18.639  0.00  0.00    +0.000 C 
BRANCH  22  24
ATOM     23  O   UNL     1       2.378  13.022  20.292  0.00  0.00    +0.000 OA
ATOM     24  C   UNL     1       2.207  12.792  19.097  0.00  0.00    +0.000 C 
ATOM     25  N   UNL     1       2.762  13.523  18.067  0.00  0.00    +0.000 N 
ATOM     26  H   UNL     1       2.351  13.393  17.155  0.00  0.00    +0.000 HD
BRANCH  25  27
ATOM     27  C   UNL     1       3.609  14.630  18.201  0.00  0.00    +0.000 A 
ATOM     28  C   UNL     1       3.140  15.890  18.612  0.00  0.00    +0.000 A 
ATOM     29  C   UNL     1       4.039  16.938  18.837  0.00  0.00    +0.000 A 
ATOM     30  C   UNL     1       5.378  16.691  18.623  0.00  0.00    +0.000 A 
ATOM     31  C   UNL     1       5.828  15.466  18.191  0.00  0.00    +0.000 A 
ATOM     32  C   UNL     1       4.972  14.411  17.983  0.00  0.00    +0.000 A 
ATOM     33  O   UNL     1       7.178  15.431  18.033  0.00  0.00    +0.000 OA
ATOM     34  C   UNL     1       7.533  16.701  18.616  0.00  0.00    +0.000 C 
ATOM     35  O   UNL     1       6.399  17.568  18.822  0.00  0.00    +0.000 OA
ENDBRANCH  25  27
ENDBRANCH  22  24
ENDBRANCH   1  22
TORSDOF 5
ENDMDL
MODEL 6
REMARK VINA RESULT:      -8.3      1.007      1.048
REMARK  Name = 
REMARK  5 active torsions:
REMARK  status: ('A' for Active; 'I' for Inactive)
REMARK    1  A    between atoms: C_2  and  C_3
REMARK    2  A    between atoms: C_3  and  N_4
REMARK    3  A    between atoms: C_12  and  S_13
REMARK    4  A    between atoms: S_13  and  N_16
REMARK    5  A    between atoms: N_25  and  C_26
REMARK                            x       y       z     vdW  Elec       q    Type
REMARK                         _______ _______ _______ _____ _____    ______ ____
ROOT
ATOM      1  N   UNL     1       0.415  10.919  19.535  0.00  0.00    +0.000 N 
ATOM      2  C   UNL     1      -0.857  10.934  20.129  0.00  0.00    +0.000 C 
ATOM      3  O   UNL     1      -1.844  11.376  19.532  0.00  0.00    +0.000 OA
ATOM      4  C   UNL     1      -0.934  10.695  21.624  0.00  0.00    +0.000 C 
ATOM      5  C   UNL     1      -0.298   9.437  22.177  0.00  0.00    +0.000 C 
ATOM      6  C   UNL     1       1.188   9.374  21.888  0.00  0.00    +0.000 C 
ATOM      7  C   UNL     1       1.430   8.872  20.488  0.00  0.00    +0.000 A 
ATOM      8  C   UNL     1       2.060   7.619  20.321  0.00  0.00    +0.000 A 
ATOM      9  C   UNL     1       2.377   7.156  19.048  0.00  0.00    +0.000 A 
ATOM     10  C   UNL     1       2.110   7.954  17.935  0.00  0.00    +0.000 A 
ATOM     11  C   UNL     1       1.465   9.189  18.096  0.00  0.00    +0.000 A 
ATOM     12  C   UNL     1       1.071   9.644  19.365  0.00  0.00    +0.000 A 
ENDROOT
BRANCH   9  13
ATOM     13  S   UNL     1       2.937   5.485  18.813  0.00  0.00    +0.000 S 
ATOM     14  O   UNL     1       3.542   5.438  17.504  0.00  0.00    +0.000 OA
ATOM     15  O   UNL     1       3.691   5.117  19.993  0.00  0.00    +0.000 OA
BRANCH  13  16
ATOM     16  N   UNL     1       1.532   4.503  18.761  0.00  0.00    +0.000 NA
ATOM     17  C   UNL     1       1.065   3.867  20.033  0.00  0.00    +0.000 C 
ATOM     18  C   UNL     1       1.928   2.662  20.428  0.00  0.00    +0.000 C 
ATOM     19  O   UNL     1       2.002   1.689  19.375  0.00  0.00    +0.000 OA
ATOM     20  C   UNL     1       2.491   2.261  18.151  0.00  0.00    +0.000 C 
ATOM     21  C   UNL     1       1.607   3.431  17.700  0.00  0.00    +0.000 C 
ENDBRANCH  13  16
ENDBRANCH   9  13
BRANCH   1  22
ATOM     22  C   UNL     1       0.571  11.956  18.497  0.00  0.00    +0.000 C 
BRANCH  22  24
ATOM     23  O   UNL     1       0.742  13.991  19.778  0.00  0.00    +0.000 OA
ATOM     24  C   UNL     1       1.251  13.268  18.924  0.00  0.00    +0.000 C 
ATOM     25  N   UNL     1       2.444  13.527  18.282  0.00  0.00    +0.000 N 
ATOM     26  H   UNL     1       2.622  12.999  17.441  0.00  0.00    +0.000 HD
BRANCH  25  27
ATOM     27  C   UNL     1       3.273  14.634  18.494  0.00  0.00    +0.000 A 
ATOM     28  C   UNL     1       3.252  15.762  17.654  0.00  0.00    +0.000 A 
ATOM     29  C   UNL     1       4.019  16.890  17.967  0.00  0.00    +0.000 A 
ATOM     30  C   UNL     1       4.798  16.840  19.103  0.00  0.00    +0.000 A 
ATOM     31  C   UNL     1       4.839  15.723  19.904  0.00  0.00    +0.000 A 
ATOM     32  C   UNL     1       4.081  14.609  19.635  0.00  0.00    +0.000 A 
ATOM     33  O   UNL     1       5.673  15.873  20.967  0.00  0.00    +0.000 OA
ATOM     34  C   UNL     1       5.979  17.278  20.852  0.00  0.00    +0.000 C 
ATOM     35  O   UNL     1       5.578  17.844  19.587  0.00  0.00    +0.000 OA
ENDBRANCH  25  27
ENDBRANCH  22  24
ENDBRANCH   1  22
TORSDOF 5
ENDMDL
MODEL 7
REMARK VINA RESULT:      -8.2      1.478      1.791
REMARK  Name = 
REMARK  5 active torsions:
REMARK  status: ('A' for Active; 'I' for Inactive)
REMARK    1  A    between atoms: C_2  and  C_3
REMARK    2  A    between atoms: C_3  and  N_4
REMARK    3  A    between atoms: C_12  and  S_13
REMARK    4  A    between atoms: S_13  and  N_16
REMARK    5  A    between atoms: N_25  and  C_26
REMARK                            x       y       z     vdW  Elec       q    Type
REMARK                         _______ _______ _______ _____ _____    ______ ____
ROOT
ATOM      1  N   UNL     1       0.547  10.927  19.887  0.00  0.00    +0.000 N 
ATOM      2  C   UNL     1      -0.704  10.957  20.525  0.00  0.00    +0.000 C 
ATOM      3  O   UNL     1      -1.674  11.528  20.019  0.00  0.00    +0.000 OA
ATOM      4  C   UNL     1      -0.755  10.553  21.986  0.00  0.00    +0.000 C 
ATOM      5  C   UNL     1      -0.191   9.201  22.369  0.00  0.00    +0.000 C 
ATOM      6  C   UNL     1       1.278   9.075  22.021  0.00  0.00    +0.000 C 
ATOM      7  C   UNL     1       1.444   8.722  20.566  0.00  0.00    +0.000 A 
ATOM      8  C   UNL     1       1.981   7.458  20.236  0.00  0.00    +0.000 A 
ATOM      9  C   UNL     1       2.228   7.125  18.908  0.00  0.00    +0.000 A 
ATOM     10  C   UNL     1       1.985   8.061  17.902  0.00  0.00    +0.000 A 
ATOM     11  C   UNL     1       1.432   9.309  18.225  0.00  0.00    +0.000 A 
ATOM     12  C   UNL     1       1.108   9.640  19.551  0.00  0.00    +0.000 A 
ENDROOT
BRANCH   9  13
ATOM     13  S   UNL     1       2.664   5.458  18.465  0.00  0.00    +0.000 S 
ATOM     14  O   UNL     1       1.664   5.012  17.526  0.00  0.00    +0.000 OA
ATOM     15  O   UNL     1       4.068   5.464  18.110  0.00  0.00    +0.000 OA
BRANCH  13  16
ATOM     16  N   UNL     1       2.487   4.515  19.886  0.00  0.00    +0.000 NA
ATOM     17  C   UNL     1       3.462   3.405  20.126  0.00  0.00    +0.000 C 
ATOM     18  C   UNL     1       3.176   2.184  19.243  0.00  0.00    +0.000 C 
ATOM     19  O   UNL     1       1.829   1.714  19.401  0.00  0.00    +0.000 OA
ATOM     20  C   UNL     1       0.867   2.747  19.133  0.00  0.00    +0.000 C 
ATOM     21  C   UNL     1       1.092   3.958  20.048  0.00  0.00    +0.000 C 
ENDBRANCH  13  16
ENDBRANCH   9  13
BRANCH   1  22
ATOM     22  C   UNL     1       0.744  12.065  18.968  0.00  0.00    +0.000 C 
BRANCH  22  24
ATOM     23  O   UNL     1       2.953  12.673  18.220  0.00  0.00    +0.000 OA
ATOM     24  C   UNL     1       2.081  12.817  19.073  0.00  0.00    +0.000 C 
ATOM     25  N   UNL     1       2.184  13.643  20.174  0.00  0.00    +0.000 N 
ATOM     26  H   UNL     1       1.520  13.482  20.916  0.00  0.00    +0.000 HD
BRANCH  25  27
ATOM     27  C   UNL     1       3.279  14.452  20.500  0.00  0.00    +0.000 A 
ATOM     28  C   UNL     1       4.159  14.139  21.551  0.00  0.00    +0.000 A 
ATOM     29  C   UNL     1       5.301  14.918  21.771  0.00  0.00    +0.000 A 
ATOM     30  C   UNL     1       5.509  15.998  20.940  0.00  0.00    +0.000 A 
ATOM     31  C   UNL     1       4.628  16.318  19.934  0.00  0.00    +0.000 A 
ATOM     32  C   UNL     1       3.511  15.559  19.680  0.00  0.00    +0.000 A 
ATOM     33  O   UNL     1       5.010  17.421  19.237  0.00  0.00    +0.000 OA
ATOM     34  C   UNL     1       6.329  17.622  19.785  0.00  0.00    +0.000 C 
ATOM     35  O   UNL     1       6.573  16.844  20.975  0.00  0.00    +0.000 OA
ENDBRANCH  25  27
ENDBRANCH  22  24
ENDBRANCH   1  22
TORSDOF 5
ENDMDL
MODEL 8
REMARK VINA RESULT:      -8.2      1.222      1.397
REMARK  Name = 
REMARK  5 active torsions:
REMARK  status: ('A' for Active; 'I' for Inactive)
REMARK    1  A    between atoms: C_2  and  C_3
REMARK    2  A    between atoms: C_3  and  N_4
REMARK    3  A    between atoms: C_12  and  S_13
REMARK    4  A    between atoms: S_13  and  N_16
REMARK    5  A    between atoms: N_25  and  C_26
REMARK                            x       y       z     vdW  Elec       q    Type
REMARK                         _______ _______ _______ _____ _____    ______ ____
ROOT
ATOM      1  N   UNL     1       0.577  10.670  19.555  0.00  0.00    +0.000 N 
ATOM      2  C   UNL     1      -0.731  10.606  20.062  0.00  0.00    +0.000 C 
ATOM      3  O   UNL     1      -1.687  11.090  19.448  0.00  0.00    +0.000 OA
ATOM      4  C   UNL     1      -0.898  10.219  21.518  0.00  0.00    +0.000 C 
ATOM      5  C   UNL     1      -0.271   8.923  21.986  0.00  0.00    +0.000 C 
ATOM      6  C   UNL     1       1.231   8.912  21.791  0.00  0.00    +0.000 C 
ATOM      7  C   UNL     1       1.572   8.554  20.367  0.00  0.00    +0.000 A 
ATOM      8  C   UNL     1       2.239   7.334  20.120  0.00  0.00    +0.000 A 
ATOM      9  C   UNL     1       2.646   7.005  18.831  0.00  0.00    +0.000 A 
ATOM     10  C   UNL     1       2.433   7.905  17.787  0.00  0.00    +0.000 A 
ATOM     11  C   UNL     1       1.753   9.107  18.025  0.00  0.00    +0.000 A 
ATOM     12  C   UNL     1       1.270   9.428  19.304  0.00  0.00    +0.000 A 
ENDROOT
BRANCH   9  13
ATOM     13  S   UNL     1       3.256   5.373  18.471  0.00  0.00    +0.000 S 
ATOM     14  O   UNL     1       3.916   5.459  17.190  0.00  0.00    +0.000 OA
ATOM     15  O   UNL     1       3.970   4.915  19.644  0.00  0.00    +0.000 OA
BRANCH  13  16
ATOM     16  N   UNL     1       1.879   4.372  18.269  0.00  0.00    +0.000 NA
ATOM     17  C   UNL     1       1.213   3.827  19.495  0.00  0.00    +0.000 C 
ATOM     18  C   UNL     1       2.004   2.667  20.114  0.00  0.00    +0.000 C 
ATOM     19  O   UNL     1       2.247   1.619  19.164  0.00  0.00    +0.000 OA
ATOM     20  C   UNL     1       2.925   2.103  17.995  0.00  0.00    +0.000 C 
ATOM     21  C   UNL     1       2.124   3.224  17.319  0.00  0.00    +0.000 C 
ENDBRANCH  13  16
ENDBRANCH   9  13
BRANCH   1  22
ATOM     22  C   UNL     1       0.776  11.807  18.635  0.00  0.00    +0.000 C 
BRANCH  22  24
ATOM     23  O   UNL     1       2.997  12.513  18.018  0.00  0.00    +0.000 OA
ATOM     24  C   UNL     1       2.067  12.625  18.813  0.00  0.00    +0.000 C 
ATOM     25  N   UNL     1       2.062  13.466  19.907  0.00  0.00    +0.000 N 
ATOM     26  H   UNL     1       1.360  13.282  20.607  0.00  0.00    +0.000 HD
BRANCH  25  27
ATOM     27  C   UNL     1       3.094  14.330  20.289  0.00  0.00    +0.000 A 
ATOM     28  C   UNL     1       3.901  14.087  21.414  0.00  0.00    +0.000 A 
ATOM     29  C   UNL     1       4.991  14.919  21.694  0.00  0.00    +0.000 A 
ATOM     30  C   UNL     1       5.220  15.982  20.846  0.00  0.00    +0.000 A 
ATOM     31  C   UNL     1       4.408  16.234  19.766  0.00  0.00    +0.000 A 
ATOM     32  C   UNL     1       3.346  15.421  19.452  0.00  0.00    +0.000 A 
ATOM     33  O   UNL     1       4.799  17.331  19.064  0.00  0.00    +0.000 OA
ATOM     34  C   UNL     1       6.062  17.604  19.705  0.00  0.00    +0.000 C 
ATOM     35  O   UNL     1       6.244  16.873  20.935  0.00  0.00    +0.000 OA
ENDBRANCH  25  27
ENDBRANCH  22  24
ENDBRANCH   1  22
TORSDOF 5
ENDMDL
MODEL 9
REMARK VINA RESULT:      -8.2      3.401      6.396
REMARK  Name = 
REMARK  5 active torsions:
REMARK  status: ('A' for Active; 'I' for Inactive)
REMARK    1  A    between atoms: C_2  and  C_3
REMARK    2  A    between atoms: C_3  and  N_4
REMARK    3  A    between atoms: C_12  and  S_13
REMARK    4  A    between atoms: S_13  and  N_16
REMARK    5  A    between atoms: N_25  and  C_26
REMARK                            x       y       z     vdW  Elec       q    Type
REMARK                         _______ _______ _______ _____ _____    ______ ____
ROOT
ATOM      1  N   UNL     1       0.524  10.502  20.569  0.00  0.00    +0.000 N 
ATOM      2  C   UNL     1       1.291  11.673  20.455  0.00  0.00    +0.000 C 
ATOM      3  O   UNL     1       1.555  12.371  21.437  0.00  0.00    +0.000 OA
ATOM      4  C   UNL     1       1.515  12.228  19.062  0.00  0.00    +0.000 C 
ATOM      5  C   UNL     1       2.110  11.309  18.017  0.00  0.00    +0.000 C 
ATOM      6  C   UNL     1       1.247  10.088  17.772  0.00  0.00    +0.000 C 
ATOM      7  C   UNL     1       1.505   9.043  18.827  0.00  0.00    +0.000 A 
ATOM      8  C   UNL     1       2.106   7.826  18.437  0.00  0.00    +0.000 A 
ATOM      9  C   UNL     1       2.285   6.803  19.362  0.00  0.00    +0.000 A 
ATOM     10  C   UNL     1       1.830   6.966  20.671  0.00  0.00    +0.000 A 
ATOM     11  C   UNL     1       1.253   8.181  21.066  0.00  0.00    +0.000 A 
ATOM     12  C   UNL     1       1.126   9.253  20.167  0.00  0.00    +0.000 A 
ENDROOT
BRANCH   9  13
ATOM     13  S   UNL     1       3.259   5.374  18.945  0.00  0.00    +0.000 S 
ATOM     14  O   UNL     1       3.252   5.283  17.505  0.00  0.00    +0.000 OA
ATOM     15  O   UNL     1       4.505   5.478  19.676  0.00  0.00    +0.000 OA
BRANCH  13  16
ATOM     16  N   UNL     1       2.409   4.012  19.547  0.00  0.00    +0.000 NA
ATOM     17  C   UNL     1       3.152   3.038  20.408  0.00  0.00    +0.000 C 
ATOM     18  C   UNL     1       4.080   2.133  19.587  0.00  0.00    +0.000 C 
ATOM     19  O   UNL     1       3.372   1.447  18.543  0.00  0.00    +0.000 OA
ATOM     20  C   UNL     1       2.685   2.361  17.674  0.00  0.00    +0.000 C 
ATOM     21  C   UNL     1       1.702   3.237  18.462  0.00  0.00    +0.000 C 
ENDBRANCH  13  16
ENDBRANCH   9  13
BRANCH   1  22
ATOM     22  C   UNL     1      -0.381  10.526  21.735  0.00  0.00    +0.000 C 
BRANCH  22  24
ATOM     23  O   UNL     1      -1.954  12.050  20.729  0.00  0.00    +0.000 OA
ATOM     24  C   UNL     1      -1.440  11.642  21.767  0.00  0.00    +0.000 C 
ATOM     25  N   UNL     1      -1.742  12.103  23.031  0.00  0.00    +0.000 N 
ATOM     26  H   UNL     1      -1.084  11.872  23.760  0.00  0.00    +0.000 HD
BRANCH  25  27
ATOM     27  C   UNL     1      -2.678  13.095  23.347  0.00  0.00    +0.000 A 
ATOM     28  C   UNL     1      -2.333  14.455  23.434  0.00  0.00    +0.000 A 
ATOM     29  C   UNL     1      -3.322  15.422  23.645  0.00  0.00    +0.000 A 
ATOM     30  C   UNL     1      -4.623  14.989  23.781  0.00  0.00    +0.000 A 
ATOM     31  C   UNL     1      -4.951  13.655  23.727  0.00  0.00    +0.000 A 
ATOM     32  C   UNL     1      -4.006  12.684  23.499  0.00  0.00    +0.000 A 
ATOM     33  O   UNL     1      -6.283  13.437  23.892  0.00  0.00    +0.000 OA
ATOM     34  C   UNL     1      -6.769  14.795  23.843  0.00  0.00    +0.000 C 
ATOM     35  O   UNL     1      -5.718  15.777  23.954  0.00  0.00    +0.000 OA
ENDBRANCH  25  27
ENDBRANCH  22  24
ENDBRANCH   1  22
TORSDOF 5
ENDMDL
