MODEL 1
REMARK VINA RESULT:      -7.4      0.000      0.000
REMARK  Name = 
REMARK  8 active torsions:
REMARK  status: ('A' for Active; 'I' for Inactive)
REMARK    1  A    between atoms: C_1  and  C_2
REMARK    2  A    between atoms: C_2  and  N_3
REMARK    3  A    between atoms: N_3  and  C_4
REMARK    4  A    between atoms: C_4  and  C_5
REMARK    5  A    between atoms: C_6  and  C_8
REMARK    6  A    between atoms: C_8  and  C_9
REMARK    7  A    between atoms: C_20  and  C_21
REMARK    8  A    between atoms: C_21  and  N_22
REMARK                            x       y       z     vdW  Elec       q    Type
REMARK                         _______ _______ _______ _____ _____    ______ ____
ROOT
ATOM      1  C   UNL     1       3.729   4.558  18.337  0.00  0.00    +0.000 C 
ATOM      2  C   UNL     1       3.071   3.620  17.349  0.00  0.00    +0.000 C 
ATOM      3  C   UNL     1       3.132   3.206  18.794  0.00  0.00    +0.000 C 
ENDROOT
BRANCH   1   4
ATOM      4  C   UNL     1       2.891   5.809  18.752  0.00  0.00    +0.000 A 
ATOM      5  C   UNL     1       2.683   6.900  17.936  0.00  0.00    +0.000 A 
ATOM      6  C   UNL     1       2.028   7.982  18.606  0.00  0.00    +0.000 A 
ATOM      7  C   UNL     1       1.694   9.275  18.141  0.00  0.00    +0.000 A 
ATOM      8  C   UNL     1       1.124  10.194  19.017  0.00  0.00    +0.000 A 
ATOM      9  F   UNL     1       0.841  11.428  18.580  0.00  0.00    +0.000 F 
ATOM     10  C   UNL     1       0.851   9.864  20.334  0.00  0.00    +0.000 A 
ATOM     11  C   UNL     1       1.134   8.577  20.807  0.00  0.00    +0.000 A 
ATOM     12  C   UNL     1       1.725   7.642  19.929  0.00  0.00    +0.000 A 
ATOM     13  S   UNL     1       2.159   6.002  20.271  0.00  0.00    +0.000 S 
ENDBRANCH   1   4
BRANCH   1  15
ATOM     14  N   UNL     1       6.193   4.659  17.549  0.00  0.00    +0.000 N 
ATOM     15  C   UNL     1       5.215   4.778  18.553  0.00  0.00    +0.000 C 
ATOM     16  O   UNL     1       5.552   5.061  19.706  0.00  0.00    +0.000 OA
BRANCH  14  18
ATOM     17  C   UNL     1       7.801   6.491  18.047  0.00  0.00    +0.000 C 
ATOM     18  C   UNL     1       7.570   4.991  17.941  0.00  0.00    +0.000 C 
ENDBRANCH  14  18
BRANCH  14  19
ATOM     19  C   UNL     1       6.020   4.200  16.172  0.00  0.00    +0.000 C 
ATOM     20  C   UNL     1       5.653   5.295  15.190  0.00  0.00    +0.000 C 
ENDBRANCH  14  19
ENDBRANCH   1  15
BRANCH   3  21
ATOM     21  C   UNL     1       3.990   2.084  19.273  0.00  0.00    +0.000 C 
BRANCH  21  22
ATOM     22  N   UNL     1       3.877   0.972  18.339  0.00  0.00    +0.000 NA
ATOM     23  H   UNL     1       4.007   1.310  17.389  0.00  0.00    +0.000 HD
ATOM     24  H   UNL     1       2.938   0.580  18.381  0.00  0.00    +0.000 HD
ENDBRANCH  21  22
ENDBRANCH   3  21
TORSDOF 6
ENDMDL
MODEL 2
REMARK VINA RESULT:      -7.0      1.474      1.944
REMARK  Name = 
REMARK  8 active torsions:
REMARK  status: ('A' for Active; 'I' for Inactive)
REMARK    1  A    between atoms: C_1  and  C_2
REMARK    2  A    between atoms: C_2  and  N_3
REMARK    3  A    between atoms: N_3  and  C_4
REMARK    4  A    between atoms: C_4  and  C_5
REMARK    5  A    between atoms: C_6  and  C_8
REMARK    6  A    between atoms: C_8  and  C_9
REMARK    7  A    between atoms: C_20  and  C_21
REMARK    8  A    between atoms: C_21  and  N_22
REMARK                            x       y       z     vdW  Elec       q    Type
REMARK                         _______ _______ _______ _____ _____    ______ ____
ROOT
ATOM      1  C   UNL     1       3.083   5.287  18.547  0.00  0.00    +0.000 C 
ATOM      2  C   UNL     1       2.176   4.523  17.609  0.00  0.00    +0.000 C 
ATOM      3  C   UNL     1       2.305   4.040  19.027  0.00  0.00    +0.000 C 
ENDROOT
BRANCH   1   4
ATOM      4  C   UNL     1       2.525   6.644  19.083  0.00  0.00    +0.000 A 
ATOM      5  C   UNL     1       2.098   6.842  20.377  0.00  0.00    +0.000 A 
ATOM      6  C   UNL     1       1.476   8.118  20.572  0.00  0.00    +0.000 A 
ATOM      7  C   UNL     1       0.864   8.668  21.722  0.00  0.00    +0.000 A 
ATOM      8  C   UNL     1       0.248   9.914  21.641  0.00  0.00    +0.000 A 
ATOM      9  F   UNL     1      -0.360  10.415  22.725  0.00  0.00    +0.000 F 
ATOM     10  C   UNL     1       0.240  10.642  20.463  0.00  0.00    +0.000 A 
ATOM     11  C   UNL     1       0.876  10.136  19.323  0.00  0.00    +0.000 A 
ATOM     12  C   UNL     1       1.492   8.868  19.391  0.00  0.00    +0.000 A 
ATOM     13  S   UNL     1       2.340   8.038  18.132  0.00  0.00    +0.000 S 
ENDBRANCH   1   4
BRANCH   1  15
ATOM     14  N   UNL     1       5.440   5.093  17.494  0.00  0.00    +0.000 N 
ATOM     15  C   UNL     1       4.599   5.237  18.612  0.00  0.00    +0.000 C 
ATOM     16  O   UNL     1       5.089   5.312  19.742  0.00  0.00    +0.000 OA
BRANCH  14  18
ATOM     17  C   UNL     1       7.457   6.546  17.593  0.00  0.00    +0.000 C 
ATOM     18  C   UNL     1       6.886   5.147  17.757  0.00  0.00    +0.000 C 
ENDBRANCH  14  18
BRANCH  14  19
ATOM     19  C   UNL     1       5.059   4.848  16.105  0.00  0.00    +0.000 C 
ATOM     20  C   UNL     1       5.961   3.876  15.371  0.00  0.00    +0.000 C 
ENDBRANCH  14  19
ENDBRANCH   1  15
BRANCH   3  21
ATOM     21  C   UNL     1       2.994   2.765  19.382  0.00  0.00    +0.000 C 
BRANCH  21  22
ATOM     22  N   UNL     1       2.437   1.688  18.575  0.00  0.00    +0.000 NA
ATOM     23  H   UNL     1       2.006   0.995  19.182  0.00  0.00    +0.000 HD
ATOM     24  H   UNL     1       3.186   1.210  18.076  0.00  0.00    +0.000 HD
ENDBRANCH  21  22
ENDBRANCH   3  21
TORSDOF 6
ENDMDL
MODEL 3
REMARK VINA RESULT:      -6.9      3.685      5.271
REMARK  Name = 
REMARK  8 active torsions:
REMARK  status: ('A' for Active; 'I' for Inactive)
REMARK    1  A    between atoms: C_1  and  C_2
REMARK    2  A    between atoms: C_2  and  N_3
REMARK    3  A    between atoms: N_3  and  C_4
REMARK    4  A    between atoms: C_4  and  C_5
REMARK    5  A    between atoms: C_6  and  C_8
REMARK    6  A    between atoms: C_8  and  C_9
REMARK    7  A    between atoms: C_20  and  C_21
REMARK    8  A    between atoms: C_21  and  N_22
REMARK                            x       y       z     vdW  Elec       q    Type
REMARK                         _______ _______ _______ _____ _____    ______ ____
ROOT
ATOM      1  C   UNL     1       6.786   5.251  18.131  0.00  0.00    +0.000 C 
ATOM      2  C   UNL     1       7.730   5.673  19.234  0.00  0.00    +0.000 C 
ATOM      3  C   UNL     1       7.062   6.745  18.418  0.00  0.00    +0.000 C 
ENDROOT
BRANCH   1   4
ATOM      4  C   UNL     1       5.379   4.753  18.590  0.00  0.00    +0.000 A 
ATOM      5  C   UNL     1       4.868   3.509  18.290  0.00  0.00    +0.000 A 
ATOM      6  C   UNL     1       3.499   3.357  18.681  0.00  0.00    +0.000 A 
ATOM      7  C   UNL     1       2.613   2.270  18.498  0.00  0.00    +0.000 A 
ATOM      8  C   UNL     1       1.285   2.393  18.898  0.00  0.00    +0.000 A 
ATOM      9  F   UNL     1       0.442   1.372  18.691  0.00  0.00    +0.000 F 
ATOM     10  C   UNL     1       0.813   3.549  19.495  0.00  0.00    +0.000 A 
ATOM     11  C   UNL     1       1.681   4.623  19.725  0.00  0.00    +0.000 A 
ATOM     12  C   UNL     1       3.027   4.514  19.311  0.00  0.00    +0.000 A 
ATOM     13  S   UNL     1       4.284   5.690  19.488  0.00  0.00    +0.000 S 
ENDBRANCH   1   4
BRANCH   1  15
ATOM     14  N   UNL     1       6.356   4.880  15.605  0.00  0.00    +0.000 N 
ATOM     15  C   UNL     1       7.149   4.722  16.756  0.00  0.00    +0.000 C 
ATOM     16  O   UNL     1       8.212   4.098  16.686  0.00  0.00    +0.000 OA
BRANCH  14  18
ATOM     17  C   UNL     1       5.860   3.773  13.433  0.00  0.00    +0.000 C 
ATOM     18  C   UNL     1       6.920   4.363  14.350  0.00  0.00    +0.000 C 
ENDBRANCH  14  18
BRANCH  14  19
ATOM     19  C   UNL     1       5.015   5.454  15.507  0.00  0.00    +0.000 C 
ATOM     20  C   UNL     1       4.988   6.967  15.421  0.00  0.00    +0.000 C 
ENDBRANCH  14  19
ENDBRANCH   1  15
BRANCH   3  21
ATOM     21  C   UNL     1       7.809   7.610  17.460  0.00  0.00    +0.000 C 
BRANCH  21  22
ATOM     22  N   UNL     1       8.232   8.822  18.150  0.00  0.00    +0.000 NA
ATOM     23  H   UNL     1       8.993   9.259  17.636  0.00  0.00    +0.000 HD
ATOM     24  H   UNL     1       8.601   8.584  19.069  0.00  0.00    +0.000 HD
ENDBRANCH  21  22
ENDBRANCH   3  21
TORSDOF 6
ENDMDL
MODEL 4
REMARK VINA RESULT:      -6.8      1.030      1.104
REMARK  Name = 
REMARK  8 active torsions:
REMARK  status: ('A' for Active; 'I' for Inactive)
REMARK    1  A    between atoms: C_1  and  C_2
REMARK    2  A    between atoms: C_2  and  N_3
REMARK    3  A    between atoms: N_3  and  C_4
REMARK    4  A    between atoms: C_4  and  C_5
REMARK    5  A    between atoms: C_6  and  C_8
REMARK    6  A    between atoms: C_8  and  C_9
REMARK    7  A    between atoms: C_20  and  C_21
REMARK    8  A    between atoms: C_21  and  N_22
REMARK                            x       y       z     vdW  Elec       q    Type
REMARK                         _______ _______ _______ _____ _____    ______ ____
ROOT
ATOM      1  C   UNL     1       3.439   5.306  18.362  0.00  0.00    +0.000 C 
ATOM      2  C   UNL     1       2.749   4.380  17.386  0.00  0.00    +0.000 C 
ATOM      3  C   UNL     1       2.852   3.953  18.824  0.00  0.00    +0.000 C 
ENDROOT
BRANCH   1   4
ATOM      4  C   UNL     1       2.619   6.556  18.813  0.00  0.00    +0.000 A 
ATOM      5  C   UNL     1       2.375   7.647  18.008  0.00  0.00    +0.000 A 
ATOM      6  C   UNL     1       1.747   8.729  18.706  0.00  0.00    +0.000 A 
ATOM      7  C   UNL     1       1.392  10.021  18.256  0.00  0.00    +0.000 A 
ATOM      8  C   UNL     1       0.859  10.939  19.157  0.00  0.00    +0.000 A 
ATOM      9  F   UNL     1       0.556  12.173  18.733  0.00  0.00    +0.000 F 
ATOM     10  C   UNL     1       0.643  10.608  20.484  0.00  0.00    +0.000 A 
ATOM     11  C   UNL     1       0.948   9.321  20.944  0.00  0.00    +0.000 A 
ATOM     12  C   UNL     1       1.501   8.387  20.041  0.00  0.00    +0.000 A 
ATOM     13  S   UNL     1       1.952   6.748  20.362  0.00  0.00    +0.000 S 
ENDBRANCH   1   4
BRANCH   1  15
ATOM     14  N   UNL     1       5.803   5.926  17.509  0.00  0.00    +0.000 N 
ATOM     15  C   UNL     1       4.932   5.520  18.535  0.00  0.00    +0.000 C 
ATOM     16  O   UNL     1       5.378   5.294  19.664  0.00  0.00    +0.000 OA
BRANCH  14  18
ATOM     17  C   UNL     1       7.672   7.567  17.581  0.00  0.00    +0.000 C 
ATOM     18  C   UNL     1       7.203   6.156  17.897  0.00  0.00    +0.000 C 
ENDBRANCH  14  18
BRANCH  14  19
ATOM     19  C   UNL     1       5.503   6.105  16.090  0.00  0.00    +0.000 C 
ATOM     20  C   UNL     1       5.709   4.863  15.246  0.00  0.00    +0.000 C 
ENDBRANCH  14  19
ENDBRANCH   1  15
BRANCH   3  21
ATOM     21  C   UNL     1       3.720   2.824  19.268  0.00  0.00    +0.000 C 
BRANCH  21  22
ATOM     22  N   UNL     1       3.545   2.629  20.701  0.00  0.00    +0.000 NA
ATOM     23  H   UNL     1       2.688   2.109  20.872  0.00  0.00    +0.000 HD
ATOM     24  H   UNL     1       3.432   3.532  21.160  0.00  0.00    +0.000 HD
ENDBRANCH  21  22
ENDBRANCH   3  21
TORSDOF 6
ENDMDL
MODEL 5
REMARK VINA RESULT:      -6.8      1.809      3.956
REMARK  Name = 
REMARK  8 active torsions:
REMARK  status: ('A' for Active; 'I' for Inactive)
REMARK    1  A    between atoms: C_1  and  C_2
REMARK    2  A    between atoms: C_2  and  N_3
REMARK    3  A    between atoms: N_3  and  C_4
REMARK    4  A    between atoms: C_4  and  C_5
REMARK    5  A    between atoms: C_6  and  C_8
REMARK    6  A    between atoms: C_8  and  C_9
REMARK    7  A    between atoms: C_20  and  C_21
REMARK    8  A    between atoms: C_21  and  N_22
REMARK                            x       y       z     vdW  Elec       q    Type
REMARK                         _______ _______ _______ _____ _____    ______ ____
ROOT
ATOM      1  C   UNL     1       4.227   5.192  18.627  0.00  0.00    +0.000 C 
ATOM      2  C   UNL     1       5.543   5.163  19.372  0.00  0.00    +0.000 C 
ATOM      3  C   UNL     1       5.568   5.410  17.889  0.00  0.00    +0.000 C 
ENDROOT
BRANCH   1   4
ATOM      4  C   UNL     1       3.369   6.485  18.807  0.00  0.00    +0.000 A 
ATOM      5  C   UNL     1       2.686   6.799  19.961  0.00  0.00    +0.000 A 
ATOM      6  C   UNL     1       1.842   7.947  19.816  0.00  0.00    +0.000 A 
ATOM      7  C   UNL     1       0.949   8.545  20.736  0.00  0.00    +0.000 A 
ATOM      8  C   UNL     1       0.165   9.622  20.330  0.00  0.00    +0.000 A 
ATOM      9  F   UNL     1      -0.704  10.163  21.195  0.00  0.00    +0.000 F 
ATOM     10  C   UNL     1       0.256  10.140  19.049  0.00  0.00    +0.000 A 
ATOM     11  C   UNL     1       1.162   9.592  18.134  0.00  0.00    +0.000 A 
ATOM     12  C   UNL     1       1.953   8.491  18.532  0.00  0.00    +0.000 A 
ATOM     13  S   UNL     1       3.139   7.650  17.594  0.00  0.00    +0.000 S 
ENDBRANCH   1   4
BRANCH   1  15
ATOM     14  N   UNL     1       2.969   2.973  19.065  0.00  0.00    +0.000 N 
ATOM     15  C   UNL     1       3.378   4.007  18.205  0.00  0.00    +0.000 C 
ATOM     16  O   UNL     1       3.059   3.974  17.013  0.00  0.00    +0.000 OA
BRANCH  14  18
ATOM     17  C   UNL     1       0.611   2.248  18.737  0.00  0.00    +0.000 C 
ATOM     18  C   UNL     1       2.082   1.955  18.483  0.00  0.00    +0.000 C 
ENDBRANCH  14  18
BRANCH  14  19
ATOM     19  C   UNL     1       3.353   2.755  20.459  0.00  0.00    +0.000 C 
ATOM     20  C   UNL     1       2.414   3.380  21.471  0.00  0.00    +0.000 C 
ENDBRANCH  14  19
ENDBRANCH   1  15
BRANCH   3  21
ATOM     21  C   UNL     1       6.107   4.416  16.917  0.00  0.00    +0.000 C 
BRANCH  21  22
ATOM     22  N   UNL     1       7.559   4.382  17.034  0.00  0.00    +0.000 NA
ATOM     23  H   UNL     1       7.865   5.098  17.688  0.00  0.00    +0.000 HD
ATOM     24  H   UNL     1       7.982   4.611  16.136  0.00  0.00    +0.000 HD
ENDBRANCH  21  22
ENDBRANCH   3  21
TORSDOF 6
ENDMDL
MODEL 6
REMARK VINA RESULT:      -6.7      2.138      4.040
REMARK  Name = 
REMARK  8 active torsions:
REMARK  status: ('A' for Active; 'I' for Inactive)
REMARK    1  A    between atoms: C_1  and  C_2
REMARK    2  A    between atoms: C_2  and  N_3
REMARK    3  A    between atoms: N_3  and  C_4
REMARK    4  A    between atoms: C_4  and  C_5
REMARK    5  A    between atoms: C_6  and  C_8
REMARK    6  A    between atoms: C_8  and  C_9
REMARK    7  A    between atoms: C_20  and  C_21
REMARK    8  A    between atoms: C_21  and  N_22
REMARK                            x       y       z     vdW  Elec       q    Type
REMARK                         _______ _______ _______ _____ _____    ______ ____
ROOT
ATOM      1  C   UNL     1       3.524   5.785  18.458  0.00  0.00    +0.000 C 
ATOM      2  C   UNL     1       4.980   5.737  18.864  0.00  0.00    +0.000 C 
ATOM      3  C   UNL     1       4.644   6.141  17.455  0.00  0.00    +0.000 C 
ENDROOT
BRANCH   1   4
ATOM      4  C   UNL     1       2.709   7.010  18.983  0.00  0.00    +0.000 A 
ATOM      5  C   UNL     1       2.201   7.105  20.260  0.00  0.00    +0.000 A 
ATOM      6  C   UNL     1       1.352   8.245  20.440  0.00  0.00    +0.000 A 
ATOM      7  C   UNL     1       0.605   8.657  21.568  0.00  0.00    +0.000 A 
ATOM      8  C   UNL     1      -0.221   9.773  21.473  0.00  0.00    +0.000 A 
ATOM      9  F   UNL     1      -0.953  10.138  22.534  0.00  0.00    +0.000 F 
ATOM     10  C   UNL     1      -0.312  10.508  20.303  0.00  0.00    +0.000 A 
ATOM     11  C   UNL     1       0.450  10.145  19.187  0.00  0.00    +0.000 A 
ATOM     12  C   UNL     1       1.281   9.007  19.268  0.00  0.00    +0.000 A 
ATOM     13  S   UNL     1       2.315   8.364  18.039  0.00  0.00    +0.000 S 
ENDBRANCH   1   4
BRANCH   1  15
ATOM     14  N   UNL     1       2.908   3.270  18.417  0.00  0.00    +0.000 N 
ATOM     15  C   UNL     1       2.621   4.614  18.116  0.00  0.00    +0.000 C 
ATOM     16  O   UNL     1       1.581   4.898  17.514  0.00  0.00    +0.000 OA
BRANCH  14  18
ATOM     17  C   UNL     1       0.717   2.287  19.066  0.00  0.00    +0.000 C 
ATOM     18  C   UNL     1       1.868   2.290  18.073  0.00  0.00    +0.000 C 
ENDBRANCH  14  18
BRANCH  14  19
ATOM     19  C   UNL     1       4.134   2.718  18.989  0.00  0.00    +0.000 C 
ATOM     20  C   UNL     1       4.055   2.425  20.474  0.00  0.00    +0.000 C 
ENDBRANCH  14  19
ENDBRANCH   1  15
BRANCH   3  21
ATOM     21  C   UNL     1       4.954   5.282  16.276  0.00  0.00    +0.000 C 
BRANCH  21  22
ATOM     22  N   UNL     1       5.577   6.102  15.245  0.00  0.00    +0.000 NA
ATOM     23  H   UNL     1       5.182   7.039  15.270  0.00  0.00    +0.000 HD
ATOM     24  H   UNL     1       5.363   5.721  14.325  0.00  0.00    +0.000 HD
ENDBRANCH  21  22
ENDBRANCH   3  21
TORSDOF 6
ENDMDL
MODEL 7
REMARK VINA RESULT:      -6.6      1.259      3.134
REMARK  Name = 
REMARK  8 active torsions:
REMARK  status: ('A' for Active; 'I' for Inactive)
REMARK    1  A    between atoms: C_1  and  C_2
REMARK    2  A    between atoms: C_2  and  N_3
REMARK    3  A    between atoms: N_3  and  C_4
REMARK    4  A    between atoms: C_4  and  C_5
REMARK    5  A    between atoms: C_6  and  C_8
REMARK    6  A    between atoms: C_8  and  C_9
REMARK    7  A    between atoms: C_20  and  C_21
REMARK    8  A    between atoms: C_21  and  N_22
REMARK                            x       y       z     vdW  Elec       q    Type
REMARK                         _______ _______ _______ _____ _____    ______ ____
ROOT
ATOM      1  C   UNL     1       4.810   5.697  17.724  0.00  0.00    +0.000 C 
ATOM      2  C   UNL     1       6.003   6.418  17.139  0.00  0.00    +0.000 C 
ATOM      3  C   UNL     1       5.047   5.740  16.197  0.00  0.00    +0.000 C 
ENDROOT
BRANCH   1   4
ATOM      4  C   UNL     1       3.642   6.604  18.225  0.00  0.00    +0.000 A 
ATOM      5  C   UNL     1       3.137   7.670  17.512  0.00  0.00    +0.000 A 
ATOM      6  C   UNL     1       2.188   8.442  18.258  0.00  0.00    +0.000 A 
ATOM      7  C   UNL     1       1.501   9.627  17.908  0.00  0.00    +0.000 A 
ATOM      8  C   UNL     1       0.679  10.246  18.846  0.00  0.00    +0.000 A 
ATOM      9  F   UNL     1       0.057  11.387  18.521  0.00  0.00    +0.000 F 
ATOM     10  C   UNL     1       0.498   9.713  20.112  0.00  0.00    +0.000 A 
ATOM     11  C   UNL     1       1.135   8.519  20.467  0.00  0.00    +0.000 A 
ATOM     12  C   UNL     1       1.981   7.891  19.527  0.00  0.00    +0.000 A 
ATOM     13  S   UNL     1       2.867   6.417  19.723  0.00  0.00    +0.000 S 
ENDBRANCH   1   4
BRANCH   1  15
ATOM     14  N   UNL     1       3.796   3.362  18.193  0.00  0.00    +0.000 N 
ATOM     15  C   UNL     1       4.791   4.335  18.393  0.00  0.00    +0.000 C 
ATOM     16  O   UNL     1       5.719   4.109  19.175  0.00  0.00    +0.000 OA
BRANCH  14  18
ATOM     17  C   UNL     1       3.806   2.170  20.377  0.00  0.00    +0.000 C 
ATOM     18  C   UNL     1       3.999   2.073  18.872  0.00  0.00    +0.000 C 
ENDBRANCH  14  18
BRANCH  14  19
ATOM     19  C   UNL     1       2.556   3.485  17.429  0.00  0.00    +0.000 C 
ATOM     20  C   UNL     1       1.296   3.455  18.272  0.00  0.00    +0.000 C 
ENDBRANCH  14  19
ENDBRANCH   1  15
BRANCH   3  21
ATOM     21  C   UNL     1       5.413   4.522  15.418  0.00  0.00    +0.000 C 
BRANCH  21  22
ATOM     22  N   UNL     1       6.758   4.691  14.885  0.00  0.00    +0.000 NA
ATOM     23  H   UNL     1       7.030   3.854  14.375  0.00  0.00    +0.000 HD
ATOM     24  H   UNL     1       7.422   4.792  15.651  0.00  0.00    +0.000 HD
ENDBRANCH  21  22
ENDBRANCH   3  21
TORSDOF 6
ENDMDL
MODEL 8
REMARK VINA RESULT:      -6.6      1.492      3.681
REMARK  Name = 
REMARK  8 active torsions:
REMARK  status: ('A' for Active; 'I' for Inactive)
REMARK    1  A    between atoms: C_1  and  C_2
REMARK    2  A    between atoms: C_2  and  N_3
REMARK    3  A    between atoms: N_3  and  C_4
REMARK    4  A    between atoms: C_4  and  C_5
REMARK    5  A    between atoms: C_6  and  C_8
REMARK    6  A    between atoms: C_8  and  C_9
REMARK    7  A    between atoms: C_20  and  C_21
REMARK    8  A    between atoms: C_21  and  N_22
REMARK                            x       y       z     vdW  Elec       q    Type
REMARK                         _______ _______ _______ _____ _____    ______ ____
ROOT
ATOM      1  C   UNL     1       4.109   5.150  18.643  0.00  0.00    +0.000 C 
ATOM      2  C   UNL     1       5.468   5.245  19.299  0.00  0.00    +0.000 C 
ATOM      3  C   UNL     1       5.371   5.491  17.819  0.00  0.00    +0.000 C 
ENDROOT
BRANCH   1   4
ATOM      4  C   UNL     1       3.148   6.357  18.886  0.00  0.00    +0.000 A 
ATOM      5  C   UNL     1       2.993   7.405  18.006  0.00  0.00    +0.000 A 
ATOM      6  C   UNL     1       2.185   8.464  18.534  0.00  0.00    +0.000 A 
ATOM      7  C   UNL     1       1.844   9.717  17.974  0.00  0.00    +0.000 A 
ATOM      8  C   UNL     1       1.102  10.624  18.725  0.00  0.00    +0.000 A 
ATOM      9  F   UNL     1       0.811  11.823  18.203  0.00  0.00    +0.000 F 
ATOM     10  C   UNL     1       0.667  10.320  20.004  0.00  0.00    +0.000 A 
ATOM     11  C   UNL     1       0.956   9.070  20.563  0.00  0.00    +0.000 A 
ATOM     12  C   UNL     1       1.720   8.147  19.815  0.00  0.00    +0.000 A 
ATOM     13  S   UNL     1       2.198   6.551  20.280  0.00  0.00    +0.000 S 
ENDBRANCH   1   4
BRANCH   1  15
ATOM     14  N   UNL     1       3.037   2.853  19.170  0.00  0.00    +0.000 N 
ATOM     15  C   UNL     1       3.348   3.890  18.272  0.00  0.00    +0.000 C 
ATOM     16  O   UNL     1       3.011   3.797  17.088  0.00  0.00    +0.000 OA
BRANCH  14  18
ATOM     17  C   UNL     1       0.734   2.064  18.654  0.00  0.00    +0.000 C 
ATOM     18  C   UNL     1       2.222   1.752  18.635  0.00  0.00    +0.000 C 
ENDBRANCH  14  18
BRANCH  14  19
ATOM     19  C   UNL     1       3.462   2.707  20.560  0.00  0.00    +0.000 C 
ATOM     20  C   UNL     1       2.370   2.969  21.579  0.00  0.00    +0.000 C 
ENDBRANCH  14  19
ENDBRANCH   1  15
BRANCH   3  21
ATOM     21  C   UNL     1       5.935   4.551  16.808  0.00  0.00    +0.000 C 
BRANCH  21  22
ATOM     22  N   UNL     1       7.364   4.400  17.050  0.00  0.00    +0.000 NA
ATOM     23  H   UNL     1       7.868   4.466  16.169  0.00  0.00    +0.000 HD
ATOM     24  H   UNL     1       7.554   3.472  17.424  0.00  0.00    +0.000 HD
ENDBRANCH  21  22
ENDBRANCH   3  21
TORSDOF 6
ENDMDL
MODEL 9
REMARK VINA RESULT:      -6.6      1.408      1.883
REMARK  Name = 
REMARK  8 active torsions:
REMARK  status: ('A' for Active; 'I' for Inactive)
REMARK    1  A    between atoms: C_1  and  C_2
REMARK    2  A    between atoms: C_2  and  N_3
REMARK    3  A    between atoms: N_3  and  C_4
REMARK    4  A    between atoms: C_4  and  C_5
REMARK    5  A    between atoms: C_6  and  C_8
REMARK    6  A    between atoms: C_8  and  C_9
REMARK    7  A    between atoms: C_20  and  C_21
REMARK    8  A    between atoms: C_21  and  N_22
REMARK                            x       y       z     vdW  Elec       q    Type
REMARK                         _______ _______ _______ _____ _____    ______ ____
ROOT
ATOM      1  C   UNL     1       3.482   3.669  18.427  0.00  0.00    +0.000 C 
ATOM      2  C   UNL     1       2.581   2.455  18.467  0.00  0.00    +0.000 C 
ATOM      3  C   UNL     1       3.550   2.661  19.598  0.00  0.00    +0.000 C 
ENDROOT
BRANCH   1   4
ATOM      4  C   UNL     1       2.807   5.031  18.785  0.00  0.00    +0.000 A 
ATOM      5  C   UNL     1       2.664   6.075  17.897  0.00  0.00    +0.000 A 
ATOM      6  C   UNL     1       2.168   7.269  18.512  0.00  0.00    +0.000 A 
ATOM      7  C   UNL     1       1.943   8.553  17.962  0.00  0.00    +0.000 A 
ATOM      8  C   UNL     1       1.528   9.591  18.792  0.00  0.00    +0.000 A 
ATOM      9  F   UNL     1       1.349  10.813  18.272  0.00  0.00    +0.000 F 
ATOM     10  C   UNL     1       1.304   9.391  20.144  0.00  0.00    +0.000 A 
ATOM     11  C   UNL     1       1.479   8.120  20.702  0.00  0.00    +0.000 A 
ATOM     12  C   UNL     1       1.913   7.063  19.872  0.00  0.00    +0.000 A 
ATOM     13  S   UNL     1       2.194   5.415  20.320  0.00  0.00    +0.000 S 
ENDBRANCH   1   4
BRANCH   1  15
ATOM     14  N   UNL     1       5.893   4.526  18.038  0.00  0.00    +0.000 N 
ATOM     15  C   UNL     1       4.735   3.863  17.594  0.00  0.00    +0.000 C 
ATOM     16  O   UNL     1       4.690   3.411  16.446  0.00  0.00    +0.000 OA
BRANCH  14  18
ATOM     17  C   UNL     1       6.918   5.639  16.063  0.00  0.00    +0.000 C 
ATOM     18  C   UNL     1       7.032   4.540  17.107  0.00  0.00    +0.000 C 
ENDBRANCH  14  18
BRANCH  14  19
ATOM     19  C   UNL     1       6.094   5.246  19.293  0.00  0.00    +0.000 C 
ATOM     20  C   UNL     1       7.524   5.683  19.542  0.00  0.00    +0.000 C 
ENDBRANCH  14  19
ENDBRANCH   1  15
BRANCH   3  21
ATOM     21  C   UNL     1       4.733   1.778  19.814  0.00  0.00    +0.000 C 
BRANCH  21  22
ATOM     22  N   UNL     1       5.083   1.798  21.228  0.00  0.00    +0.000 NA
ATOM     23  H   UNL     1       5.794   1.095  21.413  0.00  0.00    +0.000 HD
ATOM     24  H   UNL     1       4.271   1.544  21.788  0.00  0.00    +0.000 HD
ENDBRANCH  21  22
ENDBRANCH   3  21
TORSDOF 6
ENDMDL
