MODEL 1
REMARK VINA RESULT:      -6.8      0.000      0.000
REMARK  Name = 
REMARK  8 active torsions:
REMARK  status: ('A' for Active; 'I' for Inactive)
REMARK    1  A    between atoms: C_1  and  N_2
REMARK    2  A    between atoms: C_5  and  C_6
REMARK    3  A    between atoms: CA_8  and  C_9
REMARK    4  A    between atoms: C_9  and  OXT_11
REMARK    5  A    between atoms: C_13  and  O_14
REMARK    6  A    between atoms: O_14  and  C_15
REMARK    7  A    between atoms: C_16  and  O_17
REMARK    8  A    between atoms: O_17  and  C_18
REMARK                            x       y       z     vdW  Elec       q    Type
REMARK                         _______ _______ _______ _____ _____    ______ ____
ROOT
ATOM      1  C   UNL     1       3.790   4.986  18.981  0.00  0.00    +0.000 A 
ATOM      2  N   UNL     1       3.386   6.274  19.215  0.00  0.00    +0.000 NA
ATOM      3  CA  UNL     1       2.249   6.427  19.940  0.00  0.00    +0.000 A 
ATOM      4  C   UNL     1       1.488   5.391  20.447  0.00  0.00    +0.000 A 
ATOM      5  C   UNL     1       1.903   4.082  20.204  0.00  0.00    +0.000 A 
ATOM      6  C   UNL     1       3.078   3.856  19.455  0.00  0.00    +0.000 A 
ENDROOT
BRANCH   1  11
ATOM      7  C   UNL     1       5.780   4.267  14.125  0.00  0.00    +0.000 C 
ATOM      8  N   UNL     1       6.706   4.031  15.210  0.00  0.00    +0.000 N 
ATOM      9  C   UNL     1       6.341   4.402  16.457  0.00  0.00    +0.000 A 
ATOM     10  N   UNL     1       5.107   4.529  16.876  0.00  0.00    +0.000 NA
ATOM     11  C   UNL     1       5.053   4.871  18.223  0.00  0.00    +0.000 A 
ATOM     12  C   UNL     1       6.298   5.072  18.789  0.00  0.00    +0.000 A 
ATOM     13  S   UNL     1       7.536   4.753  17.644  0.00  0.00    +0.000 S 
ATOM     14  H   UNL     1       7.684   4.147  14.972  0.00  0.00    +0.000 HD
ENDBRANCH   1  11
BRANCH   3  15
ATOM     15  C   UNL     1       1.829   7.838  20.201  0.00  0.00    +0.000 C 
ATOM     16  O   UNL     1       1.619   8.671  19.337  0.00  0.00    +0.000 OA
BRANCH  15  17
ATOM     17  OXT UNL     1       1.711   8.067  21.527  0.00  0.00    +0.000 OA
ATOM     18  HXT UNL     1       2.562   7.844  21.969  0.00  0.00    +0.000 HD
ENDBRANCH  15  17
ENDBRANCH   3  15
BRANCH   5  19
ATOM     19  O   UNL     1       1.208   2.995  20.663  0.00  0.00    +0.000 OA
ATOM     20  C   UNL     1       1.536   2.452  21.936  0.00  0.00    +0.000 C 
ENDBRANCH   5  19
BRANCH   6  21
ATOM     21  O   UNL     1       3.606   2.634  19.135  0.00  0.00    +0.000 OA
ATOM     22  C   UNL     1       3.076   1.840  18.093  0.00  0.00    +0.000 C 
ENDBRANCH   6  21
TORSDOF 5
ENDMDL
MODEL 2
REMARK VINA RESULT:      -6.5      3.030      5.637
REMARK  Name = 
REMARK  8 active torsions:
REMARK  status: ('A' for Active; 'I' for Inactive)
REMARK    1  A    between atoms: C_1  and  N_2
REMARK    2  A    between atoms: C_5  and  C_6
REMARK    3  A    between atoms: CA_8  and  C_9
REMARK    4  A    between atoms: C_9  and  OXT_11
REMARK    5  A    between atoms: C_13  and  O_14
REMARK    6  A    between atoms: O_14  and  C_15
REMARK    7  A    between atoms: C_16  and  O_17
REMARK    8  A    between atoms: O_17  and  C_18
REMARK                            x       y       z     vdW  Elec       q    Type
REMARK                         _______ _______ _______ _____ _____    ______ ____
ROOT
ATOM      1  C   UNL     1       3.559   6.035  17.986  0.00  0.00    +0.000 A 
ATOM      2  N   UNL     1       4.873   6.244  17.663  0.00  0.00    +0.000 NA
ATOM      3  CA  UNL     1       5.589   5.147  17.310  0.00  0.00    +0.000 A 
ATOM      4  C   UNL     1       5.090   3.859  17.255  0.00  0.00    +0.000 A 
ATOM      5  C   UNL     1       3.752   3.652  17.587  0.00  0.00    +0.000 A 
ATOM      6  C   UNL     1       2.954   4.754  17.964  0.00  0.00    +0.000 A 
ENDROOT
BRANCH   1  11
ATOM      7  C   UNL     1       1.350   8.694  21.999  0.00  0.00    +0.000 C 
ATOM      8  N   UNL     1       0.911   9.096  20.681  0.00  0.00    +0.000 N 
ATOM      9  C   UNL     1       1.584   8.621  19.609  0.00  0.00    +0.000 A 
ATOM     10  N   UNL     1       2.280   7.511  19.586  0.00  0.00    +0.000 NA
ATOM     11  C   UNL     1       2.810   7.263  18.324  0.00  0.00    +0.000 A 
ATOM     12  C   UNL     1       2.552   8.269  17.412  0.00  0.00    +0.000 A 
ATOM     13  S   UNL     1       1.573   9.487  18.123  0.00  0.00    +0.000 S 
ATOM     14  H   UNL     1       0.568  10.047  20.614  0.00  0.00    +0.000 HD
ENDBRANCH   1  11
BRANCH   3  15
ATOM     15  C   UNL     1       7.019   5.393  16.945  0.00  0.00    +0.000 C 
ATOM     16  O   UNL     1       7.426   6.381  16.359  0.00  0.00    +0.000 OA
BRANCH  15  17
ATOM     17  OXT UNL     1       7.802   4.372  17.356  0.00  0.00    +0.000 OA
ATOM     18  HXT UNL     1       7.962   3.765  16.598  0.00  0.00    +0.000 HD
ENDBRANCH  15  17
ENDBRANCH   3  15
BRANCH   5  19
ATOM     19  O   UNL     1       3.175   2.411  17.566  0.00  0.00    +0.000 OA
ATOM     20  C   UNL     1       3.587   1.441  18.520  0.00  0.00    +0.000 C 
ENDBRANCH   5  19
BRANCH   6  21
ATOM     21  O   UNL     1       1.632   4.706  18.317  0.00  0.00    +0.000 OA
ATOM     22  C   UNL     1       1.203   4.133  19.535  0.00  0.00    +0.000 C 
ENDBRANCH   6  21
TORSDOF 5
ENDMDL
MODEL 3
REMARK VINA RESULT:      -6.3      2.146      4.046
REMARK  Name = 
REMARK  8 active torsions:
REMARK  status: ('A' for Active; 'I' for Inactive)
REMARK    1  A    between atoms: C_1  and  N_2
REMARK    2  A    between atoms: C_5  and  C_6
REMARK    3  A    between atoms: CA_8  and  C_9
REMARK    4  A    between atoms: C_9  and  OXT_11
REMARK    5  A    between atoms: C_13  and  O_14
REMARK    6  A    between atoms: O_14  and  C_15
REMARK    7  A    between atoms: C_16  and  O_17
REMARK    8  A    between atoms: O_17  and  C_18
REMARK                            x       y       z     vdW  Elec       q    Type
REMARK                         _______ _______ _______ _____ _____    ______ ____
ROOT
ATOM      1  C   UNL     1       4.739   4.127  18.754  0.00  0.00    +0.000 A 
ATOM      2  N   UNL     1       5.352   3.082  19.392  0.00  0.00    +0.000 NA
ATOM      3  CA  UNL     1       4.548   2.259  20.111  0.00  0.00    +0.000 A 
ATOM      4  C   UNL     1       3.179   2.403  20.239  0.00  0.00    +0.000 A 
ATOM      5  C   UNL     1       2.561   3.470  19.589  0.00  0.00    +0.000 A 
ATOM      6  C   UNL     1       3.344   4.362  18.825  0.00  0.00    +0.000 A 
ENDROOT
BRANCH   1  11
ATOM      7  C   UNL     1       6.843   4.707  13.928  0.00  0.00    +0.000 C 
ATOM      8  N   UNL     1       7.520   5.426  14.983  0.00  0.00    +0.000 N 
ATOM      9  C   UNL     1       6.921   5.505  16.193  0.00  0.00    +0.000 A 
ATOM     10  N   UNL     1       6.042   4.652  16.656  0.00  0.00    +0.000 NA
ATOM     11  C   UNL     1       5.649   4.971  17.952  0.00  0.00    +0.000 A 
ATOM     12  C   UNL     1       6.208   6.144  18.422  0.00  0.00    +0.000 A 
ATOM     13  S   UNL     1       7.290   6.800  17.262  0.00  0.00    +0.000 S 
ATOM     14  H   UNL     1       8.038   6.243  14.682  0.00  0.00    +0.000 HD
ENDBRANCH   1  11
BRANCH   3  15
ATOM     15  C   UNL     1       5.230   1.114  20.790  0.00  0.00    +0.000 C 
ATOM     16  O   UNL     1       5.605   1.117  21.949  0.00  0.00    +0.000 OA
BRANCH  15  17
ATOM     17  OXT UNL     1       5.371   0.070  19.944  0.00  0.00    +0.000 OA
ATOM     18  HXT UNL     1       6.041  -0.552  20.309  0.00  0.00    +0.000 HD
ENDBRANCH  15  17
ENDBRANCH   3  15
BRANCH   5  19
ATOM     19  O   UNL     1       1.212   3.692  19.665  0.00  0.00    +0.000 OA
ATOM     20  C   UNL     1       0.331   2.857  18.924  0.00  0.00    +0.000 C 
ENDBRANCH   5  19
BRANCH   6  21
ATOM     21  O   UNL     1       2.880   5.451  18.136  0.00  0.00    +0.000 OA
ATOM     22  C   UNL     1       2.568   6.668  18.783  0.00  0.00    +0.000 C 
ENDBRANCH   6  21
TORSDOF 5
ENDMDL
MODEL 4
REMARK VINA RESULT:      -6.3      1.380      3.517
REMARK  Name = 
REMARK  8 active torsions:
REMARK  status: ('A' for Active; 'I' for Inactive)
REMARK    1  A    between atoms: C_1  and  N_2
REMARK    2  A    between atoms: C_5  and  C_6
REMARK    3  A    between atoms: CA_8  and  C_9
REMARK    4  A    between atoms: C_9  and  OXT_11
REMARK    5  A    between atoms: C_13  and  O_14
REMARK    6  A    between atoms: O_14  and  C_15
REMARK    7  A    between atoms: C_16  and  O_17
REMARK    8  A    between atoms: O_17  and  C_18
REMARK                            x       y       z     vdW  Elec       q    Type
REMARK                         _______ _______ _______ _____ _____    ______ ____
ROOT
ATOM      1  C   UNL     1       3.921   5.213  19.186  0.00  0.00    +0.000 A 
ATOM      2  N   UNL     1       3.534   4.110  19.900  0.00  0.00    +0.000 NA
ATOM      3  CA  UNL     1       2.421   4.246  20.664  0.00  0.00    +0.000 A 
ATOM      4  C   UNL     1       1.669   5.401  20.768  0.00  0.00    +0.000 A 
ATOM      5  C   UNL     1       2.069   6.521  20.041  0.00  0.00    +0.000 A 
ATOM      6  C   UNL     1       3.219   6.443  19.226  0.00  0.00    +0.000 A 
ENDROOT
BRANCH   1  11
ATOM      7  C   UNL     1       5.481   4.247  14.217  0.00  0.00    +0.000 C 
ATOM      8  N   UNL     1       6.474   3.986  15.234  0.00  0.00    +0.000 N 
ATOM      9  C   UNL     1       6.230   4.412  16.493  0.00  0.00    +0.000 A 
ATOM     10  N   UNL     1       5.041   4.623  17.002  0.00  0.00    +0.000 NA
ATOM     11  C   UNL     1       5.112   5.003  18.338  0.00  0.00    +0.000 A 
ATOM     12  C   UNL     1       6.407   5.146  18.799  0.00  0.00    +0.000 A 
ATOM     13  S   UNL     1       7.532   4.724  17.573  0.00  0.00    +0.000 S 
ATOM     14  H   UNL     1       7.436   4.038  14.918  0.00  0.00    +0.000 HD
ENDBRANCH   1  11
BRANCH   3  15
ATOM     15  C   UNL     1       2.002   3.029  21.426  0.00  0.00    +0.000 C 
ATOM     16  O   UNL     1       2.737   2.369  22.138  0.00  0.00    +0.000 OA
BRANCH  15  17
ATOM     17  OXT UNL     1       0.694   2.761  21.220  0.00  0.00    +0.000 OA
ATOM     18  HXT UNL     1       0.447   3.046  20.311  0.00  0.00    +0.000 HD
ENDBRANCH  15  17
ENDBRANCH   3  15
BRANCH   5  19
ATOM     19  O   UNL     1       1.387   7.708  20.087  0.00  0.00    +0.000 OA
ATOM     20  C   UNL     1       1.288   8.400  21.325  0.00  0.00    +0.000 C 
ENDBRANCH   5  19
BRANCH   6  21
ATOM     21  O   UNL     1       3.733   7.455  18.460  0.00  0.00    +0.000 OA
ATOM     22  C   UNL     1       3.002   8.032  17.397  0.00  0.00    +0.000 C 
ENDBRANCH   6  21
TORSDOF 5
ENDMDL
MODEL 5
REMARK VINA RESULT:      -6.2      1.178      1.457
REMARK  Name = 
REMARK  8 active torsions:
REMARK  status: ('A' for Active; 'I' for Inactive)
REMARK    1  A    between atoms: C_1  and  N_2
REMARK    2  A    between atoms: C_5  and  C_6
REMARK    3  A    between atoms: CA_8  and  C_9
REMARK    4  A    between atoms: C_9  and  OXT_11
REMARK    5  A    between atoms: C_13  and  O_14
REMARK    6  A    between atoms: O_14  and  C_15
REMARK    7  A    between atoms: C_16  and  O_17
REMARK    8  A    between atoms: O_17  and  C_18
REMARK                            x       y       z     vdW  Elec       q    Type
REMARK                         _______ _______ _______ _____ _____    ______ ____
ROOT
ATOM      1  C   UNL     1       4.142   5.417  18.336  0.00  0.00    +0.000 A 
ATOM      2  N   UNL     1       3.579   6.640  18.081  0.00  0.00    +0.000 NA
ATOM      3  CA  UNL     1       2.577   7.027  18.909  0.00  0.00    +0.000 A 
ATOM      4  C   UNL     1       2.096   6.285  19.972  0.00  0.00    +0.000 A 
ATOM      5  C   UNL     1       2.672   5.041  20.226  0.00  0.00    +0.000 A 
ATOM      6  C   UNL     1       3.719   4.581  19.399  0.00  0.00    +0.000 A 
ENDROOT
BRANCH   1  11
ATOM      7  C   UNL     1       5.275   3.826  13.413  0.00  0.00    +0.000 C 
ATOM      8  N   UNL     1       6.333   3.635  14.379  0.00  0.00    +0.000 N 
ATOM      9  C   UNL     1       6.203   4.211  15.595  0.00  0.00    +0.000 A 
ATOM     10  N   UNL     1       5.066   4.533  16.160  0.00  0.00    +0.000 NA
ATOM     11  C   UNL     1       5.255   5.057  17.434  0.00  0.00    +0.000 A 
ATOM     12  C   UNL     1       6.587   5.191  17.781  0.00  0.00    +0.000 A 
ATOM     13  S   UNL     1       7.596   4.580  16.535  0.00  0.00    +0.000 S 
ATOM     14  H   UNL     1       7.269   3.606  13.991  0.00  0.00    +0.000 HD
ENDBRANCH   1  11
BRANCH   3  15
ATOM     15  C   UNL     1       1.983   8.370  18.627  0.00  0.00    +0.000 C 
ATOM     16  O   UNL     1       1.332   9.022  19.424  0.00  0.00    +0.000 OA
BRANCH  15  17
ATOM     17  OXT UNL     1       2.267   8.766  17.367  0.00  0.00    +0.000 OA
ATOM     18  HXT UNL     1       2.735   9.632  17.400  0.00  0.00    +0.000 HD
ENDBRANCH  15  17
ENDBRANCH   3  15
BRANCH   5  19
ATOM     19  O   UNL     1       2.256   4.236  21.253  0.00  0.00    +0.000 OA
ATOM     20  C   UNL     1       1.205   3.306  21.021  0.00  0.00    +0.000 C 
ENDBRANCH   5  19
BRANCH   6  21
ATOM     21  O   UNL     1       4.377   3.386  19.523  0.00  0.00    +0.000 OA
ATOM     22  C   UNL     1       3.870   2.192  18.962  0.00  0.00    +0.000 C 
ENDBRANCH   6  21
TORSDOF 5
ENDMDL
MODEL 6
REMARK VINA RESULT:      -6.1      2.968      5.542
REMARK  Name = 
REMARK  8 active torsions:
REMARK  status: ('A' for Active; 'I' for Inactive)
REMARK    1  A    between atoms: C_1  and  N_2
REMARK    2  A    between atoms: C_5  and  C_6
REMARK    3  A    between atoms: CA_8  and  C_9
REMARK    4  A    between atoms: C_9  and  OXT_11
REMARK    5  A    between atoms: C_13  and  O_14
REMARK    6  A    between atoms: O_14  and  C_15
REMARK    7  A    between atoms: C_16  and  O_17
REMARK    8  A    between atoms: O_17  and  C_18
REMARK                            x       y       z     vdW  Elec       q    Type
REMARK                         _______ _______ _______ _____ _____    ______ ____
ROOT
ATOM      1  C   UNL     1       3.530   5.992  19.086  0.00  0.00    +0.000 A 
ATOM      2  N   UNL     1       4.878   6.226  19.024  0.00  0.00    +0.000 NA
ATOM      3  CA  UNL     1       5.680   5.132  19.001  0.00  0.00    +0.000 A 
ATOM      4  C   UNL     1       5.234   3.824  19.035  0.00  0.00    +0.000 A 
ATOM      5  C   UNL     1       3.861   3.592  19.100  0.00  0.00    +0.000 A 
ATOM      6  C   UNL     1       2.974   4.690  19.128  0.00  0.00    +0.000 A 
ENDROOT
BRANCH   1  11
ATOM      7  C   UNL     1       0.735   9.275  22.164  0.00  0.00    +0.000 C 
ATOM      8  N   UNL     1       0.449   9.366  20.750  0.00  0.00    +0.000 N 
ATOM      9  C   UNL     1       1.268   8.724  19.887  0.00  0.00    +0.000 A 
ATOM     10  N   UNL     1       2.005   7.681  20.179  0.00  0.00    +0.000 NA
ATOM     11  C   UNL     1       2.697   7.213  19.068  0.00  0.00    +0.000 A 
ATOM     12  C   UNL     1       2.514   7.990  17.939  0.00  0.00    +0.000 A 
ATOM     13  S   UNL     1       1.407   9.262  18.259  0.00  0.00    +0.000 S 
ATOM     14  H   UNL     1       0.079  10.258  20.443  0.00  0.00    +0.000 HD
ENDBRANCH   1  11
BRANCH   3  15
ATOM     15  C   UNL     1       7.148   5.403  18.917  0.00  0.00    +0.000 C 
ATOM     16  O   UNL     1       7.785   5.462  17.880  0.00  0.00    +0.000 OA
BRANCH  15  17
ATOM     17  OXT UNL     1       7.675   5.576  20.149  0.00  0.00    +0.000 OA
ATOM     18  HXT UNL     1       6.985   5.946  20.745  0.00  0.00    +0.000 HD
ENDBRANCH  15  17
ENDBRANCH   3  15
BRANCH   5  19
ATOM     19  O   UNL     1       3.332   2.329  19.143  0.00  0.00    +0.000 OA
ATOM     20  C   UNL     1       2.804   1.760  17.952  0.00  0.00    +0.000 C 
ENDBRANCH   5  19
BRANCH   6  21
ATOM     21  O   UNL     1       1.609   4.619  19.193  0.00  0.00    +0.000 OA
ATOM     22  C   UNL     1       0.937   4.198  20.363  0.00  0.00    +0.000 C 
ENDBRANCH   6  21
TORSDOF 5
ENDMDL
MODEL 7
REMARK VINA RESULT:      -6.1      3.132      5.827
REMARK  Name = 
REMARK  8 active torsions:
REMARK  status: ('A' for Active; 'I' for Inactive)
REMARK    1  A    between atoms: C_1  and  N_2
REMARK    2  A    between atoms: C_5  and  C_6
REMARK    3  A    between atoms: CA_8  and  C_9
REMARK    4  A    between atoms: C_9  and  OXT_11
REMARK    5  A    between atoms: C_13  and  O_14
REMARK    6  A    between atoms: O_14  and  C_15
REMARK    7  A    between atoms: C_16  and  O_17
REMARK    8  A    between atoms: O_17  and  C_18
REMARK                            x       y       z     vdW  Elec       q    Type
REMARK                         _______ _______ _______ _____ _____    ______ ____
ROOT
ATOM      1  C   UNL     1       4.651   4.869  18.625  0.00  0.00    +0.000 A 
ATOM      2  N   UNL     1       5.741   5.494  19.172  0.00  0.00    +0.000 NA
ATOM      3  CA  UNL     1       6.883   5.465  18.441  0.00  0.00    +0.000 A 
ATOM      4  C   UNL     1       7.017   4.859  17.206  0.00  0.00    +0.000 A 
ATOM      5  C   UNL     1       5.905   4.224  16.654  0.00  0.00    +0.000 A 
ATOM      6  C   UNL     1       4.687   4.219  17.367  0.00  0.00    +0.000 A 
ENDROOT
BRANCH   1  11
ATOM      7  C   UNL     1       1.552   2.167  21.963  0.00  0.00    +0.000 C 
ATOM      8  N   UNL     1       0.943   3.337  21.371  0.00  0.00    +0.000 N 
ATOM      9  C   UNL     1       1.733   4.194  20.686  0.00  0.00    +0.000 A 
ATOM     10  N   UNL     1       2.869   3.880  20.113  0.00  0.00    +0.000 NA
ATOM     11  C   UNL     1       3.422   4.963  19.438  0.00  0.00    +0.000 A 
ATOM     12  C   UNL     1       2.697   6.131  19.587  0.00  0.00    +0.000 A 
ATOM     13  S   UNL     1       1.279   5.844  20.510  0.00  0.00    +0.000 S 
ATOM     14  H   UNL     1       0.191   3.750  21.911  0.00  0.00    +0.000 HD
ENDBRANCH   1  11
BRANCH   3  15
ATOM     15  C   UNL     1       8.060   6.163  19.045  0.00  0.00    +0.000 C 
ATOM     16  O   UNL     1       8.459   7.265  18.711  0.00  0.00    +0.000 OA
BRANCH  15  17
ATOM     17  OXT UNL     1       8.621   5.408  20.014  0.00  0.00    +0.000 OA
ATOM     18  HXT UNL     1       8.974   4.581  19.614  0.00  0.00    +0.000 HD
ENDBRANCH  15  17
ENDBRANCH   3  15
BRANCH   5  19
ATOM     19  O   UNL     1       5.948   3.595  15.438  0.00  0.00    +0.000 OA
ATOM     20  C   UNL     1       6.587   4.244  14.346  0.00  0.00    +0.000 C 
ENDBRANCH   5  19
BRANCH   6  21
ATOM     21  O   UNL     1       3.517   3.637  16.956  0.00  0.00    +0.000 OA
ATOM     22  C   UNL     1       3.205   2.293  17.258  0.00  0.00    +0.000 C 
ENDBRANCH   6  21
TORSDOF 5
ENDMDL
MODEL 8
REMARK VINA RESULT:      -6.0      3.009      5.636
REMARK  Name = 
REMARK  8 active torsions:
REMARK  status: ('A' for Active; 'I' for Inactive)
REMARK    1  A    between atoms: C_1  and  N_2
REMARK    2  A    between atoms: C_5  and  C_6
REMARK    3  A    between atoms: CA_8  and  C_9
REMARK    4  A    between atoms: C_9  and  OXT_11
REMARK    5  A    between atoms: C_13  and  O_14
REMARK    6  A    between atoms: O_14  and  C_15
REMARK    7  A    between atoms: C_16  and  O_17
REMARK    8  A    between atoms: O_17  and  C_18
REMARK                            x       y       z     vdW  Elec       q    Type
REMARK                         _______ _______ _______ _____ _____    ______ ____
ROOT
ATOM      1  C   UNL     1       3.733   6.119  18.538  0.00  0.00    +0.000 A 
ATOM      2  N   UNL     1       4.853   6.364  17.789  0.00  0.00    +0.000 NA
ATOM      3  CA  UNL     1       5.689   5.313  17.592  0.00  0.00    +0.000 A 
ATOM      4  C   UNL     1       5.488   4.038  18.087  0.00  0.00    +0.000 A 
ATOM      5  C   UNL     1       4.347   3.795  18.850  0.00  0.00    +0.000 A 
ATOM      6  C   UNL     1       3.439   4.848  19.092  0.00  0.00    +0.000 A 
ENDROOT
BRANCH   1  11
ATOM      7  C   UNL     1       1.062   8.984  22.103  0.00  0.00    +0.000 C 
ATOM      8  N   UNL     1       0.637   9.159  20.732  0.00  0.00    +0.000 N 
ATOM      9  C   UNL     1       1.406   8.635  19.751  0.00  0.00    +0.000 A 
ATOM     10  N   UNL     1       2.226   7.623  19.893  0.00  0.00    +0.000 NA
ATOM     11  C   UNL     1       2.835   7.282  18.690  0.00  0.00    +0.000 A 
ATOM     12  C   UNL     1       2.501   8.125  17.647  0.00  0.00    +0.000 A 
ATOM     13  S   UNL     1       1.359   9.297  18.164  0.00  0.00    +0.000 S 
ATOM     14  H   UNL     1       0.190  10.046  20.531  0.00  0.00    +0.000 HD
ENDBRANCH   1  11
BRANCH   3  15
ATOM     15  C   UNL     1       6.900   5.592  16.760  0.00  0.00    +0.000 C 
ATOM     16  O   UNL     1       7.626   4.738  16.283  0.00  0.00    +0.000 OA
BRANCH  15  17
ATOM     17  OXT UNL     1       7.079   6.922  16.604  0.00  0.00    +0.000 OA
ATOM     18  HXT UNL     1       7.446   7.297  17.437  0.00  0.00    +0.000 HD
ENDBRANCH  15  17
ENDBRANCH   3  15
BRANCH   5  19
ATOM     19  O   UNL     1       4.070   2.565  19.384  0.00  0.00    +0.000 OA
ATOM     20  C   UNL     1       3.588   1.534  18.532  0.00  0.00    +0.000 C 
ENDBRANCH   5  19
BRANCH   6  21
ATOM     21  O   UNL     1       2.282   4.763  19.820  0.00  0.00    +0.000 OA
ATOM     22  C   UNL     1       1.147   4.070  19.341  0.00  0.00    +0.000 C 
ENDBRANCH   6  21
TORSDOF 5
ENDMDL
MODEL 9
REMARK VINA RESULT:      -6.0      2.418      4.400
REMARK  Name = 
REMARK  8 active torsions:
REMARK  status: ('A' for Active; 'I' for Inactive)
REMARK    1  A    between atoms: C_1  and  N_2
REMARK    2  A    between atoms: C_5  and  C_6
REMARK    3  A    between atoms: CA_8  and  C_9
REMARK    4  A    between atoms: C_9  and  OXT_11
REMARK    5  A    between atoms: C_13  and  O_14
REMARK    6  A    between atoms: O_14  and  C_15
REMARK    7  A    between atoms: C_16  and  O_17
REMARK    8  A    between atoms: O_17  and  C_18
REMARK                            x       y       z     vdW  Elec       q    Type
REMARK                         _______ _______ _______ _____ _____    ______ ____
ROOT
ATOM      1  C   UNL     1       4.538   3.976  18.872  0.00  0.00    +0.000 A 
ATOM      2  N   UNL     1       5.229   2.924  19.411  0.00  0.00    +0.000 NA
ATOM      3  CA  UNL     1       4.586   2.207  20.368  0.00  0.00    +0.000 A 
ATOM      4  C   UNL     1       3.307   2.464  20.824  0.00  0.00    +0.000 A 
ATOM      5  C   UNL     1       2.609   3.538  20.273  0.00  0.00    +0.000 A 
ATOM      6  C   UNL     1       3.224   4.323  19.273  0.00  0.00    +0.000 A 
ENDROOT
BRANCH   1  11
ATOM      7  C   UNL     1       7.978   7.906  17.990  0.00  0.00    +0.000 C 
ATOM      8  N   UNL     1       7.221   7.482  16.834  0.00  0.00    +0.000 N 
ATOM      9  C   UNL     1       6.489   6.349  16.927  0.00  0.00    +0.000 A 
ATOM     10  N   UNL     1       6.024   5.840  18.041  0.00  0.00    +0.000 NA
ATOM     11  C   UNL     1       5.262   4.700  17.807  0.00  0.00    +0.000 A 
ATOM     12  C   UNL     1       5.233   4.322  16.478  0.00  0.00    +0.000 A 
ATOM     13  S   UNL     1       6.098   5.448  15.514  0.00  0.00    +0.000 S 
ATOM     14  H   UNL     1       7.665   7.661  15.941  0.00  0.00    +0.000 HD
ENDBRANCH   1  11
BRANCH   3  15
ATOM     15  C   UNL     1       5.347   1.052  20.937  0.00  0.00    +0.000 C 
ATOM     16  O   UNL     1       5.795   1.006  22.069  0.00  0.00    +0.000 OA
BRANCH  15  17
ATOM     17  OXT UNL     1       5.470   0.063  20.025  0.00  0.00    +0.000 OA
ATOM     18  HXT UNL     1       6.319   0.176  19.540  0.00  0.00    +0.000 HD
ENDBRANCH  15  17
ENDBRANCH   3  15
BRANCH   5  19
ATOM     19  O   UNL     1       1.340   3.869  20.668  0.00  0.00    +0.000 OA
ATOM     20  C   UNL     1       0.234   3.391  19.912  0.00  0.00    +0.000 C 
ENDBRANCH   5  19
BRANCH   6  21
ATOM     21  O   UNL     1       2.667   5.404  18.643  0.00  0.00    +0.000 OA
ATOM     22  C   UNL     1       2.645   6.686  19.238  0.00  0.00    +0.000 C 
ENDBRANCH   6  21
TORSDOF 5
ENDMDL
