MODEL 1
REMARK VINA RESULT:      -7.0      0.000      0.000
REMARK  Name = 
REMARK  13 active torsions:
REMARK  status: ('A' for Active; 'I' for Inactive)
REMARK    1  A    between atoms: C_1  and  C_2
REMARK    2  A    between atoms: C_2  and  C_3
REMARK    3  A    between atoms: C_3  and  C_4
REMARK    4  A    between atoms: C_4  and  C_5
REMARK    5  A    between atoms: C_5  and  C_6
REMARK    6  A    between atoms: C_6  and  C_7
REMARK    7  A    between atoms: C_7  and  C_8
REMARK    8  A    between atoms: C_8  and  C_9
REMARK    9  A    between atoms: C_9  and  C_10
REMARK   10  A    between atoms: C_9  and  C_17
REMARK   11  A    between atoms: C_10  and  C_11
REMARK   12  A    between atoms: C_11  and  C_12
REMARK   13  A    between atoms: N_19  and  C_20
REMARK                            x       y       z     vdW  Elec       q    Type
REMARK                         _______ _______ _______ _____ _____    ______ ____
ROOT
ATOM      1  C   UNL     1       5.559   4.586  15.842  0.00  0.00    +0.000 C 
ENDROOT
BRANCH   1   2
ATOM      2  C   UNL     1       6.721   5.315  16.522  0.00  0.00    +0.000 C 
ATOM      3  O   UNL     1       7.741   4.735  16.885  0.00  0.00    +0.000 OA
ATOM      4  N   UNL     1       6.512   6.658  16.732  0.00  0.00    +0.000 N 
ATOM      5  C   UNL     1       7.511   7.490  17.359  0.00  0.00    +0.000 C 
ATOM      6  H   UNL     1       5.662   7.091  16.397  0.00  0.00    +0.000 HD
ENDBRANCH   1   2
BRANCH   1   7
ATOM      7  C   UNL     1       6.116   3.765  14.657  0.00  0.00    +0.000 C 
BRANCH   7   8
ATOM      8  C   UNL     1       6.635   4.626  13.510  0.00  0.00    +0.000 C 
BRANCH   8   9
ATOM      9  C   UNL     1       6.740   3.846  12.195  0.00  0.00    +0.000 C 
BRANCH   9  10
ATOM     10  C   UNL     1       5.594   2.835  12.114  0.00  0.00    +0.000 C 
BRANCH  10  11
ATOM     11  C   UNL     1       4.265   3.492  11.753  0.00  0.00    +0.000 C 
BRANCH  11  12
ATOM     12  C   UNL     1       4.197   3.769  10.250  0.00  0.00    +0.000 C 
BRANCH  12  14
ATOM     13  C   UNL     1       2.238   4.930   9.175  0.00  0.00    +0.000 C 
ATOM     14  C   UNL     1       2.769   3.619   9.733  0.00  0.00    +0.000 C 
ENDBRANCH  12  14
ENDBRANCH  11  12
ENDBRANCH  10  11
ENDBRANCH   9  10
ENDBRANCH   8   9
ENDBRANCH   7   8
ENDBRANCH   1   7
BRANCH   1  15
ATOM     15  C   UNL     1       4.745   3.774  16.883  0.00  0.00    +0.000 C 
BRANCH  15  16
ATOM     16  C   UNL     1       3.694   4.613  17.619  0.00  0.00    +0.000 C 
BRANCH  16  17
ATOM     17  C   UNL     1       2.844   3.851  18.638  0.00  0.00    +0.000 C 
ATOM     18  C   UNL     1       1.856   4.677  19.457  0.00  0.00    +0.000 C 
ATOM     19  C   UNL     1       0.905   3.622  20.019  0.00  0.00    +0.000 C 
ATOM     20  C   UNL     1       0.845   2.513  18.969  0.00  0.00    +0.000 C 
ATOM     21  C   UNL     1       1.912   2.857  17.936  0.00  0.00    +0.000 C 
ENDBRANCH  16  17
ENDBRANCH  15  16
ENDBRANCH   1  15
TORSDOF 11
ENDMDL
MODEL 2
REMARK VINA RESULT:      -6.9      1.872      3.112
REMARK  Name = 
REMARK  13 active torsions:
REMARK  status: ('A' for Active; 'I' for Inactive)
REMARK    1  A    between atoms: C_1  and  C_2
REMARK    2  A    between atoms: C_2  and  C_3
REMARK    3  A    between atoms: C_3  and  C_4
REMARK    4  A    between atoms: C_4  and  C_5
REMARK    5  A    between atoms: C_5  and  C_6
REMARK    6  A    between atoms: C_6  and  C_7
REMARK    7  A    between atoms: C_7  and  C_8
REMARK    8  A    between atoms: C_8  and  C_9
REMARK    9  A    between atoms: C_9  and  C_10
REMARK   10  A    between atoms: C_9  and  C_17
REMARK   11  A    between atoms: C_10  and  C_11
REMARK   12  A    between atoms: C_11  and  C_12
REMARK   13  A    between atoms: N_19  and  C_20
REMARK                            x       y       z     vdW  Elec       q    Type
REMARK                         _______ _______ _______ _____ _____    ______ ____
ROOT
ATOM      1  C   UNL     1       3.801   4.679  17.193  0.00  0.00    +0.000 C 
ENDROOT
BRANCH   1   2
ATOM      2  C   UNL     1       3.665   5.636  18.380  0.00  0.00    +0.000 C 
ATOM      3  O   UNL     1       4.411   5.588  19.354  0.00  0.00    +0.000 OA
ATOM      4  N   UNL     1       2.615   6.520  18.286  0.00  0.00    +0.000 N 
ATOM      5  C   UNL     1       2.351   7.491  19.320  0.00  0.00    +0.000 C 
ATOM      6  H   UNL     1       2.041   6.530  17.454  0.00  0.00    +0.000 HD
ENDBRANCH   1   2
BRANCH   1   7
ATOM      7  C   UNL     1       5.221   4.071  17.209  0.00  0.00    +0.000 C 
BRANCH   7   8
ATOM      8  C   UNL     1       6.272   4.957  16.547  0.00  0.00    +0.000 C 
BRANCH   8   9
ATOM      9  C   UNL     1       5.864   5.391  15.135  0.00  0.00    +0.000 C 
BRANCH   9  10
ATOM     10  C   UNL     1       5.855   4.170  14.213  0.00  0.00    +0.000 C 
BRANCH  10  11
ATOM     11  C   UNL     1       6.954   4.233  13.156  0.00  0.00    +0.000 C 
BRANCH  11  12
ATOM     12  C   UNL     1       6.533   3.467  11.901  0.00  0.00    +0.000 C 
BRANCH  12  14
ATOM     13  C   UNL     1       4.155   3.426  11.074  0.00  0.00    +0.000 C 
ATOM     14  C   UNL     1       5.145   2.856  12.076  0.00  0.00    +0.000 C 
ENDBRANCH  12  14
ENDBRANCH  11  12
ENDBRANCH  10  11
ENDBRANCH   9  10
ENDBRANCH   8   9
ENDBRANCH   7   8
ENDBRANCH   1   7
BRANCH   1  15
ATOM     15  C   UNL     1       2.642   3.648  17.192  0.00  0.00    +0.000 C 
BRANCH  15  16
ATOM     16  C   UNL     1       3.006   2.325  17.874  0.00  0.00    +0.000 C 
BRANCH  16  17
ATOM     17  C   UNL     1       2.456   2.145  19.291  0.00  0.00    +0.000 C 
ATOM     18  C   UNL     1       3.393   2.510  20.439  0.00  0.00    +0.000 C 
ATOM     19  C   UNL     1       2.446   2.641  21.631  0.00  0.00    +0.000 C 
ATOM     20  C   UNL     1       1.121   3.143  21.057  0.00  0.00    +0.000 C 
ATOM     21  C   UNL     1       1.275   3.090  19.542  0.00  0.00    +0.000 C 
ENDBRANCH  16  17
ENDBRANCH  15  16
ENDBRANCH   1  15
TORSDOF 11
ENDMDL
MODEL 3
REMARK VINA RESULT:      -6.9      1.448      2.155
REMARK  Name = 
REMARK  13 active torsions:
REMARK  status: ('A' for Active; 'I' for Inactive)
REMARK    1  A    between atoms: C_1  and  C_2
REMARK    2  A    between atoms: C_2  and  C_3
REMARK    3  A    between atoms: C_3  and  C_4
REMARK    4  A    between atoms: C_4  and  C_5
REMARK    5  A    between atoms: C_5  and  C_6
REMARK    6  A    between atoms: C_6  and  C_7
REMARK    7  A    between atoms: C_7  and  C_8
REMARK    8  A    between atoms: C_8  and  C_9
REMARK    9  A    between atoms: C_9  and  C_10
REMARK   10  A    between atoms: C_9  and  C_17
REMARK   11  A    between atoms: C_10  and  C_11
REMARK   12  A    between atoms: C_11  and  C_12
REMARK   13  A    between atoms: N_19  and  C_20
REMARK                            x       y       z     vdW  Elec       q    Type
REMARK                         _______ _______ _______ _____ _____    ______ ____
ROOT
ATOM      1  C   UNL     1       5.172   5.658  17.342  0.00  0.00    +0.000 C 
ENDROOT
BRANCH   1   2
ATOM      2  C   UNL     1       6.516   6.022  17.977  0.00  0.00    +0.000 C 
ATOM      3  O   UNL     1       7.277   6.850  17.483  0.00  0.00    +0.000 OA
ATOM      4  N   UNL     1       6.821   5.317  19.118  0.00  0.00    +0.000 N 
ATOM      5  C   UNL     1       8.049   5.543  19.841  0.00  0.00    +0.000 C 
ATOM      6  H   UNL     1       6.152   4.659  19.495  0.00  0.00    +0.000 HD
ENDBRANCH   1   2
BRANCH   1   7
ATOM      7  C   UNL     1       5.277   4.237  16.743  0.00  0.00    +0.000 C 
BRANCH   7   8
ATOM      8  C   UNL     1       6.461   4.060  15.797  0.00  0.00    +0.000 C 
BRANCH   8   9
ATOM      9  C   UNL     1       6.272   4.814  14.477  0.00  0.00    +0.000 C 
BRANCH   9  10
ATOM     10  C   UNL     1       5.376   3.992  13.548  0.00  0.00    +0.000 C 
BRANCH  10  11
ATOM     11  C   UNL     1       6.149   3.396  12.375  0.00  0.00    +0.000 C 
BRANCH  11  12
ATOM     12  C   UNL     1       5.194   2.692  11.409  0.00  0.00    +0.000 C 
BRANCH  12  14
ATOM     13  C   UNL     1       3.330   3.715  10.059  0.00  0.00    +0.000 C 
ATOM     14  C   UNL     1       3.809   3.332  11.450  0.00  0.00    +0.000 C 
ENDBRANCH  12  14
ENDBRANCH  11  12
ENDBRANCH  10  11
ENDBRANCH   9  10
ENDBRANCH   8   9
ENDBRANCH   7   8
ENDBRANCH   1   7
BRANCH   1  15
ATOM     15  C   UNL     1       4.019   5.862  18.358  0.00  0.00    +0.000 C 
BRANCH  15  16
ATOM     16  C   UNL     1       2.626   5.763  17.724  0.00  0.00    +0.000 C 
BRANCH  16  17
ATOM     17  C   UNL     1       1.672   4.768  18.389  0.00  0.00    +0.000 C 
ATOM     18  C   UNL     1       1.864   3.297  18.033  0.00  0.00    +0.000 C 
ATOM     19  C   UNL     1       1.101   2.570  19.139  0.00  0.00    +0.000 C 
ATOM     20  C   UNL     1       1.229   3.452  20.381  0.00  0.00    +0.000 C 
ATOM     21  C   UNL     1       1.876   4.749  19.909  0.00  0.00    +0.000 C 
ENDBRANCH  16  17
ENDBRANCH  15  16
ENDBRANCH   1  15
TORSDOF 11
ENDMDL
MODEL 4
REMARK VINA RESULT:      -6.8      2.172      6.566
REMARK  Name = 
REMARK  13 active torsions:
REMARK  status: ('A' for Active; 'I' for Inactive)
REMARK    1  A    between atoms: C_1  and  C_2
REMARK    2  A    between atoms: C_2  and  C_3
REMARK    3  A    between atoms: C_3  and  C_4
REMARK    4  A    between atoms: C_4  and  C_5
REMARK    5  A    between atoms: C_5  and  C_6
REMARK    6  A    between atoms: C_6  and  C_7
REMARK    7  A    between atoms: C_7  and  C_8
REMARK    8  A    between atoms: C_8  and  C_9
REMARK    9  A    between atoms: C_9  and  C_10
REMARK   10  A    between atoms: C_9  and  C_17
REMARK   11  A    between atoms: C_10  and  C_11
REMARK   12  A    between atoms: C_11  and  C_12
REMARK   13  A    between atoms: N_19  and  C_20
REMARK                            x       y       z     vdW  Elec       q    Type
REMARK                         _______ _______ _______ _____ _____    ______ ____
ROOT
ATOM      1  C   UNL     1       5.291   4.918  18.349  0.00  0.00    +0.000 C 
ENDROOT
BRANCH   1   2
ATOM      2  C   UNL     1       6.589   5.723  18.452  0.00  0.00    +0.000 C 
ATOM      3  O   UNL     1       7.501   5.410  19.212  0.00  0.00    +0.000 OA
ATOM      4  N   UNL     1       6.630   6.848  17.661  0.00  0.00    +0.000 N 
ATOM      5  C   UNL     1       7.784   7.715  17.639  0.00  0.00    +0.000 C 
ATOM      6  H   UNL     1       5.859   7.052  17.039  0.00  0.00    +0.000 HD
ENDBRANCH   1   2
BRANCH   1   7
ATOM      7  C   UNL     1       4.422   5.219  19.590  0.00  0.00    +0.000 C 
BRANCH   7   8
ATOM      8  C   UNL     1       3.088   5.878  19.254  0.00  0.00    +0.000 C 
BRANCH   8   9
ATOM      9  C   UNL     1       2.044   5.680  20.358  0.00  0.00    +0.000 C 
BRANCH   9  10
ATOM     10  C   UNL     1       1.433   4.283  20.231  0.00  0.00    +0.000 C 
BRANCH  10  11
ATOM     11  C   UNL     1       1.163   3.897  18.780  0.00  0.00    +0.000 C 
BRANCH  11  12
ATOM     12  C   UNL     1       1.318   2.387  18.591  0.00  0.00    +0.000 C 
BRANCH  12  14
ATOM     13  C   UNL     1       3.688   1.537  18.567  0.00  0.00    +0.000 C 
ATOM     14  C   UNL     1       2.537   2.069  17.729  0.00  0.00    +0.000 C 
ENDBRANCH  12  14
ENDBRANCH  11  12
ENDBRANCH  10  11
ENDBRANCH   9  10
ENDBRANCH   8   9
ENDBRANCH   7   8
ENDBRANCH   1   7
BRANCH   1  15
ATOM     15  C   UNL     1       4.603   5.172  16.983  0.00  0.00    +0.000 C 
BRANCH  15  16
ATOM     16  C   UNL     1       4.954   4.124  15.921  0.00  0.00    +0.000 C 
BRANCH  16  17
ATOM     17  C   UNL     1       5.658   4.663  14.674  0.00  0.00    +0.000 C 
ATOM     18  C   UNL     1       7.165   4.878  14.780  0.00  0.00    +0.000 C 
ATOM     19  C   UNL     1       7.604   4.983  13.320  0.00  0.00    +0.000 C 
ATOM     20  C   UNL     1       6.648   4.087  12.533  0.00  0.00    +0.000 C 
ATOM     21  C   UNL     1       5.568   3.658  13.519  0.00  0.00    +0.000 C 
ENDBRANCH  16  17
ENDBRANCH  15  16
ENDBRANCH   1  15
TORSDOF 11
ENDMDL
MODEL 5
REMARK VINA RESULT:      -6.7      1.997      6.772
REMARK  Name = 
REMARK  13 active torsions:
REMARK  status: ('A' for Active; 'I' for Inactive)
REMARK    1  A    between atoms: C_1  and  C_2
REMARK    2  A    between atoms: C_2  and  C_3
REMARK    3  A    between atoms: C_3  and  C_4
REMARK    4  A    between atoms: C_4  and  C_5
REMARK    5  A    between atoms: C_5  and  C_6
REMARK    6  A    between atoms: C_6  and  C_7
REMARK    7  A    between atoms: C_7  and  C_8
REMARK    8  A    between atoms: C_8  and  C_9
REMARK    9  A    between atoms: C_9  and  C_10
REMARK   10  A    between atoms: C_9  and  C_17
REMARK   11  A    between atoms: C_10  and  C_11
REMARK   12  A    between atoms: C_11  and  C_12
REMARK   13  A    between atoms: N_19  and  C_20
REMARK                            x       y       z     vdW  Elec       q    Type
REMARK                         _______ _______ _______ _____ _____    ______ ____
ROOT
ATOM      1  C   UNL     1       5.651   4.117  16.935  0.00  0.00    +0.000 C 
ENDROOT
BRANCH   1   2
ATOM      2  C   UNL     1       6.952   4.515  17.636  0.00  0.00    +0.000 C 
ATOM      3  O   UNL     1       8.058   4.247  17.175  0.00  0.00    +0.000 OA
ATOM      4  N   UNL     1       6.780   5.156  18.841  0.00  0.00    +0.000 N 
ATOM      5  C   UNL     1       7.906   5.601  19.627  0.00  0.00    +0.000 C 
ATOM      6  H   UNL     1       5.847   5.369  19.168  0.00  0.00    +0.000 HD
ENDBRANCH   1   2
BRANCH   1   7
ATOM      7  C   UNL     1       4.720   3.441  17.967  0.00  0.00    +0.000 C 
BRANCH   7   8
ATOM      8  C   UNL     1       3.326   3.139  17.425  0.00  0.00    +0.000 C 
BRANCH   8   9
ATOM      9  C   UNL     1       2.683   1.928  18.110  0.00  0.00    +0.000 C 
BRANCH   9  10
ATOM     10  C   UNL     1       1.315   2.329  18.665  0.00  0.00    +0.000 C 
BRANCH  10  11
ATOM     11  C   UNL     1       1.206   3.831  18.911  0.00  0.00    +0.000 C 
BRANCH  11  12
ATOM     12  C   UNL     1       1.389   4.143  20.397  0.00  0.00    +0.000 C 
BRANCH  12  14
ATOM     13  C   UNL     1       2.810   6.087  19.661  0.00  0.00    +0.000 C 
ATOM     14  C   UNL     1       1.716   5.619  20.607  0.00  0.00    +0.000 C 
ENDBRANCH  12  14
ENDBRANCH  11  12
ENDBRANCH  10  11
ENDBRANCH   9  10
ENDBRANCH   8   9
ENDBRANCH   7   8
ENDBRANCH   1   7
BRANCH   1  15
ATOM     15  C   UNL     1       5.040   5.334  16.192  0.00  0.00    +0.000 C 
BRANCH  15  16
ATOM     16  C   UNL     1       5.751   5.660  14.874  0.00  0.00    +0.000 C 
BRANCH  16  17
ATOM     17  C   UNL     1       6.144   4.449  14.025  0.00  0.00    +0.000 C 
ATOM     18  C   UNL     1       5.054   3.852  13.140  0.00  0.00    +0.000 C 
ATOM     19  C   UNL     1       5.841   3.000  12.146  0.00  0.00    +0.000 C 
ATOM     20  C   UNL     1       7.179   3.714  11.955  0.00  0.00    +0.000 C 
ATOM     21  C   UNL     1       7.209   4.833  12.989  0.00  0.00    +0.000 C 
ENDBRANCH  16  17
ENDBRANCH  15  16
ENDBRANCH   1  15
TORSDOF 11
ENDMDL
MODEL 6
REMARK VINA RESULT:      -6.7      4.642      7.133
REMARK  Name = 
REMARK  13 active torsions:
REMARK  status: ('A' for Active; 'I' for Inactive)
REMARK    1  A    between atoms: C_1  and  C_2
REMARK    2  A    between atoms: C_2  and  C_3
REMARK    3  A    between atoms: C_3  and  C_4
REMARK    4  A    between atoms: C_4  and  C_5
REMARK    5  A    between atoms: C_5  and  C_6
REMARK    6  A    between atoms: C_6  and  C_7
REMARK    7  A    between atoms: C_7  and  C_8
REMARK    8  A    between atoms: C_8  and  C_9
REMARK    9  A    between atoms: C_9  and  C_10
REMARK   10  A    between atoms: C_9  and  C_17
REMARK   11  A    between atoms: C_10  and  C_11
REMARK   12  A    between atoms: C_11  and  C_12
REMARK   13  A    between atoms: N_19  and  C_20
REMARK                            x       y       z     vdW  Elec       q    Type
REMARK                         _______ _______ _______ _____ _____    ______ ____
ROOT
ATOM      1  C   UNL     1       2.867   7.113  18.846  0.00  0.00    +0.000 C 
ENDROOT
BRANCH   1   2
ATOM      2  C   UNL     1       2.162   8.376  18.345  0.00  0.00    +0.000 C 
ATOM      3  O   UNL     1       2.315   8.808  17.206  0.00  0.00    +0.000 OA
ATOM      4  N   UNL     1       1.381   9.008  19.285  0.00  0.00    +0.000 N 
ATOM      5  C   UNL     1       0.647  10.210  18.972  0.00  0.00    +0.000 C 
ATOM      6  H   UNL     1       1.275   8.600  20.204  0.00  0.00    +0.000 HD
ENDBRANCH   1   2
BRANCH   1   7
ATOM      7  C   UNL     1       2.103   6.576  20.077  0.00  0.00    +0.000 C 
BRANCH   7   8
ATOM      8  C   UNL     1       2.287   5.079  20.304  0.00  0.00    +0.000 C 
BRANCH   8   9
ATOM      9  C   UNL     1       0.960   4.359  20.562  0.00  0.00    +0.000 C 
BRANCH   9  10
ATOM     10  C   UNL     1       0.960   3.017  19.827  0.00  0.00    +0.000 C 
BRANCH  10  11
ATOM     11  C   UNL     1       1.337   3.162  18.355  0.00  0.00    +0.000 C 
BRANCH  11  12
ATOM     12  C   UNL     1       2.291   2.044  17.935  0.00  0.00    +0.000 C 
BRANCH  12  14
ATOM     13  C   UNL     1       4.305   2.077  19.446  0.00  0.00    +0.000 C 
ATOM     14  C   UNL     1       3.745   2.481  18.092  0.00  0.00    +0.000 C 
ENDBRANCH  12  14
ENDBRANCH  11  12
ENDBRANCH  10  11
ENDBRANCH   9  10
ENDBRANCH   8   9
ENDBRANCH   7   8
ENDBRANCH   1   7
BRANCH   1  15
ATOM     15  C   UNL     1       3.049   6.097  17.688  0.00  0.00    +0.000 C 
BRANCH  15  16
ATOM     16  C   UNL     1       4.455   6.119  17.078  0.00  0.00    +0.000 C 
BRANCH  16  17
ATOM     17  C   UNL     1       5.594   6.390  18.063  0.00  0.00    +0.000 C 
ATOM     18  C   UNL     1       6.275   5.168  18.673  0.00  0.00    +0.000 C 
ATOM     19  C   UNL     1       7.580   5.738  19.226  0.00  0.00    +0.000 C 
ATOM     20  C   UNL     1       7.959   6.889  18.294  0.00  0.00    +0.000 C 
ATOM     21  C   UNL     1       6.769   7.083  17.362  0.00  0.00    +0.000 C 
ENDBRANCH  16  17
ENDBRANCH  15  16
ENDBRANCH   1  15
TORSDOF 11
ENDMDL
MODEL 7
REMARK VINA RESULT:      -6.7      1.493      2.019
REMARK  Name = 
REMARK  13 active torsions:
REMARK  status: ('A' for Active; 'I' for Inactive)
REMARK    1  A    between atoms: C_1  and  C_2
REMARK    2  A    between atoms: C_2  and  C_3
REMARK    3  A    between atoms: C_3  and  C_4
REMARK    4  A    between atoms: C_4  and  C_5
REMARK    5  A    between atoms: C_5  and  C_6
REMARK    6  A    between atoms: C_6  and  C_7
REMARK    7  A    between atoms: C_7  and  C_8
REMARK    8  A    between atoms: C_8  and  C_9
REMARK    9  A    between atoms: C_9  and  C_10
REMARK   10  A    between atoms: C_9  and  C_17
REMARK   11  A    between atoms: C_10  and  C_11
REMARK   12  A    between atoms: C_11  and  C_12
REMARK   13  A    between atoms: N_19  and  C_20
REMARK                            x       y       z     vdW  Elec       q    Type
REMARK                         _______ _______ _______ _____ _____    ______ ____
ROOT
ATOM      1  C   UNL     1       5.146   5.951  17.530  0.00  0.00    +0.000 C 
ENDROOT
BRANCH   1   2
ATOM      2  C   UNL     1       6.514   6.236  18.156  0.00  0.00    +0.000 C 
ATOM      3  O   UNL     1       7.238   7.148  17.770  0.00  0.00    +0.000 OA
ATOM      4  N   UNL     1       6.882   5.360  19.151  0.00  0.00    +0.000 N 
ATOM      5  C   UNL     1       8.140   5.491  19.846  0.00  0.00    +0.000 C 
ATOM      6  H   UNL     1       6.240   4.635  19.444  0.00  0.00    +0.000 HD
ENDBRANCH   1   2
BRANCH   1   7
ATOM      7  C   UNL     1       5.234   6.211  16.010  0.00  0.00    +0.000 C 
BRANCH   7   8
ATOM      8  C   UNL     1       6.077   5.183  15.263  0.00  0.00    +0.000 C 
BRANCH   8   9
ATOM      9  C   UNL     1       5.423   4.729  13.955  0.00  0.00    +0.000 C 
BRANCH   9  10
ATOM     10  C   UNL     1       6.240   3.585  13.351  0.00  0.00    +0.000 C 
BRANCH  10  11
ATOM     11  C   UNL     1       5.662   3.096  12.025  0.00  0.00    +0.000 C 
BRANCH  11  12
ATOM     12  C   UNL     1       4.213   3.561  11.871  0.00  0.00    +0.000 C 
BRANCH  12  14
ATOM     13  C   UNL     1       3.028   4.130   9.723  0.00  0.00    +0.000 C 
ATOM     14  C   UNL     1       3.601   3.015  10.584  0.00  0.00    +0.000 C 
ENDBRANCH  12  14
ENDBRANCH  11  12
ENDBRANCH  10  11
ENDBRANCH   9  10
ENDBRANCH   8   9
ENDBRANCH   7   8
ENDBRANCH   1   7
BRANCH   1  15
ATOM     15  C   UNL     1       4.650   4.537  17.930  0.00  0.00    +0.000 C 
BRANCH  15  16
ATOM     16  C   UNL     1       3.357   4.124  17.218  0.00  0.00    +0.000 C 
BRANCH  16  17
ATOM     17  C   UNL     1       2.109   4.071  18.102  0.00  0.00    +0.000 C 
ATOM     18  C   UNL     1       1.544   2.686  18.404  0.00  0.00    +0.000 C 
ATOM     19  C   UNL     1       0.632   2.937  19.603  0.00  0.00    +0.000 C 
ATOM     20  C   UNL     1       1.275   4.084  20.382  0.00  0.00    +0.000 C 
ATOM     21  C   UNL     1       2.415   4.595  19.510  0.00  0.00    +0.000 C 
ENDBRANCH  16  17
ENDBRANCH  15  16
ENDBRANCH   1  15
TORSDOF 11
ENDMDL
MODEL 8
REMARK VINA RESULT:      -6.6      1.706      2.525
REMARK  Name = 
REMARK  13 active torsions:
REMARK  status: ('A' for Active; 'I' for Inactive)
REMARK    1  A    between atoms: C_1  and  C_2
REMARK    2  A    between atoms: C_2  and  C_3
REMARK    3  A    between atoms: C_3  and  C_4
REMARK    4  A    between atoms: C_4  and  C_5
REMARK    5  A    between atoms: C_5  and  C_6
REMARK    6  A    between atoms: C_6  and  C_7
REMARK    7  A    between atoms: C_7  and  C_8
REMARK    8  A    between atoms: C_8  and  C_9
REMARK    9  A    between atoms: C_9  and  C_10
REMARK   10  A    between atoms: C_9  and  C_17
REMARK   11  A    between atoms: C_10  and  C_11
REMARK   12  A    between atoms: C_11  and  C_12
REMARK   13  A    between atoms: N_19  and  C_20
REMARK                            x       y       z     vdW  Elec       q    Type
REMARK                         _______ _______ _______ _____ _____    ______ ____
ROOT
ATOM      1  C   UNL     1       4.997   6.158  16.516  0.00  0.00    +0.000 C 
ENDROOT
BRANCH   1   2
ATOM      2  C   UNL     1       6.305   6.512  17.228  0.00  0.00    +0.000 C 
ATOM      3  O   UNL     1       7.016   7.448  16.874  0.00  0.00    +0.000 OA
ATOM      4  N   UNL     1       6.638   5.672  18.266  0.00  0.00    +0.000 N 
ATOM      5  C   UNL     1       7.839   5.870  19.042  0.00  0.00    +0.000 C 
ATOM      6  H   UNL     1       6.009   4.926  18.530  0.00  0.00    +0.000 HD
ENDBRANCH   1   2
BRANCH   1   7
ATOM      7  C   UNL     1       5.328   5.673  15.087  0.00  0.00    +0.000 C 
BRANCH   7   8
ATOM      8  C   UNL     1       5.605   4.176  14.999  0.00  0.00    +0.000 C 
BRANCH   8   9
ATOM      9  C   UNL     1       6.731   3.846  14.014  0.00  0.00    +0.000 C 
BRANCH   9  10
ATOM     10  C   UNL     1       6.213   4.002  12.583  0.00  0.00    +0.000 C 
BRANCH  10  11
ATOM     11  C   UNL     1       4.940   3.198  12.335  0.00  0.00    +0.000 C 
BRANCH  11  12
ATOM     12  C   UNL     1       5.130   2.249  11.151  0.00  0.00    +0.000 C 
BRANCH  12  14
ATOM     13  C   UNL     1       6.144  -0.054  11.227  0.00  0.00    +0.000 C 
ATOM     14  C   UNL     1       6.415   1.440  11.302  0.00  0.00    +0.000 C 
ENDBRANCH  12  14
ENDBRANCH  11  12
ENDBRANCH  10  11
ENDBRANCH   9  10
ENDBRANCH   8   9
ENDBRANCH   7   8
ENDBRANCH   1   7
BRANCH   1  15
ATOM     15  C   UNL     1       4.164   5.168  17.372  0.00  0.00    +0.000 C 
BRANCH  15  16
ATOM     16  C   UNL     1       2.885   5.789  17.945  0.00  0.00    +0.000 C 
BRANCH  16  17
ATOM     17  C   UNL     1       1.789   4.793  18.331  0.00  0.00    +0.000 C 
ATOM     18  C   UNL     1       1.978   3.353  17.862  0.00  0.00    +0.000 C 
ATOM     19  C   UNL     1       1.004   2.571  18.742  0.00  0.00    +0.000 C 
ATOM     20  C   UNL     1       0.949   3.323  20.072  0.00  0.00    +0.000 C 
ATOM     21  C   UNL     1       1.722   4.618  19.853  0.00  0.00    +0.000 C 
ENDBRANCH  16  17
ENDBRANCH  15  16
ENDBRANCH   1  15
TORSDOF 11
ENDMDL
MODEL 9
REMARK VINA RESULT:      -6.6      2.891      4.300
REMARK  Name = 
REMARK  13 active torsions:
REMARK  status: ('A' for Active; 'I' for Inactive)
REMARK    1  A    between atoms: C_1  and  C_2
REMARK    2  A    between atoms: C_2  and  C_3
REMARK    3  A    between atoms: C_3  and  C_4
REMARK    4  A    between atoms: C_4  and  C_5
REMARK    5  A    between atoms: C_5  and  C_6
REMARK    6  A    between atoms: C_6  and  C_7
REMARK    7  A    between atoms: C_7  and  C_8
REMARK    8  A    between atoms: C_8  and  C_9
REMARK    9  A    between atoms: C_9  and  C_10
REMARK   10  A    between atoms: C_9  and  C_17
REMARK   11  A    between atoms: C_10  and  C_11
REMARK   12  A    between atoms: C_11  and  C_12
REMARK   13  A    between atoms: N_19  and  C_20
REMARK                            x       y       z     vdW  Elec       q    Type
REMARK                         _______ _______ _______ _____ _____    ______ ____
ROOT
ATOM      1  C   UNL     1       2.815   7.077  17.705  0.00  0.00    +0.000 C 
ENDROOT
BRANCH   1   2
ATOM      2  C   UNL     1       2.243   8.461  18.026  0.00  0.00    +0.000 C 
ATOM      3  O   UNL     1       2.343   9.411  17.254  0.00  0.00    +0.000 OA
ATOM      4  N   UNL     1       1.652   8.563  19.264  0.00  0.00    +0.000 N 
ATOM      5  C   UNL     1       1.060   9.798  19.719  0.00  0.00    +0.000 C 
ATOM      6  H   UNL     1       1.580   7.745  19.854  0.00  0.00    +0.000 HD
ENDBRANCH   1   2
BRANCH   1   7
ATOM      7  C   UNL     1       4.341   7.209  17.501  0.00  0.00    +0.000 C 
BRANCH   7   8
ATOM      8  C   UNL     1       4.839   6.585  16.201  0.00  0.00    +0.000 C 
BRANCH   8   9
ATOM      9  C   UNL     1       5.269   5.125  16.379  0.00  0.00    +0.000 C 
BRANCH   9  10
ATOM     10  C   UNL     1       6.700   4.953  15.866  0.00  0.00    +0.000 C 
BRANCH  10  11
ATOM     11  C   UNL     1       6.758   4.807  14.348  0.00  0.00    +0.000 C 
BRANCH  11  12
ATOM     12  C   UNL     1       5.823   3.689  13.883  0.00  0.00    +0.000 C 
BRANCH  12  14
ATOM     13  C   UNL     1       4.577   3.210  11.748  0.00  0.00    +0.000 C 
ATOM     14  C   UNL     1       5.935   3.476  12.376  0.00  0.00    +0.000 C 
ENDBRANCH  12  14
ENDBRANCH  11  12
ENDBRANCH  10  11
ENDBRANCH   9  10
ENDBRANCH   8   9
ENDBRANCH   7   8
ENDBRANCH   1   7
BRANCH   1  15
ATOM     15  C   UNL     1       2.379   6.047  18.779  0.00  0.00    +0.000 C 
BRANCH  15  16
ATOM     16  C   UNL     1       2.112   4.650  18.207  0.00  0.00    +0.000 C 
BRANCH  16  17
ATOM     17  C   UNL     1       2.067   3.519  19.236  0.00  0.00    +0.000 C 
ATOM     18  C   UNL     1       3.266   3.399  20.172  0.00  0.00    +0.000 C 
ATOM     19  C   UNL     1       2.739   2.514  21.301  0.00  0.00    +0.000 C 
ATOM     20  C   UNL     1       1.248   2.833  21.417  0.00  0.00    +0.000 C 
ATOM     21  C   UNL     1       0.918   3.729  20.229  0.00  0.00    +0.000 C 
ENDBRANCH  16  17
ENDBRANCH  15  16
ENDBRANCH   1  15
TORSDOF 11
ENDMDL
