MODEL 1
REMARK VINA RESULT:      -7.2      0.000      0.000
REMARK  Name = 
REMARK  6 active torsions:
REMARK  status: ('A' for Active; 'I' for Inactive)
REMARK    1  A    between atoms: C_1  and  O_2
REMARK    2  A    between atoms: O_2  and  C_3
REMARK    3  A    between atoms: C_4  and  C_5
REMARK    4  A    between atoms: C_8  and  O_9
REMARK    5  A    between atoms: C_15  and  O_16
REMARK    6  A    between atoms: C_18  and  O_19
REMARK                            x       y       z     vdW  Elec       q    Type
REMARK                         _______ _______ _______ _____ _____    ______ ____
ROOT
ATOM      1  C   UNL     1       5.763   5.339  17.125  0.00  0.00    +0.000 A 
ATOM      2  C   UNL     1       4.796   4.422  16.916  0.00  0.00    +0.000 A 
ATOM      3  O   UNL     1       4.675   3.636  15.787  0.00  0.00    +0.000 OA
ATOM      4  C   UNL     1       5.497   3.885  14.722  0.00  0.00    +0.000 A 
ATOM      5  C   UNL     1       5.212   3.176  13.551  0.00  0.00    +0.000 A 
ATOM      6  C   UNL     1       6.000   3.379  12.426  0.00  0.00    +0.000 A 
ATOM      7  C   UNL     1       7.063   4.272  12.454  0.00  0.00    +0.000 A 
ATOM      8  C   UNL     1       7.341   4.977  13.628  0.00  0.00    +0.000 A 
ATOM      9  C   UNL     1       6.559   4.782  14.777  0.00  0.00    +0.000 A 
ATOM     10  C   UNL     1       6.814   5.474  16.059  0.00  0.00    +0.000 A 
ATOM     11  O   UNL     1       7.844   6.109  16.247  0.00  0.00    +0.000 OA
ENDROOT
BRANCH   2  12
ATOM     12  C   UNL     1       3.720   4.142  17.883  0.00  0.00    +0.000 A 
ATOM     13  C   UNL     1       2.510   4.846  17.816  0.00  0.00    +0.000 A 
ATOM     14  C   UNL     1       1.438   4.494  18.642  0.00  0.00    +0.000 A 
ATOM     15  C   UNL     1       1.580   3.438  19.535  0.00  0.00    +0.000 A 
ATOM     16  C   UNL     1       2.781   2.743  19.631  0.00  0.00    +0.000 A 
ATOM     17  C   UNL     1       3.852   3.093  18.804  0.00  0.00    +0.000 A 
BRANCH  15  18
ATOM     18  O   UNL     1       0.551   3.038  20.334  0.00  0.00    +0.000 OA
ATOM     19  H   UNL     1       0.706   2.119  20.608  0.00  0.00    +0.000 HD
ENDBRANCH  15  18
ENDBRANCH   2  12
BRANCH   1  21
ATOM     20  C   UNL     1       6.634   5.569  19.335  0.00  0.00    +0.000 C 
ATOM     21  O   UNL     1       5.796   6.080  18.301  0.00  0.00    +0.000 OA
ENDBRANCH   1  21
BRANCH   6  22
ATOM     22  O   UNL     1       5.763   2.718  11.259  0.00  0.00    +0.000 OA
ATOM     23  H   UNL     1       4.921   3.026  10.882  0.00  0.00    +0.000 HD
ENDBRANCH   6  22
BRANCH   8  24
ATOM     24  O   UNL     1       8.371   5.874  13.621  0.00  0.00    +0.000 OA
ATOM     25  H   UNL     1       8.035   6.775  13.743  0.00  0.00    +0.000 HD
ENDBRANCH   8  24
TORSDOF 5
ENDMDL
MODEL 2
REMARK VINA RESULT:      -7.0      0.188      1.045
REMARK  Name = 
REMARK  6 active torsions:
REMARK  status: ('A' for Active; 'I' for Inactive)
REMARK    1  A    between atoms: C_1  and  O_2
REMARK    2  A    between atoms: O_2  and  C_3
REMARK    3  A    between atoms: C_4  and  C_5
REMARK    4  A    between atoms: C_8  and  O_9
REMARK    5  A    between atoms: C_15  and  O_16
REMARK    6  A    between atoms: C_18  and  O_19
REMARK                            x       y       z     vdW  Elec       q    Type
REMARK                         _______ _______ _______ _____ _____    ______ ____
ROOT
ATOM      1  C   UNL     1       5.701   5.275  17.075  0.00  0.00    +0.000 A 
ATOM      2  C   UNL     1       4.767   4.341  16.804  0.00  0.00    +0.000 A 
ATOM      3  O   UNL     1       4.716   3.574  15.657  0.00  0.00    +0.000 OA
ATOM      4  C   UNL     1       5.581   3.863  14.635  0.00  0.00    +0.000 A 
ATOM      5  C   UNL     1       5.367   3.170  13.439  0.00  0.00    +0.000 A 
ATOM      6  C   UNL     1       6.202   3.412  12.357  0.00  0.00    +0.000 A 
ATOM      7  C   UNL     1       7.241   4.329  12.451  0.00  0.00    +0.000 A 
ATOM      8  C   UNL     1       7.447   5.018  13.649  0.00  0.00    +0.000 A 
ATOM      9  C   UNL     1       6.617   4.783  14.757  0.00  0.00    +0.000 A 
ATOM     10  C   UNL     1       6.797   5.454  16.062  0.00  0.00    +0.000 A 
ATOM     11  O   UNL     1       7.801   6.109  16.309  0.00  0.00    +0.000 OA
ENDROOT
BRANCH   2  12
ATOM     12  C   UNL     1       3.654   4.017  17.714  0.00  0.00    +0.000 A 
ATOM     13  C   UNL     1       3.756   2.930  18.595  0.00  0.00    +0.000 A 
ATOM     14  C   UNL     1       2.763   2.698  19.552  0.00  0.00    +0.000 A 
ATOM     15  C   UNL     1       1.668   3.552  19.624  0.00  0.00    +0.000 A 
ATOM     16  C   UNL     1       1.540   4.621  18.743  0.00  0.00    +0.000 A 
ATOM     17  C   UNL     1       2.534   4.855  17.788  0.00  0.00    +0.000 A 
BRANCH  15  18
ATOM     18  O   UNL     1       0.695   3.384  20.563  0.00  0.00    +0.000 OA
ATOM     19  H   UNL     1       0.778   4.086  21.228  0.00  0.00    +0.000 HD
ENDBRANCH  15  18
ENDBRANCH   2  12
BRANCH   1  21
ATOM     20  C   UNL     1       6.448   5.470  19.333  0.00  0.00    +0.000 C 
ATOM     21  O   UNL     1       5.662   5.993  18.264  0.00  0.00    +0.000 OA
ENDBRANCH   1  21
BRANCH   6  22
ATOM     22  O   UNL     1       6.035   2.769  11.168  0.00  0.00    +0.000 OA
ATOM     23  H   UNL     1       6.703   2.067  11.088  0.00  0.00    +0.000 HD
ENDBRANCH   6  22
BRANCH   8  24
ATOM     24  O   UNL     1       8.455   5.938  13.707  0.00  0.00    +0.000 OA
ATOM     25  H   UNL     1       8.092   6.837  13.714  0.00  0.00    +0.000 HD
ENDBRANCH   8  24
TORSDOF 5
ENDMDL
MODEL 3
REMARK VINA RESULT:      -6.8      4.311      7.558
REMARK  Name = 
REMARK  6 active torsions:
REMARK  status: ('A' for Active; 'I' for Inactive)
REMARK    1  A    between atoms: C_1  and  O_2
REMARK    2  A    between atoms: O_2  and  C_3
REMARK    3  A    between atoms: C_4  and  C_5
REMARK    4  A    between atoms: C_8  and  O_9
REMARK    5  A    between atoms: C_15  and  O_16
REMARK    6  A    between atoms: C_18  and  O_19
REMARK                            x       y       z     vdW  Elec       q    Type
REMARK                         _______ _______ _______ _____ _____    ______ ____
ROOT
ATOM      1  C   UNL     1       2.596   7.377  18.196  0.00  0.00    +0.000 A 
ATOM      2  C   UNL     1       2.373   6.528  19.219  0.00  0.00    +0.000 A 
ATOM      3  O   UNL     1       1.710   6.846  20.389  0.00  0.00    +0.000 OA
ATOM      4  C   UNL     1       1.368   8.152  20.616  0.00  0.00    +0.000 A 
ATOM      5  C   UNL     1       0.858   8.438  21.886  0.00  0.00    +0.000 A 
ATOM      6  C   UNL     1       0.492   9.742  22.192  0.00  0.00    +0.000 A 
ATOM      7  C   UNL     1       0.628  10.758  21.253  0.00  0.00    +0.000 A 
ATOM      8  C   UNL     1       1.140  10.464  19.987  0.00  0.00    +0.000 A 
ATOM      9  C   UNL     1       1.510   9.150  19.657  0.00  0.00    +0.000 A 
ATOM     10  C   UNL     1       2.031   8.764  18.328  0.00  0.00    +0.000 A 
ATOM     11  O   UNL     1       1.986   9.534  17.377  0.00  0.00    +0.000 OA
ENDROOT
BRANCH   2  12
ATOM     12  C   UNL     1       2.824   5.126  19.224  0.00  0.00    +0.000 A 
ATOM     13  C   UNL     1       1.991   4.114  18.725  0.00  0.00    +0.000 A 
ATOM     14  C   UNL     1       2.462   2.803  18.603  0.00  0.00    +0.000 A 
ATOM     15  C   UNL     1       3.767   2.506  18.984  0.00  0.00    +0.000 A 
ATOM     16  C   UNL     1       4.599   3.492  19.501  0.00  0.00    +0.000 A 
ATOM     17  C   UNL     1       4.130   4.803  19.621  0.00  0.00    +0.000 A 
BRANCH  15  18
ATOM     18  O   UNL     1       4.278   1.250  18.849  0.00  0.00    +0.000 OA
ATOM     19  H   UNL     1       3.703   0.741  18.254  0.00  0.00    +0.000 HD
ENDBRANCH  15  18
ENDBRANCH   2  12
BRANCH   1  21
ATOM     20  C   UNL     1       4.684   7.178  17.059  0.00  0.00    +0.000 C 
ATOM     21  O   UNL     1       3.276   6.956  17.059  0.00  0.00    +0.000 OA
ENDBRANCH   1  21
BRANCH   6  22
ATOM     22  O   UNL     1      -0.006  10.076  23.414  0.00  0.00    +0.000 OA
ATOM     23  H   UNL     1       0.720  10.388  23.981  0.00  0.00    +0.000 HD
ENDBRANCH   6  22
BRANCH   8  24
ATOM     24  O   UNL     1       1.294  11.484  19.093  0.00  0.00    +0.000 OA
ATOM     25  H   UNL     1       1.341  12.335  19.556  0.00  0.00    +0.000 HD
ENDBRANCH   8  24
TORSDOF 5
ENDMDL
MODEL 4
REMARK VINA RESULT:      -6.7      3.252      4.977
REMARK  Name = 
REMARK  6 active torsions:
REMARK  status: ('A' for Active; 'I' for Inactive)
REMARK    1  A    between atoms: C_1  and  O_2
REMARK    2  A    between atoms: O_2  and  C_3
REMARK    3  A    between atoms: C_4  and  C_5
REMARK    4  A    between atoms: C_8  and  O_9
REMARK    5  A    between atoms: C_15  and  O_16
REMARK    6  A    between atoms: C_18  and  O_19
REMARK                            x       y       z     vdW  Elec       q    Type
REMARK                         _______ _______ _______ _____ _____    ______ ____
ROOT
ATOM      1  C   UNL     1       2.295   5.335  18.771  0.00  0.00    +0.000 A 
ATOM      2  C   UNL     1       2.689   6.592  18.481  0.00  0.00    +0.000 A 
ATOM      3  O   UNL     1       3.695   6.927  17.596  0.00  0.00    +0.000 OA
ATOM      4  C   UNL     1       4.465   5.926  17.067  0.00  0.00    +0.000 A 
ATOM      5  C   UNL     1       5.572   6.337  16.318  0.00  0.00    +0.000 A 
ATOM      6  C   UNL     1       6.402   5.378  15.752  0.00  0.00    +0.000 A 
ATOM      7  C   UNL     1       6.143   4.024  15.922  0.00  0.00    +0.000 A 
ATOM      8  C   UNL     1       5.036   3.621  16.673  0.00  0.00    +0.000 A 
ATOM      9  C   UNL     1       4.182   4.576  17.248  0.00  0.00    +0.000 A 
ATOM     10  C   UNL     1       2.978   4.220  18.029  0.00  0.00    +0.000 A 
ATOM     11  O   UNL     1       2.548   3.074  18.053  0.00  0.00    +0.000 OA
ENDROOT
BRANCH   2  12
ATOM     12  C   UNL     1       2.091   7.792  19.090  0.00  0.00    +0.000 A 
ATOM     13  C   UNL     1       1.690   8.867  18.284  0.00  0.00    +0.000 A 
ATOM     14  C   UNL     1       1.001   9.951  18.838  0.00  0.00    +0.000 A 
ATOM     15  C   UNL     1       0.716   9.957  20.200  0.00  0.00    +0.000 A 
ATOM     16  C   UNL     1       1.126   8.909  21.018  0.00  0.00    +0.000 A 
ATOM     17  C   UNL     1       1.812   7.825  20.464  0.00  0.00    +0.000 A 
BRANCH  15  18
ATOM     18  O   UNL     1       0.016  10.975  20.776  0.00  0.00    +0.000 OA
ATOM     19  H   UNL     1       0.410  11.174  21.641  0.00  0.00    +0.000 HD
ENDBRANCH  15  18
ENDBRANCH   2  12
BRANCH   1  21
ATOM     20  C   UNL     1       1.610   4.321  20.819  0.00  0.00    +0.000 C 
ATOM     21  O   UNL     1       1.268   5.106  19.679  0.00  0.00    +0.000 OA
ENDBRANCH   1  21
BRANCH   6  22
ATOM     22  O   UNL     1       7.495   5.724  15.018  0.00  0.00    +0.000 OA
ATOM     23  H   UNL     1       8.033   4.931  14.852  0.00  0.00    +0.000 HD
ENDBRANCH   6  22
BRANCH   8  24
ATOM     24  O   UNL     1       4.821   2.285  16.852  0.00  0.00    +0.000 OA
ATOM     25  H   UNL     1       4.822   1.825  15.999  0.00  0.00    +0.000 HD
ENDBRANCH   8  24
TORSDOF 5
ENDMDL
MODEL 5
REMARK VINA RESULT:      -6.6      3.263      5.226
REMARK  Name = 
REMARK  6 active torsions:
REMARK  status: ('A' for Active; 'I' for Inactive)
REMARK    1  A    between atoms: C_1  and  O_2
REMARK    2  A    between atoms: O_2  and  C_3
REMARK    3  A    between atoms: C_4  and  C_5
REMARK    4  A    between atoms: C_8  and  O_9
REMARK    5  A    between atoms: C_15  and  O_16
REMARK    6  A    between atoms: C_18  and  O_19
REMARK                            x       y       z     vdW  Elec       q    Type
REMARK                         _______ _______ _______ _____ _____    ______ ____
ROOT
ATOM      1  C   UNL     1       2.149   5.271  18.873  0.00  0.00    +0.000 A 
ATOM      2  C   UNL     1       2.575   6.549  18.825  0.00  0.00    +0.000 A 
ATOM      3  O   UNL     1       3.666   6.999  18.107  0.00  0.00    +0.000 OA
ATOM      4  C   UNL     1       4.481   6.079  17.505  0.00  0.00    +0.000 A 
ATOM      5  C   UNL     1       5.658   6.580  16.942  0.00  0.00    +0.000 A 
ATOM      6  C   UNL     1       6.537   5.706  16.317  0.00  0.00    +0.000 A 
ATOM      7  C   UNL     1       6.258   4.348  16.244  0.00  0.00    +0.000 A 
ATOM      8  C   UNL     1       5.079   3.854  16.810  0.00  0.00    +0.000 A 
ATOM      9  C   UNL     1       4.176   4.723  17.442  0.00  0.00    +0.000 A 
ATOM     10  C   UNL     1       2.899   4.272  18.035  0.00  0.00    +0.000 A 
ATOM     11  O   UNL     1       2.465   3.145  17.836  0.00  0.00    +0.000 OA
ENDROOT
BRANCH   2  12
ATOM     12  C   UNL     1       1.923   7.651  19.554  0.00  0.00    +0.000 A 
ATOM     13  C   UNL     1       1.757   7.577  20.945  0.00  0.00    +0.000 A 
ATOM     14  C   UNL     1       1.262   8.672  21.659  0.00  0.00    +0.000 A 
ATOM     15  C   UNL     1       0.931   9.840  20.980  0.00  0.00    +0.000 A 
ATOM     16  C   UNL     1       1.067   9.923  19.598  0.00  0.00    +0.000 A 
ATOM     17  C   UNL     1       1.565   8.829  18.884  0.00  0.00    +0.000 A 
BRANCH  15  18
ATOM     18  O   UNL     1       0.477  10.943  21.640  0.00  0.00    +0.000 OA
ATOM     19  H   UNL     1       1.072  11.126  22.385  0.00  0.00    +0.000 HD
ENDBRANCH  15  18
ENDBRANCH   2  12
BRANCH   1  21
ATOM     20  C   UNL     1       1.279   4.044  20.725  0.00  0.00    +0.000 C 
ATOM     21  O   UNL     1       1.035   4.922  19.628  0.00  0.00    +0.000 OA
ENDBRANCH   1  21
BRANCH   6  22
ATOM     22  O   UNL     1       7.700   6.142  15.757  0.00  0.00    +0.000 OA
ATOM     23  H   UNL     1       8.232   6.593  16.434  0.00  0.00    +0.000 HD
ENDBRANCH   6  22
BRANCH   8  24
ATOM     24  O   UNL     1       4.843   2.510  16.754  0.00  0.00    +0.000 OA
ATOM     25  H   UNL     1       4.843   2.205  15.834  0.00  0.00    +0.000 HD
ENDBRANCH   8  24
TORSDOF 5
ENDMDL
MODEL 6
REMARK VINA RESULT:      -6.6      3.997      7.372
REMARK  Name = 
REMARK  6 active torsions:
REMARK  status: ('A' for Active; 'I' for Inactive)
REMARK    1  A    between atoms: C_1  and  O_2
REMARK    2  A    between atoms: O_2  and  C_3
REMARK    3  A    between atoms: C_4  and  C_5
REMARK    4  A    between atoms: C_8  and  O_9
REMARK    5  A    between atoms: C_15  and  O_16
REMARK    6  A    between atoms: C_18  and  O_19
REMARK                            x       y       z     vdW  Elec       q    Type
REMARK                         _______ _______ _______ _____ _____    ______ ____
ROOT
ATOM      1  C   UNL     1       2.834   7.288  17.981  0.00  0.00    +0.000 A 
ATOM      2  C   UNL     1       2.538   6.302  18.851  0.00  0.00    +0.000 A 
ATOM      3  O   UNL     1       1.756   6.444  19.981  0.00  0.00    +0.000 OA
ATOM      4  C   UNL     1       1.357   7.701  20.349  0.00  0.00    +0.000 A 
ATOM      5  C   UNL     1       0.718   7.801  21.589  0.00  0.00    +0.000 A 
ATOM      6  C   UNL     1       0.287   9.044  22.031  0.00  0.00    +0.000 A 
ATOM      7  C   UNL     1       0.483  10.182  21.258  0.00  0.00    +0.000 A 
ATOM      8  C   UNL     1       1.123  10.074  20.021  0.00  0.00    +0.000 A 
ATOM      9  C   UNL     1       1.561   8.824  19.554  0.00  0.00    +0.000 A 
ATOM     10  C   UNL     1       2.219   8.634  18.243  0.00  0.00    +0.000 A 
ATOM     11  O   UNL     1       2.243   9.527  17.406  0.00  0.00    +0.000 OA
ENDROOT
BRANCH   2  12
ATOM     12  C   UNL     1       3.027   4.919  18.710  0.00  0.00    +0.000 A 
ATOM     13  C   UNL     1       4.081   4.458  19.511  0.00  0.00    +0.000 A 
ATOM     14  C   UNL     1       4.462   3.113  19.478  0.00  0.00    +0.000 A 
ATOM     15  C   UNL     1       3.786   2.231  18.640  0.00  0.00    +0.000 A 
ATOM     16  C   UNL     1       2.753   2.676  17.823  0.00  0.00    +0.000 A 
ATOM     17  C   UNL     1       2.371   4.020  17.858  0.00  0.00    +0.000 A 
BRANCH  15  18
ATOM     18  O   UNL     1       4.100   0.905  18.601  0.00  0.00    +0.000 OA
ATOM     19  H   UNL     1       3.767   0.530  17.770  0.00  0.00    +0.000 HD
ENDBRANCH  15  18
ENDBRANCH   2  12
BRANCH   1  21
ATOM     20  C   UNL     1       5.039   7.091  17.092  0.00  0.00    +0.000 C 
ATOM     21  O   UNL     1       3.632   7.038  16.870  0.00  0.00    +0.000 OA
ENDBRANCH   1  21
BRANCH   6  22
ATOM     22  O   UNL     1      -0.336   9.198  23.233  0.00  0.00    +0.000 OA
ATOM     23  H   UNL     1      -1.299   9.210  23.094  0.00  0.00    +0.000 HD
ENDBRANCH   6  22
BRANCH   8  24
ATOM     24  O   UNL     1       1.333  11.210  19.294  0.00  0.00    +0.000 OA
ATOM     25  H   UNL     1       2.194  11.173  18.849  0.00  0.00    +0.000 HD
ENDBRANCH   8  24
TORSDOF 5
ENDMDL
MODEL 7
REMARK VINA RESULT:      -6.5      2.789      6.807
REMARK  Name = 
REMARK  6 active torsions:
REMARK  status: ('A' for Active; 'I' for Inactive)
REMARK    1  A    between atoms: C_1  and  O_2
REMARK    2  A    between atoms: O_2  and  C_3
REMARK    3  A    between atoms: C_4  and  C_5
REMARK    4  A    between atoms: C_8  and  O_9
REMARK    5  A    between atoms: C_15  and  O_16
REMARK    6  A    between atoms: C_18  and  O_19
REMARK                            x       y       z     vdW  Elec       q    Type
REMARK                         _______ _______ _______ _____ _____    ______ ____
ROOT
ATOM      1  C   UNL     1       4.220   4.783  18.247  0.00  0.00    +0.000 A 
ATOM      2  C   UNL     1       4.494   5.542  17.167  0.00  0.00    +0.000 A 
ATOM      3  O   UNL     1       4.086   6.849  16.988  0.00  0.00    +0.000 OA
ATOM      4  C   UNL     1       3.214   7.395  17.891  0.00  0.00    +0.000 A 
ATOM      5  C   UNL     1       2.703   8.655  17.563  0.00  0.00    +0.000 A 
ATOM      6  C   UNL     1       1.810   9.271  18.430  0.00  0.00    +0.000 A 
ATOM      7  C   UNL     1       1.423   8.651  19.611  0.00  0.00    +0.000 A 
ATOM      8  C   UNL     1       1.936   7.391  19.930  0.00  0.00    +0.000 A 
ATOM      9  C   UNL     1       2.845   6.755  19.070  0.00  0.00    +0.000 A 
ATOM     10  C   UNL     1       3.448   5.437  19.360  0.00  0.00    +0.000 A 
ATOM     11  O   UNL     1       3.340   4.914  20.461  0.00  0.00    +0.000 OA
ENDROOT
BRANCH   2  12
ATOM     12  C   UNL     1       5.275   5.062  16.014  0.00  0.00    +0.000 A 
ATOM     13  C   UNL     1       4.649   4.335  14.991  0.00  0.00    +0.000 A 
ATOM     14  C   UNL     1       5.352   3.992  13.832  0.00  0.00    +0.000 A 
ATOM     15  C   UNL     1       6.682   4.376  13.700  0.00  0.00    +0.000 A 
ATOM     16  C   UNL     1       7.325   5.078  14.714  0.00  0.00    +0.000 A 
ATOM     17  C   UNL     1       6.622   5.423  15.871  0.00  0.00    +0.000 A 
BRANCH  15  18
ATOM     18  O   UNL     1       7.395   4.093  12.573  0.00  0.00    +0.000 OA
ATOM     19  H   UNL     1       7.289   3.150  12.365  0.00  0.00    +0.000 HD
ENDBRANCH  15  18
ENDBRANCH   2  12
BRANCH   1  21
ATOM     20  C   UNL     1       3.706   2.457  18.110  0.00  0.00    +0.000 C 
ATOM     21  O   UNL     1       4.681   3.474  18.330  0.00  0.00    +0.000 OA
ENDBRANCH   1  21
BRANCH   6  22
ATOM     22  O   UNL     1       1.280  10.495  18.157  0.00  0.00    +0.000 OA
ATOM     23  H   UNL     1       1.985  11.087  17.844  0.00  0.00    +0.000 HD
ENDBRANCH   6  22
BRANCH   8  24
ATOM     24  O   UNL     1       1.515   6.789  21.081  0.00  0.00    +0.000 OA
ATOM     25  H   UNL     1       1.822   7.286  21.855  0.00  0.00    +0.000 HD
ENDBRANCH   8  24
TORSDOF 5
ENDMDL
MODEL 8
REMARK VINA RESULT:      -6.4      3.613      5.529
REMARK  Name = 
REMARK  6 active torsions:
REMARK  status: ('A' for Active; 'I' for Inactive)
REMARK    1  A    between atoms: C_1  and  O_2
REMARK    2  A    between atoms: O_2  and  C_3
REMARK    3  A    between atoms: C_4  and  C_5
REMARK    4  A    between atoms: C_8  and  O_9
REMARK    5  A    between atoms: C_15  and  O_16
REMARK    6  A    between atoms: C_18  and  O_19
REMARK                            x       y       z     vdW  Elec       q    Type
REMARK                         _______ _______ _______ _____ _____    ______ ____
ROOT
ATOM      1  C   UNL     1       2.556   6.014  19.652  0.00  0.00    +0.000 A 
ATOM      2  C   UNL     1       2.670   7.134  18.910  0.00  0.00    +0.000 A 
ATOM      3  O   UNL     1       3.615   7.345  17.925  0.00  0.00    +0.000 OA
ATOM      4  C   UNL     1       4.616   6.424  17.768  0.00  0.00    +0.000 A 
ATOM      5  C   UNL     1       5.636   6.776  16.878  0.00  0.00    +0.000 A 
ATOM      6  C   UNL     1       6.688   5.894  16.669  0.00  0.00    +0.000 A 
ATOM      7  C   UNL     1       6.734   4.673  17.330  0.00  0.00    +0.000 A 
ATOM      8  C   UNL     1       5.712   4.329  18.218  0.00  0.00    +0.000 A 
ATOM      9  C   UNL     1       4.637   5.205  18.438  0.00  0.00    +0.000 A 
ATOM     10  C   UNL     1       3.509   4.893  19.342  0.00  0.00    +0.000 A 
ATOM     11  O   UNL     1       3.350   3.768  19.798  0.00  0.00    +0.000 OA
ENDROOT
BRANCH   2  12
ATOM     12  C   UNL     1       1.786   8.303  19.062  0.00  0.00    +0.000 A 
ATOM     13  C   UNL     1       1.290   8.965  17.930  0.00  0.00    +0.000 A 
ATOM     14  C   UNL     1       0.347   9.989  18.064  0.00  0.00    +0.000 A 
ATOM     15  C   UNL     1      -0.096  10.350  19.332  0.00  0.00    +0.000 A 
ATOM     16  C   UNL     1       0.402   9.719  20.467  0.00  0.00    +0.000 A 
ATOM     17  C   UNL     1       1.342   8.694  20.333  0.00  0.00    +0.000 A 
BRANCH  15  18
ATOM     18  O   UNL     1      -1.040  11.318  19.507  0.00  0.00    +0.000 OA
ATOM     19  H   UNL     1      -1.670  11.020  20.184  0.00  0.00    +0.000 HD
ENDBRANCH  15  18
ENDBRANCH   2  12
BRANCH   1  21
ATOM     20  C   UNL     1       0.721   4.757  20.516  0.00  0.00    +0.000 C 
ATOM     21  O   UNL     1       1.565   5.902  20.620  0.00  0.00    +0.000 OA
ENDBRANCH   1  21
BRANCH   6  22
ATOM     22  O   UNL     1       7.709   6.189  15.817  0.00  0.00    +0.000 OA
ATOM     23  H   UNL     1       7.617   5.654  15.011  0.00  0.00    +0.000 HD
ENDBRANCH   6  22
BRANCH   8  24
ATOM     24  O   UNL     1       5.797   3.138  18.880  0.00  0.00    +0.000 OA
ATOM     25  H   UNL     1       6.503   2.591  18.502  0.00  0.00    +0.000 HD
ENDBRANCH   8  24
TORSDOF 5
ENDMDL
MODEL 9
REMARK VINA RESULT:      -6.3      3.553      6.675
REMARK  Name = 
REMARK  6 active torsions:
REMARK  status: ('A' for Active; 'I' for Inactive)
REMARK    1  A    between atoms: C_1  and  O_2
REMARK    2  A    between atoms: O_2  and  C_3
REMARK    3  A    between atoms: C_4  and  C_5
REMARK    4  A    between atoms: C_8  and  O_9
REMARK    5  A    between atoms: C_15  and  O_16
REMARK    6  A    between atoms: C_18  and  O_19
REMARK                            x       y       z     vdW  Elec       q    Type
REMARK                         _______ _______ _______ _____ _____    ______ ____
ROOT
ATOM      1  C   UNL     1       3.855   6.406  18.565  0.00  0.00    +0.000 A 
ATOM      2  C   UNL     1       2.764   6.789  19.259  0.00  0.00    +0.000 A 
ATOM      3  O   UNL     1       2.140   6.041  20.239  0.00  0.00    +0.000 OA
ATOM      4  C   UNL     1       2.550   4.751  20.441  0.00  0.00    +0.000 A 
ATOM      5  C   UNL     1       1.771   3.992  21.320  0.00  0.00    +0.000 A 
ATOM      6  C   UNL     1       2.122   2.673  21.573  0.00  0.00    +0.000 A 
ATOM      7  C   UNL     1       3.234   2.105  20.965  0.00  0.00    +0.000 A 
ATOM      8  C   UNL     1       4.007   2.869  20.087  0.00  0.00    +0.000 A 
ATOM      9  C   UNL     1       3.671   4.206  19.823  0.00  0.00    +0.000 A 
ATOM     10  C   UNL     1       4.461   5.079  18.928  0.00  0.00    +0.000 A 
ATOM     11  O   UNL     1       5.565   4.742  18.520  0.00  0.00    +0.000 OA
ENDROOT
BRANCH   2  12
ATOM     12  C   UNL     1       2.080   8.077  19.052  0.00  0.00    +0.000 A 
ATOM     13  C   UNL     1       1.937   8.600  17.759  0.00  0.00    +0.000 A 
ATOM     14  C   UNL     1       1.174   9.752  17.540  0.00  0.00    +0.000 A 
ATOM     15  C   UNL     1       0.558  10.379  18.617  0.00  0.00    +0.000 A 
ATOM     16  C   UNL     1       0.709   9.887  19.909  0.00  0.00    +0.000 A 
ATOM     17  C   UNL     1       1.468   8.735  20.128  0.00  0.00    +0.000 A 
BRANCH  15  18
ATOM     18  O   UNL     1      -0.222  11.484  18.446  0.00  0.00    +0.000 OA
ATOM     19  H   UNL     1      -0.584  11.473  17.545  0.00  0.00    +0.000 HD
ENDBRANCH  15  18
ENDBRANCH   2  12
BRANCH   1  21
ATOM     20  C   UNL     1       4.753   6.610  16.364  0.00  0.00    +0.000 C 
ATOM     21  O   UNL     1       4.408   7.236  17.597  0.00  0.00    +0.000 OA
ENDBRANCH   1  21
BRANCH   6  22
ATOM     22  O   UNL     1       1.395   1.890  22.416  0.00  0.00    +0.000 OA
ATOM     23  H   UNL     1       0.662   2.411  22.786  0.00  0.00    +0.000 HD
ENDBRANCH   6  22
BRANCH   8  24
ATOM     24  O   UNL     1       5.077   2.278  19.477  0.00  0.00    +0.000 OA
ATOM     25  H   UNL     1       5.874   2.817  19.596  0.00  0.00    +0.000 HD
ENDBRANCH   8  24
TORSDOF 5
ENDMDL
