MODEL 1
REMARK VINA RESULT:      -8.5      0.000      0.000
REMARK  Name = 
REMARK  10 active torsions:
REMARK  status: ('A' for Active; 'I' for Inactive)
REMARK    1  A    between atoms: C_2  and  C_7
REMARK    2  A    between atoms: N_3  and  C_4
REMARK    3  A    between atoms: C_9  and  C_10
REMARK    4  A    between atoms: C_13  and  C_14
REMARK    5  A    between atoms: C_21  and  O_22
REMARK    6  A    between atoms: O_22  and  C_23
REMARK    7  A    between atoms: C_23  and  C_24
REMARK    8  A    between atoms: C_24  and  C_25
REMARK    9  A    between atoms: C_25  and  C_26
REMARK   10  A    between atoms: C_26  and  O_27
REMARK                            x       y       z     vdW  Elec       q    Type
REMARK                         _______ _______ _______ _____ _____    ______ ____
ROOT
ATOM      1  C   UNL     1       7.049   5.280  16.046  0.00  0.00    +0.000 C 
ATOM      2  C   UNL     1       6.500   4.292  16.772  0.00  0.00    +0.000 C 
ATOM      3  C   UNL     1       6.343   4.372  18.256  0.00  0.00    +0.000 C 
ATOM      4  C   UNL     1       6.768   5.733  18.799  0.00  0.00    +0.000 C 
ATOM      5  C   UNL     1       7.914   6.339  17.987  0.00  0.00    +0.000 C 
ATOM      6  O   UNL     1       7.565   6.440  16.596  0.00  0.00    +0.000 OA
ENDROOT
BRANCH   3   7
ATOM      7  C   UNL     1       4.921   4.069  18.698  0.00  0.00    +0.000 A 
ATOM      8  C   UNL     1       4.645   2.939  19.476  0.00  0.00    +0.000 A 
ATOM      9  C   UNL     1       3.341   2.675  19.896  0.00  0.00    +0.000 A 
ATOM     10  C   UNL     1       2.290   3.536  19.551  0.00  0.00    +0.000 A 
ATOM     11  C   UNL     1       2.564   4.676  18.780  0.00  0.00    +0.000 A 
ATOM     12  C   UNL     1       3.866   4.932  18.354  0.00  0.00    +0.000 A 
BRANCH  10  13
ATOM     13  C   UNL     1       0.877   3.252  19.995  0.00  0.00    +0.000 C 
ATOM     14  F   UNL     1       0.808   2.572  21.174  0.00  0.00    +0.000 F 
ATOM     15  F   UNL     1       0.146   4.384  20.174  0.00  0.00    +0.000 F 
ATOM     16  F   UNL     1       0.188   2.499  19.092  0.00  0.00    +0.000 F 
ENDBRANCH  10  13
ENDBRANCH   3   7
BRANCH   1  18
ATOM     17  O   UNL     1       7.934   5.648  13.848  0.00  0.00    +0.000 OA
ATOM     18  C   UNL     1       7.092   5.106  14.551  0.00  0.00    +0.000 C 
ATOM     19  N   UNL     1       6.085   4.289  14.078  0.00  0.00    +0.000 N 
ATOM     20  H   UNL     1       5.464   3.874  14.765  0.00  0.00    +0.000 HD
BRANCH  19  21
ATOM     21  C   UNL     1       5.936   3.978  12.695  0.00  0.00    +0.000 C 
ATOM     22  C   UNL     1       5.962   2.545  12.236  0.00  0.00    +0.000 C 
ATOM     23  C   UNL     1       4.686   3.330  12.164  0.00  0.00    +0.000 C 
ENDBRANCH  19  21
ENDBRANCH   1  18
BRANCH   5  24
ATOM     24  O   UNL     1       8.230   7.661  18.470  0.00  0.00    +0.000 OA
BRANCH  24  25
ATOM     25  C   UNL     1       7.918   8.676  17.524  0.00  0.00    +0.000 C 
BRANCH  25  26
ATOM     26  C   UNL     1       8.375  10.055  17.982  0.00  0.00    +0.000 C 
BRANCH  26  27
ATOM     27  C   UNL     1       9.173   9.881  19.274  0.00  0.00    +0.000 C 
BRANCH  27  28
ATOM     28  C   UNL     1       9.467  11.187  19.984  0.00  0.00    +0.000 C 
BRANCH  28  29
ATOM     29  O   UNL     1       9.508  10.952  21.386  0.00  0.00    +0.000 OA
ATOM     30  H   UNL     1      10.402  10.646  21.610  0.00  0.00    +0.000 HD
ENDBRANCH  28  29
ENDBRANCH  27  28
ENDBRANCH  26  27
ENDBRANCH  25  26
ENDBRANCH  24  25
ENDBRANCH   5  24
TORSDOF 10
ENDMDL
MODEL 2
REMARK VINA RESULT:      -8.4      0.746      1.024
REMARK  Name = 
REMARK  10 active torsions:
REMARK  status: ('A' for Active; 'I' for Inactive)
REMARK    1  A    between atoms: C_2  and  C_7
REMARK    2  A    between atoms: N_3  and  C_4
REMARK    3  A    between atoms: C_9  and  C_10
REMARK    4  A    between atoms: C_13  and  C_14
REMARK    5  A    between atoms: C_21  and  O_22
REMARK    6  A    between atoms: O_22  and  C_23
REMARK    7  A    between atoms: C_23  and  C_24
REMARK    8  A    between atoms: C_24  and  C_25
REMARK    9  A    between atoms: C_25  and  C_26
REMARK   10  A    between atoms: C_26  and  O_27
REMARK                            x       y       z     vdW  Elec       q    Type
REMARK                         _______ _______ _______ _____ _____    ______ ____
ROOT
ATOM      1  C   UNL     1       7.088   5.172  15.948  0.00  0.00    +0.000 C 
ATOM      2  C   UNL     1       6.533   4.168  16.648  0.00  0.00    +0.000 C 
ATOM      3  C   UNL     1       6.354   4.219  18.130  0.00  0.00    +0.000 C 
ATOM      4  C   UNL     1       6.766   5.571  18.705  0.00  0.00    +0.000 C 
ATOM      5  C   UNL     1       7.920   6.197  17.921  0.00  0.00    +0.000 C 
ATOM      6  O   UNL     1       7.591   6.323  16.527  0.00  0.00    +0.000 OA
ENDROOT
BRANCH   3   7
ATOM      7  C   UNL     1       4.927   3.902  18.546  0.00  0.00    +0.000 A 
ATOM      8  C   UNL     1       4.672   3.202  19.731  0.00  0.00    +0.000 A 
ATOM      9  C   UNL     1       3.359   2.929  20.118  0.00  0.00    +0.000 A 
ATOM     10  C   UNL     1       2.278   3.354  19.333  0.00  0.00    +0.000 A 
ATOM     11  C   UNL     1       2.530   4.065  18.149  0.00  0.00    +0.000 A 
ATOM     12  C   UNL     1       3.842   4.328  17.761  0.00  0.00    +0.000 A 
BRANCH  10  13
ATOM     13  C   UNL     1       0.858   3.056  19.742  0.00  0.00    +0.000 C 
ATOM     14  F   UNL     1       0.119   4.176  19.983  0.00  0.00    +0.000 F 
ATOM     15  F   UNL     1       0.177   2.355  18.797  0.00  0.00    +0.000 F 
ATOM     16  F   UNL     1       0.789   2.314  20.883  0.00  0.00    +0.000 F 
ENDBRANCH  10  13
ENDBRANCH   3   7
BRANCH   1  18
ATOM     17  O   UNL     1       7.948   5.652  13.762  0.00  0.00    +0.000 OA
ATOM     18  C   UNL     1       7.153   5.026  14.451  0.00  0.00    +0.000 C 
ATOM     19  N   UNL     1       6.224   4.131  13.959  0.00  0.00    +0.000 N 
ATOM     20  H   UNL     1       5.639   3.652  14.636  0.00  0.00    +0.000 HD
BRANCH  19  21
ATOM     21  C   UNL     1       6.110   3.830  12.570  0.00  0.00    +0.000 C 
ATOM     22  C   UNL     1       5.886   2.413  12.121  0.00  0.00    +0.000 C 
ATOM     23  C   UNL     1       4.795   3.429  11.958  0.00  0.00    +0.000 C 
ENDBRANCH  19  21
ENDBRANCH   1  18
BRANCH   5  24
ATOM     24  O   UNL     1       8.224   7.511  18.434  0.00  0.00    +0.000 OA
BRANCH  24  25
ATOM     25  C   UNL     1       7.610   8.547  17.676  0.00  0.00    +0.000 C 
BRANCH  25  26
ATOM     26  C   UNL     1       8.355   9.870  17.795  0.00  0.00    +0.000 C 
BRANCH  26  27
ATOM     27  C   UNL     1       9.161   9.841  19.093  0.00  0.00    +0.000 C 
BRANCH  27  28
ATOM     28  C   UNL     1       9.944  11.113  19.347  0.00  0.00    +0.000 C 
BRANCH  28  29
ATOM     29  O   UNL     1      10.264  11.716  18.099  0.00  0.00    +0.000 OA
ATOM     30  H   UNL     1       9.836  11.196  17.399  0.00  0.00    +0.000 HD
ENDBRANCH  28  29
ENDBRANCH  27  28
ENDBRANCH  26  27
ENDBRANCH  25  26
ENDBRANCH  24  25
ENDBRANCH   5  24
TORSDOF 10
ENDMDL
MODEL 3
REMARK VINA RESULT:      -8.1      2.036      6.308
REMARK  Name = 
REMARK  10 active torsions:
REMARK  status: ('A' for Active; 'I' for Inactive)
REMARK    1  A    between atoms: C_2  and  C_7
REMARK    2  A    between atoms: N_3  and  C_4
REMARK    3  A    between atoms: C_9  and  C_10
REMARK    4  A    between atoms: C_13  and  C_14
REMARK    5  A    between atoms: C_21  and  O_22
REMARK    6  A    between atoms: O_22  and  C_23
REMARK    7  A    between atoms: C_23  and  C_24
REMARK    8  A    between atoms: C_24  and  C_25
REMARK    9  A    between atoms: C_25  and  C_26
REMARK   10  A    between atoms: C_26  and  O_27
REMARK                            x       y       z     vdW  Elec       q    Type
REMARK                         _______ _______ _______ _____ _____    ______ ____
ROOT
ATOM      1  C   UNL     1       6.986   6.911  17.147  0.00  0.00    +0.000 C 
ATOM      2  C   UNL     1       5.670   6.959  17.416  0.00  0.00    +0.000 C 
ATOM      3  C   UNL     1       4.650   6.247  16.590  0.00  0.00    +0.000 C 
ATOM      4  C   UNL     1       5.296   5.389  15.506  0.00  0.00    +0.000 C 
ATOM      5  C   UNL     1       6.594   6.008  14.987  0.00  0.00    +0.000 C 
ATOM      6  O   UNL     1       7.521   6.243  16.059  0.00  0.00    +0.000 OA
ENDROOT
BRANCH   3   7
ATOM      7  C   UNL     1       3.726   5.388  17.436  0.00  0.00    +0.000 A 
ATOM      8  C   UNL     1       3.077   5.929  18.552  0.00  0.00    +0.000 A 
ATOM      9  C   UNL     1       2.215   5.140  19.315  0.00  0.00    +0.000 A 
ATOM     10  C   UNL     1       1.981   3.800  18.976  0.00  0.00    +0.000 A 
ATOM     11  C   UNL     1       2.622   3.257  17.852  0.00  0.00    +0.000 A 
ATOM     12  C   UNL     1       3.489   4.044  17.097  0.00  0.00    +0.000 A 
BRANCH  10  13
ATOM     13  C   UNL     1       1.057   2.941  19.801  0.00  0.00    +0.000 C 
ATOM     14  F   UNL     1       1.712   2.025  20.570  0.00  0.00    +0.000 F 
ATOM     15  F   UNL     1       0.292   3.668  20.658  0.00  0.00    +0.000 F 
ATOM     16  F   UNL     1       0.186   2.226  19.035  0.00  0.00    +0.000 F 
ENDBRANCH  10  13
ENDBRANCH   3   7
BRANCH   1  18
ATOM     17  O   UNL     1       8.493   7.042  19.008  0.00  0.00    +0.000 OA
ATOM     18  C   UNL     1       7.918   7.619  18.093  0.00  0.00    +0.000 C 
ATOM     19  N   UNL     1       8.036   8.967  17.820  0.00  0.00    +0.000 N 
ATOM     20  H   UNL     1       7.530   9.323  17.016  0.00  0.00    +0.000 HD
BRANCH  19  21
ATOM     21  C   UNL     1       8.871   9.834  18.585  0.00  0.00    +0.000 C 
ATOM     22  C   UNL     1       9.890  10.700  17.897  0.00  0.00    +0.000 C 
ATOM     23  C   UNL     1       8.695  11.328  18.550  0.00  0.00    +0.000 C 
ENDBRANCH  19  21
ENDBRANCH   1  18
BRANCH   5  24
ATOM     24  O   UNL     1       7.224   5.129  14.030  0.00  0.00    +0.000 OA
BRANCH  24  25
ATOM     25  C   UNL     1       6.370   4.068  13.621  0.00  0.00    +0.000 C 
BRANCH  25  26
ATOM     26  C   UNL     1       6.773   3.488  12.272  0.00  0.00    +0.000 C 
BRANCH  26  27
ATOM     27  C   UNL     1       5.597   2.668  11.742  0.00  0.00    +0.000 C 
BRANCH  27  28
ATOM     28  C   UNL     1       4.284   3.426  11.742  0.00  0.00    +0.000 C 
BRANCH  28  29
ATOM     29  O   UNL     1       3.557   3.090  10.566  0.00  0.00    +0.000 OA
ATOM     30  H   UNL     1       2.979   2.338  10.779  0.00  0.00    +0.000 HD
ENDBRANCH  28  29
ENDBRANCH  27  28
ENDBRANCH  26  27
ENDBRANCH  25  26
ENDBRANCH  24  25
ENDBRANCH   5  24
TORSDOF 10
ENDMDL
MODEL 4
REMARK VINA RESULT:      -8.1      0.487      1.212
REMARK  Name = 
REMARK  10 active torsions:
REMARK  status: ('A' for Active; 'I' for Inactive)
REMARK    1  A    between atoms: C_2  and  C_7
REMARK    2  A    between atoms: N_3  and  C_4
REMARK    3  A    between atoms: C_9  and  C_10
REMARK    4  A    between atoms: C_13  and  C_14
REMARK    5  A    between atoms: C_21  and  O_22
REMARK    6  A    between atoms: O_22  and  C_23
REMARK    7  A    between atoms: C_23  and  C_24
REMARK    8  A    between atoms: C_24  and  C_25
REMARK    9  A    between atoms: C_25  and  C_26
REMARK   10  A    between atoms: C_26  and  O_27
REMARK                            x       y       z     vdW  Elec       q    Type
REMARK                         _______ _______ _______ _____ _____    ______ ____
ROOT
ATOM      1  C   UNL     1       7.124   5.199  15.884  0.00  0.00    +0.000 C 
ATOM      2  C   UNL     1       6.533   4.206  16.571  0.00  0.00    +0.000 C 
ATOM      3  C   UNL     1       6.326   4.260  18.049  0.00  0.00    +0.000 C 
ATOM      4  C   UNL     1       6.755   5.602  18.635  0.00  0.00    +0.000 C 
ATOM      5  C   UNL     1       7.938   6.203  17.875  0.00  0.00    +0.000 C 
ATOM      6  O   UNL     1       7.641   6.338  16.475  0.00  0.00    +0.000 OA
ENDROOT
BRANCH   3   7
ATOM      7  C   UNL     1       4.884   3.974  18.436  0.00  0.00    +0.000 A 
ATOM      8  C   UNL     1       3.845   4.215  17.531  0.00  0.00    +0.000 A 
ATOM      9  C   UNL     1       2.524   3.932  17.885  0.00  0.00    +0.000 A 
ATOM     10  C   UNL     1       2.219   3.401  19.146  0.00  0.00    +0.000 A 
ATOM     11  C   UNL     1       3.260   3.148  20.052  0.00  0.00    +0.000 A 
ATOM     12  C   UNL     1       4.576   3.440  19.700  0.00  0.00    +0.000 A 
BRANCH  10  13
ATOM     13  C   UNL     1       0.794   3.101  19.536  0.00  0.00    +0.000 C 
ATOM     14  F   UNL     1      -0.007   2.804  18.473  0.00  0.00    +0.000 F 
ATOM     15  F   UNL     1       0.694   2.044  20.385  0.00  0.00    +0.000 F 
ATOM     16  F   UNL     1       0.195   4.149  20.169  0.00  0.00    +0.000 F 
ENDBRANCH  10  13
ENDBRANCH   3   7
BRANCH   1  18
ATOM     17  O   UNL     1       7.947   5.754  13.701  0.00  0.00    +0.000 OA
ATOM     18  C   UNL     1       7.216   5.053  14.389  0.00  0.00    +0.000 C 
ATOM     19  N   UNL     1       6.388   4.065  13.895  0.00  0.00    +0.000 N 
ATOM     20  H   UNL     1       5.850   3.531  14.570  0.00  0.00    +0.000 HD
BRANCH  19  21
ATOM     21  C   UNL     1       6.316   3.747  12.507  0.00  0.00    +0.000 C 
ATOM     22  C   UNL     1       5.955   2.354  12.069  0.00  0.00    +0.000 C 
ATOM     23  C   UNL     1       5.000   3.485  11.827  0.00  0.00    +0.000 C 
ENDBRANCH  19  21
ENDBRANCH   1  18
BRANCH   5  24
ATOM     24  O   UNL     1       8.261   7.510  18.396  0.00  0.00    +0.000 OA
BRANCH  24  25
ATOM     25  C   UNL     1       7.731   8.561  17.596  0.00  0.00    +0.000 C 
BRANCH  25  26
ATOM     26  C   UNL     1       8.481   9.872  17.793  0.00  0.00    +0.000 C 
BRANCH  26  27
ATOM     27  C   UNL     1       9.121   9.843  19.180  0.00  0.00    +0.000 C 
BRANCH  27  28
ATOM     28  C   UNL     1       9.287  11.217  19.798  0.00  0.00    +0.000 C 
BRANCH  28  29
ATOM     29  O   UNL     1       9.898  11.079  21.075  0.00  0.00    +0.000 OA
ATOM     30  H   UNL     1       9.194  11.085  21.744  0.00  0.00    +0.000 HD
ENDBRANCH  28  29
ENDBRANCH  27  28
ENDBRANCH  26  27
ENDBRANCH  25  26
ENDBRANCH  24  25
ENDBRANCH   5  24
TORSDOF 10
ENDMDL
MODEL 5
REMARK VINA RESULT:      -8.1      2.076      6.442
REMARK  Name = 
REMARK  10 active torsions:
REMARK  status: ('A' for Active; 'I' for Inactive)
REMARK    1  A    between atoms: C_2  and  C_7
REMARK    2  A    between atoms: N_3  and  C_4
REMARK    3  A    between atoms: C_9  and  C_10
REMARK    4  A    between atoms: C_13  and  C_14
REMARK    5  A    between atoms: C_21  and  O_22
REMARK    6  A    between atoms: O_22  and  C_23
REMARK    7  A    between atoms: C_23  and  C_24
REMARK    8  A    between atoms: C_24  and  C_25
REMARK    9  A    between atoms: C_25  and  C_26
REMARK   10  A    between atoms: C_26  and  O_27
REMARK                            x       y       z     vdW  Elec       q    Type
REMARK                         _______ _______ _______ _____ _____    ______ ____
ROOT
ATOM      1  C   UNL     1       7.039   6.756  17.140  0.00  0.00    +0.000 C 
ATOM      2  C   UNL     1       5.715   6.805  17.371  0.00  0.00    +0.000 C 
ATOM      3  C   UNL     1       4.720   6.089  16.518  0.00  0.00    +0.000 C 
ATOM      4  C   UNL     1       5.398   5.225  15.458  0.00  0.00    +0.000 C 
ATOM      5  C   UNL     1       6.711   5.842  14.974  0.00  0.00    +0.000 C 
ATOM      6  O   UNL     1       7.606   6.083  16.072  0.00  0.00    +0.000 OA
ENDROOT
BRANCH   3   7
ATOM      7  C   UNL     1       3.771   5.233  17.341  0.00  0.00    +0.000 A 
ATOM      8  C   UNL     1       4.064   3.888  17.590  0.00  0.00    +0.000 A 
ATOM      9  C   UNL     1       3.198   3.111  18.362  0.00  0.00    +0.000 A 
ATOM     10  C   UNL     1       2.029   3.665  18.903  0.00  0.00    +0.000 A 
ATOM     11  C   UNL     1       1.739   5.017  18.664  0.00  0.00    +0.000 A 
ATOM     12  C   UNL     1       2.599   5.787  17.885  0.00  0.00    +0.000 A 
BRANCH  10  13
ATOM     13  C   UNL     1       1.087   2.829  19.732  0.00  0.00    +0.000 C 
ATOM     14  F   UNL     1      -0.073   2.523  19.085  0.00  0.00    +0.000 F 
ATOM     15  F   UNL     1       1.631   1.641  20.105  0.00  0.00    +0.000 F 
ATOM     16  F   UNL     1       0.715   3.452  20.886  0.00  0.00    +0.000 F 
ENDBRANCH  10  13
ENDBRANCH   3   7
BRANCH   1  18
ATOM     17  O   UNL     1       8.464   6.904  19.063  0.00  0.00    +0.000 OA
ATOM     18  C   UNL     1       7.942   7.469  18.110  0.00  0.00    +0.000 C 
ATOM     19  N   UNL     1       8.099   8.807  17.811  0.00  0.00    +0.000 N 
ATOM     20  H   UNL     1       7.637   9.153  16.977  0.00  0.00    +0.000 HD
BRANCH  19  21
ATOM     21  C   UNL     1       8.917   9.677  18.592  0.00  0.00    +0.000 C 
ATOM     22  C   UNL     1       9.595  10.855  17.947  0.00  0.00    +0.000 C 
ATOM     23  C   UNL     1       8.481  11.077  18.926  0.00  0.00    +0.000 C 
ENDBRANCH  19  21
ENDBRANCH   1  18
BRANCH   5  24
ATOM     24  O   UNL     1       7.369   4.959  14.041  0.00  0.00    +0.000 OA
BRANCH  24  25
ATOM     25  C   UNL     1       6.525   3.899  13.608  0.00  0.00    +0.000 C 
BRANCH  25  26
ATOM     26  C   UNL     1       6.599   3.679  12.102  0.00  0.00    +0.000 C 
BRANCH  26  27
ATOM     27  C   UNL     1       5.863   2.380  11.780  0.00  0.00    +0.000 C 
BRANCH  27  28
ATOM     28  C   UNL     1       6.692   1.397  10.978  0.00  0.00    +0.000 C 
BRANCH  28  29
ATOM     29  O   UNL     1       6.260   0.075  11.276  0.00  0.00    +0.000 OA
ATOM     30  H   UNL     1       5.986   0.056  12.208  0.00  0.00    +0.000 HD
ENDBRANCH  28  29
ENDBRANCH  27  28
ENDBRANCH  26  27
ENDBRANCH  25  26
ENDBRANCH  24  25
ENDBRANCH   5  24
TORSDOF 10
ENDMDL
MODEL 6
REMARK VINA RESULT:      -7.8      5.077      8.259
REMARK  Name = 
REMARK  10 active torsions:
REMARK  status: ('A' for Active; 'I' for Inactive)
REMARK    1  A    between atoms: C_2  and  C_7
REMARK    2  A    between atoms: N_3  and  C_4
REMARK    3  A    between atoms: C_9  and  C_10
REMARK    4  A    between atoms: C_13  and  C_14
REMARK    5  A    between atoms: C_21  and  O_22
REMARK    6  A    between atoms: O_22  and  C_23
REMARK    7  A    between atoms: C_23  and  C_24
REMARK    8  A    between atoms: C_24  and  C_25
REMARK    9  A    between atoms: C_25  and  C_26
REMARK   10  A    between atoms: C_26  and  O_27
REMARK                            x       y       z     vdW  Elec       q    Type
REMARK                         _______ _______ _______ _____ _____    ______ ____
ROOT
ATOM      1  C   UNL     1       3.466   6.092  18.930  0.00  0.00    +0.000 C 
ATOM      2  C   UNL     1       4.566   6.145  18.160  0.00  0.00    +0.000 C 
ATOM      3  C   UNL     1       5.491   4.984  17.990  0.00  0.00    +0.000 C 
ATOM      4  C   UNL     1       4.966   3.734  18.692  0.00  0.00    +0.000 C 
ATOM      5  C   UNL     1       4.185   4.078  19.961  0.00  0.00    +0.000 C 
ATOM      6  O   UNL     1       3.106   4.983  19.675  0.00  0.00    +0.000 OA
ENDROOT
BRANCH   3   7
ATOM      7  C   UNL     1       5.757   4.673  16.527  0.00  0.00    +0.000 A 
ATOM      8  C   UNL     1       4.826   3.948  15.775  0.00  0.00    +0.000 A 
ATOM      9  C   UNL     1       5.066   3.681  14.426  0.00  0.00    +0.000 A 
ATOM     10  C   UNL     1       6.237   4.137  13.803  0.00  0.00    +0.000 A 
ATOM     11  C   UNL     1       7.168   4.873  14.552  0.00  0.00    +0.000 A 
ATOM     12  C   UNL     1       6.930   5.130  15.900  0.00  0.00    +0.000 A 
BRANCH  10  13
ATOM     13  C   UNL     1       6.506   3.844  12.349  0.00  0.00    +0.000 C 
ATOM     14  F   UNL     1       7.367   4.729  11.771  0.00  0.00    +0.000 F 
ATOM     15  F   UNL     1       7.048   2.613  12.154  0.00  0.00    +0.000 F 
ATOM     16  F   UNL     1       5.373   3.881  11.592  0.00  0.00    +0.000 F 
ENDBRANCH  10  13
ENDBRANCH   3   7
BRANCH   1  18
ATOM     17  O   UNL     1       2.332   7.973  17.969  0.00  0.00    +0.000 OA
ATOM     18  C   UNL     1       2.581   7.309  18.967  0.00  0.00    +0.000 C 
ATOM     19  N   UNL     1       2.105   7.587  20.232  0.00  0.00    +0.000 N 
ATOM     20  H   UNL     1       2.360   6.944  20.975  0.00  0.00    +0.000 HD
BRANCH  19  21
ATOM     21  C   UNL     1       1.244   8.690  20.502  0.00  0.00    +0.000 C 
ATOM     22  C   UNL     1       0.034   8.507  21.377  0.00  0.00    +0.000 C 
ATOM     23  C   UNL     1       1.189   9.332  21.862  0.00  0.00    +0.000 C 
ENDBRANCH  19  21
ENDBRANCH   1  18
BRANCH   5  24
ATOM     24  O   UNL     1       3.629   2.883  20.549  0.00  0.00    +0.000 OA
BRANCH  24  25
ATOM     25  C   UNL     1       2.624   3.169  21.515  0.00  0.00    +0.000 C 
BRANCH  25  26
ATOM     26  C   UNL     1       1.296   2.502  21.183  0.00  0.00    +0.000 C 
BRANCH  26  27
ATOM     27  C   UNL     1       0.759   3.136  19.901  0.00  0.00    +0.000 C 
BRANCH  27  28
ATOM     28  C   UNL     1       0.673   2.168  18.737  0.00  0.00    +0.000 C 
BRANCH  28  29
ATOM     29  O   UNL     1       1.988   1.790  18.351  0.00  0.00    +0.000 OA
ATOM     30  H   UNL     1       2.458   1.492  19.148  0.00  0.00    +0.000 HD
ENDBRANCH  28  29
ENDBRANCH  27  28
ENDBRANCH  26  27
ENDBRANCH  25  26
ENDBRANCH  24  25
ENDBRANCH   5  24
TORSDOF 10
ENDMDL
MODEL 7
REMARK VINA RESULT:      -7.8      2.099      6.448
REMARK  Name = 
REMARK  10 active torsions:
REMARK  status: ('A' for Active; 'I' for Inactive)
REMARK    1  A    between atoms: C_2  and  C_7
REMARK    2  A    between atoms: N_3  and  C_4
REMARK    3  A    between atoms: C_9  and  C_10
REMARK    4  A    between atoms: C_13  and  C_14
REMARK    5  A    between atoms: C_21  and  O_22
REMARK    6  A    between atoms: O_22  and  C_23
REMARK    7  A    between atoms: C_23  and  C_24
REMARK    8  A    between atoms: C_24  and  C_25
REMARK    9  A    between atoms: C_25  and  C_26
REMARK   10  A    between atoms: C_26  and  O_27
REMARK                            x       y       z     vdW  Elec       q    Type
REMARK                         _______ _______ _______ _____ _____    ______ ____
ROOT
ATOM      1  C   UNL     1       6.951   6.832  17.066  0.00  0.00    +0.000 C 
ATOM      2  C   UNL     1       5.637   6.828  17.346  0.00  0.00    +0.000 C 
ATOM      3  C   UNL     1       4.642   6.060  16.539  0.00  0.00    +0.000 C 
ATOM      4  C   UNL     1       5.316   5.214  15.463  0.00  0.00    +0.000 C 
ATOM      5  C   UNL     1       6.582   5.880  14.923  0.00  0.00    +0.000 C 
ATOM      6  O   UNL     1       7.507   6.172  15.984  0.00  0.00    +0.000 OA
ENDROOT
BRANCH   3   7
ATOM      7  C   UNL     1       3.762   5.174  17.406  0.00  0.00    +0.000 A 
ATOM      8  C   UNL     1       2.788   5.737  18.237  0.00  0.00    +0.000 A 
ATOM      9  C   UNL     1       1.970   4.918  19.018  0.00  0.00    +0.000 A 
ATOM     10  C   UNL     1       2.107   3.524  18.978  0.00  0.00    +0.000 A 
ATOM     11  C   UNL     1       3.077   2.955  18.138  0.00  0.00    +0.000 A 
ATOM     12  C   UNL     1       3.898   3.775  17.368  0.00  0.00    +0.000 A 
BRANCH  10  13
ATOM     13  C   UNL     1       1.232   2.635  19.825  0.00  0.00    +0.000 C 
ATOM     14  F   UNL     1       1.206   2.996  21.139  0.00  0.00    +0.000 F 
ATOM     15  F   UNL     1      -0.063   2.630  19.413  0.00  0.00    +0.000 F 
ATOM     16  F   UNL     1       1.638   1.334  19.807  0.00  0.00    +0.000 F 
ENDBRANCH  10  13
ENDBRANCH   3   7
BRANCH   1  18
ATOM     17  O   UNL     1       8.481   7.054  18.899  0.00  0.00    +0.000 OA
ATOM     18  C   UNL     1       7.859   7.595  17.994  0.00  0.00    +0.000 C 
ATOM     19  N   UNL     1       7.897   8.946  17.716  0.00  0.00    +0.000 N 
ATOM     20  H   UNL     1       7.358   9.270  16.920  0.00  0.00    +0.000 HD
BRANCH  19  21
ATOM     21  C   UNL     1       8.695   9.861  18.463  0.00  0.00    +0.000 C 
ATOM     22  C   UNL     1       9.819  10.602  17.794  0.00  0.00    +0.000 C 
ATOM     23  C   UNL     1       8.599  11.346  18.248  0.00  0.00    +0.000 C 
ENDBRANCH  19  21
ENDBRANCH   1  18
BRANCH   5  24
ATOM     24  O   UNL     1       7.242   5.015  13.974  0.00  0.00    +0.000 OA
BRANCH  24  25
ATOM     25  C   UNL     1       6.322   4.270  13.186  0.00  0.00    +0.000 C 
BRANCH  25  26
ATOM     26  C   UNL     1       7.022   3.377  12.169  0.00  0.00    +0.000 C 
BRANCH  26  27
ATOM     27  C   UNL     1       6.013   2.339  11.683  0.00  0.00    +0.000 C 
BRANCH  27  28
ATOM     28  C   UNL     1       6.653   1.149  10.995  0.00  0.00    +0.000 C 
BRANCH  28  29
ATOM     29  O   UNL     1       6.134  -0.047  11.562  0.00  0.00    +0.000 OA
ATOM     30  H   UNL     1       6.621  -0.794  11.175  0.00  0.00    +0.000 HD
ENDBRANCH  28  29
ENDBRANCH  27  28
ENDBRANCH  26  27
ENDBRANCH  25  26
ENDBRANCH  24  25
ENDBRANCH   5  24
TORSDOF 10
ENDMDL
MODEL 8
REMARK VINA RESULT:      -7.8      1.022      1.306
REMARK  Name = 
REMARK  10 active torsions:
REMARK  status: ('A' for Active; 'I' for Inactive)
REMARK    1  A    between atoms: C_2  and  C_7
REMARK    2  A    between atoms: N_3  and  C_4
REMARK    3  A    between atoms: C_9  and  C_10
REMARK    4  A    between atoms: C_13  and  C_14
REMARK    5  A    between atoms: C_21  and  O_22
REMARK    6  A    between atoms: O_22  and  C_23
REMARK    7  A    between atoms: C_23  and  C_24
REMARK    8  A    between atoms: C_24  and  C_25
REMARK    9  A    between atoms: C_25  and  C_26
REMARK   10  A    between atoms: C_26  and  O_27
REMARK                            x       y       z     vdW  Elec       q    Type
REMARK                         _______ _______ _______ _____ _____    ______ ____
ROOT
ATOM      1  C   UNL     1       6.917   5.257  15.248  0.00  0.00    +0.000 C 
ATOM      2  C   UNL     1       6.549   4.299  16.116  0.00  0.00    +0.000 C 
ATOM      3  C   UNL     1       6.310   4.572  17.565  0.00  0.00    +0.000 C 
ATOM      4  C   UNL     1       6.421   6.059  17.888  0.00  0.00    +0.000 C 
ATOM      5  C   UNL     1       7.453   6.760  17.005  0.00  0.00    +0.000 C 
ATOM      6  O   UNL     1       7.157   6.570  15.611  0.00  0.00    +0.000 OA
ENDROOT
BRANCH   3   7
ATOM      7  C   UNL     1       4.962   4.048  18.032  0.00  0.00    +0.000 A 
ATOM      8  C   UNL     1       4.830   3.447  19.289  0.00  0.00    +0.000 A 
ATOM      9  C   UNL     1       3.586   2.984  19.720  0.00  0.00    +0.000 A 
ATOM     10  C   UNL     1       2.451   3.117  18.907  0.00  0.00    +0.000 A 
ATOM     11  C   UNL     1       2.578   3.729  17.650  0.00  0.00    +0.000 A 
ATOM     12  C   UNL     1       3.823   4.181  17.218  0.00  0.00    +0.000 A 
BRANCH  10  13
ATOM     13  C   UNL     1       1.107   2.613  19.365  0.00  0.00    +0.000 C 
ATOM     14  F   UNL     1       0.254   2.340  18.337  0.00  0.00    +0.000 F 
ATOM     15  F   UNL     1       1.196   1.466  20.089  0.00  0.00    +0.000 F 
ATOM     16  F   UNL     1       0.455   3.509  20.158  0.00  0.00    +0.000 F 
ENDBRANCH  10  13
ENDBRANCH   3   7
BRANCH   1  18
ATOM     17  O   UNL     1       7.913   5.359  13.069  0.00  0.00    +0.000 OA
ATOM     18  C   UNL     1       7.064   4.867  13.801  0.00  0.00    +0.000 C 
ATOM     19  N   UNL     1       6.143   3.918  13.406  0.00  0.00    +0.000 N 
ATOM     20  H   UNL     1       5.508   3.565  14.114  0.00  0.00    +0.000 HD
BRANCH  19  21
ATOM     21  C   UNL     1       6.101   3.396  12.079  0.00  0.00    +0.000 C 
ATOM     22  C   UNL     1       7.073   2.328  11.658  0.00  0.00    +0.000 C 
ATOM     23  C   UNL     1       5.617   2.000  11.798  0.00  0.00    +0.000 C 
ENDBRANCH  19  21
ENDBRANCH   1  18
BRANCH   5  24
ATOM     24  O   UNL     1       7.468   8.178  17.274  0.00  0.00    +0.000 OA
BRANCH  24  25
ATOM     25  C   UNL     1       8.407   8.530  18.283  0.00  0.00    +0.000 C 
BRANCH  25  26
ATOM     26  C   UNL     1       8.704  10.024  18.300  0.00  0.00    +0.000 C 
BRANCH  26  27
ATOM     27  C   UNL     1       9.421  10.346  19.611  0.00  0.00    +0.000 C 
BRANCH  27  28
ATOM     28  C   UNL     1      10.566  11.326  19.449  0.00  0.00    +0.000 C 
BRANCH  28  29
ATOM     29  O   UNL     1      11.196  11.512  20.710  0.00  0.00    +0.000 OA
ATOM     30  H   UNL     1      10.589  12.020  21.273  0.00  0.00    +0.000 HD
ENDBRANCH  28  29
ENDBRANCH  27  28
ENDBRANCH  26  27
ENDBRANCH  25  26
ENDBRANCH  24  25
ENDBRANCH   5  24
TORSDOF 10
ENDMDL
MODEL 9
REMARK VINA RESULT:      -7.8      1.225      1.616
REMARK  Name = 
REMARK  10 active torsions:
REMARK  status: ('A' for Active; 'I' for Inactive)
REMARK    1  A    between atoms: C_2  and  C_7
REMARK    2  A    between atoms: N_3  and  C_4
REMARK    3  A    between atoms: C_9  and  C_10
REMARK    4  A    between atoms: C_13  and  C_14
REMARK    5  A    between atoms: C_21  and  O_22
REMARK    6  A    between atoms: O_22  and  C_23
REMARK    7  A    between atoms: C_23  and  C_24
REMARK    8  A    between atoms: C_24  and  C_25
REMARK    9  A    between atoms: C_25  and  C_26
REMARK   10  A    between atoms: C_26  and  O_27
REMARK                            x       y       z     vdW  Elec       q    Type
REMARK                         _______ _______ _______ _____ _____    ______ ____
ROOT
ATOM      1  C   UNL     1       6.893   5.391  15.604  0.00  0.00    +0.000 C 
ATOM      2  C   UNL     1       6.505   4.417  16.444  0.00  0.00    +0.000 C 
ATOM      3  C   UNL     1       6.214   4.664  17.888  0.00  0.00    +0.000 C 
ATOM      4  C   UNL     1       6.297   6.147  18.238  0.00  0.00    +0.000 C 
ATOM      5  C   UNL     1       7.353   6.872  17.402  0.00  0.00    +0.000 C 
ATOM      6  O   UNL     1       7.107   6.701  15.996  0.00  0.00    +0.000 OA
ENDROOT
BRANCH   3   7
ATOM      7  C   UNL     1       4.856   4.120  18.299  0.00  0.00    +0.000 A 
ATOM      8  C   UNL     1       3.782   4.139  17.402  0.00  0.00    +0.000 A 
ATOM      9  C   UNL     1       2.542   3.620  17.779  0.00  0.00    +0.000 A 
ATOM     10  C   UNL     1       2.353   3.070  19.054  0.00  0.00    +0.000 A 
ATOM     11  C   UNL     1       3.431   3.040  19.952  0.00  0.00    +0.000 A 
ATOM     12  C   UNL     1       4.665   3.566  19.578  0.00  0.00    +0.000 A 
BRANCH  10  13
ATOM     13  C   UNL     1       1.014   2.516  19.469  0.00  0.00    +0.000 C 
ATOM     14  F   UNL     1       0.141   3.473  19.892  0.00  0.00    +0.000 F 
ATOM     15  F   UNL     1       0.384   1.857  18.460  0.00  0.00    +0.000 F 
ATOM     16  F   UNL     1       1.113   1.625  20.495  0.00  0.00    +0.000 F 
ENDBRANCH  10  13
ENDBRANCH   3   7
BRANCH   1  18
ATOM     17  O   UNL     1       8.018   5.471  13.488  0.00  0.00    +0.000 OA
ATOM     18  C   UNL     1       7.094   5.026  14.158  0.00  0.00    +0.000 C 
ATOM     19  N   UNL     1       6.130   4.159  13.685  0.00  0.00    +0.000 N 
ATOM     20  H   UNL     1       5.431   3.838  14.347  0.00  0.00    +0.000 HD
BRANCH  19  21
ATOM     21  C   UNL     1       6.127   3.673  12.345  0.00  0.00    +0.000 C 
ATOM     22  C   UNL     1       5.860   2.218  12.070  0.00  0.00    +0.000 C 
ATOM     23  C   UNL     1       4.853   3.252  11.664  0.00  0.00    +0.000 C 
ENDBRANCH  19  21
ENDBRANCH   1  18
BRANCH   5  24
ATOM     24  O   UNL     1       7.344   8.285  17.694  0.00  0.00    +0.000 OA
BRANCH  24  25
ATOM     25  C   UNL     1       8.649   8.850  17.690  0.00  0.00    +0.000 C 
BRANCH  25  26
ATOM     26  C   UNL     1       8.872   9.799  18.861  0.00  0.00    +0.000 C 
BRANCH  26  27
ATOM     27  C   UNL     1       9.241  11.168  18.293  0.00  0.00    +0.000 C 
BRANCH  27  28
ATOM     28  C   UNL     1      10.685  11.557  18.539  0.00  0.00    +0.000 C 
BRANCH  28  29
ATOM     29  O   UNL     1      11.375  11.582  17.295  0.00  0.00    +0.000 OA
ATOM     30  H   UNL     1      10.767  11.934  16.625  0.00  0.00    +0.000 HD
ENDBRANCH  28  29
ENDBRANCH  27  28
ENDBRANCH  26  27
ENDBRANCH  25  26
ENDBRANCH  24  25
ENDBRANCH   5  24
TORSDOF 10
ENDMDL
