MODEL 1
REMARK VINA RESULT:      -6.4      0.000      0.000
REMARK  Name = 
REMARK  9 active torsions:
REMARK  status: ('A' for Active; 'I' for Inactive)
REMARK    1  A    between atoms: C_1  and  C_2
REMARK    2  A    between atoms: C_8  and  O_9
REMARK    3  A    between atoms: C_10  and  O_11
REMARK    4  A    between atoms: O_11  and  C_12
REMARK    5  A    between atoms: C_12  and  C_13
REMARK    6  A    between atoms: C_12  and  C_14
REMARK    7  A    between atoms: C_17  and  N_18
REMARK    8  A    between atoms: N_18  and  C_19
REMARK    9  A    between atoms: N_18  and  C_20
REMARK                            x       y       z     vdW  Elec       q    Type
REMARK                         _______ _______ _______ _____ _____    ______ ____
ROOT
ATOM      1  C   UNL     1       0.756   7.221  21.028  0.00  0.00    +0.000 C 
ATOM      2  C   UNL     1       1.796   6.688  20.092  0.00  0.00    +0.000 A 
ATOM      3  C   UNL     1       2.334   7.535  19.144  0.00  0.00    +0.000 A 
ATOM      4  N   UNL     1       3.216   7.167  18.207  0.00  0.00    +0.000 NA
ATOM      5  C   UNL     1       3.603   5.891  18.224  0.00  0.00    +0.000 A 
ATOM      6  N   UNL     1       4.440   5.449  17.225  0.00  0.00    +0.000 N 
ATOM      7  C   UNL     1       5.027   6.410  16.300  0.00  0.00    +0.000 C 
ATOM      8  C   UNL     1       5.938   5.500  15.468  0.00  0.00    +0.000 C 
ATOM      9  C   UNL     1       6.560   4.587  16.539  0.00  0.00    +0.000 C 
ATOM     10  C   UNL     1       5.401   4.397  17.553  0.00  0.00    +0.000 C 
ATOM     11  N   UNL     1       3.154   4.996  19.120  0.00  0.00    +0.000 NA
ATOM     12  C   UNL     1       2.240   5.370  20.043  0.00  0.00    +0.000 A 
ENDROOT
BRANCH  12  13
ATOM     13  N   UNL     1       1.647   4.371  20.835  0.00  0.00    +0.000 N 
ATOM     14  C   UNL     1       0.729   3.485  20.111  0.00  0.00    +0.000 C 
ATOM     15  C   UNL     1       2.510   3.657  21.774  0.00  0.00    +0.000 C 
ENDBRANCH  12  13
BRANCH   8  16
ATOM     16  O   UNL     1       5.149   4.721  14.554  0.00  0.00    +0.000 OA
ATOM     17  H   UNL     1       4.558   4.175  15.112  0.00  0.00    +0.000 HD
ENDBRANCH   8  16
BRANCH   9  18
ATOM     18  O   UNL     1       7.701   5.259  17.095  0.00  0.00    +0.000 OA
BRANCH  18  19
ATOM     19  C   UNL     1       7.468   6.025  18.282  0.00  0.00    +0.000 C 
ATOM     20  C   UNL     1       8.197   5.459  19.497  0.00  0.00    +0.000 C 
ATOM     21  C   UNL     1       7.953   7.443  17.993  0.00  0.00    +0.000 C 
ENDBRANCH  18  19
ENDBRANCH   9  18
TORSDOF 4
ENDMDL
MODEL 2
REMARK VINA RESULT:      -6.3      2.042      3.849
REMARK  Name = 
REMARK  9 active torsions:
REMARK  status: ('A' for Active; 'I' for Inactive)
REMARK    1  A    between atoms: C_1  and  C_2
REMARK    2  A    between atoms: C_8  and  O_9
REMARK    3  A    between atoms: C_10  and  O_11
REMARK    4  A    between atoms: O_11  and  C_12
REMARK    5  A    between atoms: C_12  and  C_13
REMARK    6  A    between atoms: C_12  and  C_14
REMARK    7  A    between atoms: C_17  and  N_18
REMARK    8  A    between atoms: N_18  and  C_19
REMARK    9  A    between atoms: N_18  and  C_20
REMARK                            x       y       z     vdW  Elec       q    Type
REMARK                         _______ _______ _______ _____ _____    ______ ____
ROOT
ATOM      1  C   UNL     1       2.615   2.307  21.451  0.00  0.00    +0.000 C 
ATOM      2  C   UNL     1       3.315   2.879  20.258  0.00  0.00    +0.000 A 
ATOM      3  C   UNL     1       4.688   2.760  20.173  0.00  0.00    +0.000 A 
ATOM      4  N   UNL     1       5.439   3.286  19.198  0.00  0.00    +0.000 NA
ATOM      5  C   UNL     1       4.790   3.950  18.241  0.00  0.00    +0.000 A 
ATOM      6  N   UNL     1       5.530   4.582  17.268  0.00  0.00    +0.000 N 
ATOM      7  C   UNL     1       6.969   4.356  17.196  0.00  0.00    +0.000 C 
ATOM      8  C   UNL     1       7.329   5.151  15.936  0.00  0.00    +0.000 C 
ATOM      9  C   UNL     1       6.180   4.791  14.978  0.00  0.00    +0.000 C 
ATOM     10  C   UNL     1       4.957   4.678  15.926  0.00  0.00    +0.000 C 
ATOM     11  N   UNL     1       3.455   4.100  18.224  0.00  0.00    +0.000 NA
ATOM     12  C   UNL     1       2.709   3.592  19.229  0.00  0.00    +0.000 A 
ENDROOT
BRANCH  12  13
ATOM     13  N   UNL     1       1.345   3.933  19.283  0.00  0.00    +0.000 N 
ATOM     14  C   UNL     1       0.430   2.833  18.960  0.00  0.00    +0.000 C 
ATOM     15  C   UNL     1       0.897   4.736  20.420  0.00  0.00    +0.000 C 
ENDBRANCH  12  13
BRANCH   8  16
ATOM     16  O   UNL     1       7.310   6.559  16.222  0.00  0.00    +0.000 OA
ATOM     17  H   UNL     1       7.561   7.004  15.387  0.00  0.00    +0.000 HD
ENDBRANCH   8  16
BRANCH   9  18
ATOM     18  O   UNL     1       6.511   3.557  14.323  0.00  0.00    +0.000 OA
BRANCH  18  19
ATOM     19  C   UNL     1       6.492   3.576  12.891  0.00  0.00    +0.000 C 
ATOM     20  C   UNL     1       5.077   3.523  12.323  0.00  0.00    +0.000 C 
ATOM     21  C   UNL     1       7.183   4.866  12.459  0.00  0.00    +0.000 C 
ENDBRANCH  18  19
ENDBRANCH   9  18
TORSDOF 4
ENDMDL
MODEL 3
REMARK VINA RESULT:      -6.3      2.999      6.719
REMARK  Name = 
REMARK  9 active torsions:
REMARK  status: ('A' for Active; 'I' for Inactive)
REMARK    1  A    between atoms: C_1  and  C_2
REMARK    2  A    between atoms: C_8  and  O_9
REMARK    3  A    between atoms: C_10  and  O_11
REMARK    4  A    between atoms: O_11  and  C_12
REMARK    5  A    between atoms: C_12  and  C_13
REMARK    6  A    between atoms: C_12  and  C_14
REMARK    7  A    between atoms: C_17  and  N_18
REMARK    8  A    between atoms: N_18  and  C_19
REMARK    9  A    between atoms: N_18  and  C_20
REMARK                            x       y       z     vdW  Elec       q    Type
REMARK                         _______ _______ _______ _____ _____    ______ ____
ROOT
ATOM      1  C   UNL     1       8.042   5.392  12.564  0.00  0.00    +0.000 C 
ATOM      2  C   UNL     1       7.178   4.957  13.706  0.00  0.00    +0.000 A 
ATOM      3  C   UNL     1       7.515   5.355  14.984  0.00  0.00    +0.000 A 
ATOM      4  N   UNL     1       6.870   4.979  16.095  0.00  0.00    +0.000 NA
ATOM      5  C   UNL     1       5.816   4.179  15.928  0.00  0.00    +0.000 A 
ATOM      6  N   UNL     1       5.178   3.697  17.047  0.00  0.00    +0.000 N 
ATOM      7  C   UNL     1       5.540   4.214  18.361  0.00  0.00    +0.000 C 
ATOM      8  C   UNL     1       4.524   3.489  19.253  0.00  0.00    +0.000 C 
ATOM      9  C   UNL     1       3.230   3.588  18.426  0.00  0.00    +0.000 C 
ATOM     10  C   UNL     1       3.737   3.462  16.965  0.00  0.00    +0.000 C 
ATOM     11  N   UNL     1       5.396   3.756  14.723  0.00  0.00    +0.000 NA
ATOM     12  C   UNL     1       6.073   4.116  13.611  0.00  0.00    +0.000 A 
ENDROOT
BRANCH  12  13
ATOM     13  N   UNL     1       5.728   3.502  12.393  0.00  0.00    +0.000 N 
ATOM     14  C   UNL     1       6.491   2.288  12.087  0.00  0.00    +0.000 C 
ATOM     15  C   UNL     1       4.304   3.377  12.083  0.00  0.00    +0.000 C 
ENDBRANCH  12  13
BRANCH   8  16
ATOM     16  O   UNL     1       4.905   2.113  19.410  0.00  0.00    +0.000 OA
ATOM     17  H   UNL     1       4.871   1.936  20.373  0.00  0.00    +0.000 HD
ENDBRANCH   8  16
BRANCH   9  18
ATOM     18  O   UNL     1       2.611   4.852  18.710  0.00  0.00    +0.000 OA
BRANCH  18  19
ATOM     19  C   UNL     1       2.253   5.089  20.076  0.00  0.00    +0.000 C 
ATOM     20  C   UNL     1       1.886   6.546  20.341  0.00  0.00    +0.000 C 
ATOM     21  C   UNL     1       1.061   4.185  20.381  0.00  0.00    +0.000 C 
ENDBRANCH  18  19
ENDBRANCH   9  18
TORSDOF 4
ENDMDL
MODEL 4
REMARK VINA RESULT:      -6.2      2.107      2.414
REMARK  Name = 
REMARK  9 active torsions:
REMARK  status: ('A' for Active; 'I' for Inactive)
REMARK    1  A    between atoms: C_1  and  C_2
REMARK    2  A    between atoms: C_8  and  O_9
REMARK    3  A    between atoms: C_10  and  O_11
REMARK    4  A    between atoms: O_11  and  C_12
REMARK    5  A    between atoms: C_12  and  C_13
REMARK    6  A    between atoms: C_12  and  C_14
REMARK    7  A    between atoms: C_17  and  N_18
REMARK    8  A    between atoms: N_18  and  C_19
REMARK    9  A    between atoms: N_18  and  C_20
REMARK                            x       y       z     vdW  Elec       q    Type
REMARK                         _______ _______ _______ _____ _____    ______ ____
ROOT
ATOM      1  C   UNL     1       0.642   3.560  19.865  0.00  0.00    +0.000 C 
ATOM      2  C   UNL     1       1.890   3.710  19.054  0.00  0.00    +0.000 A 
ATOM      3  C   UNL     1       1.823   4.377  17.847  0.00  0.00    +0.000 A 
ATOM      4  N   UNL     1       2.847   4.518  16.997  0.00  0.00    +0.000 NA
ATOM      5  C   UNL     1       4.011   3.987  17.375  0.00  0.00    +0.000 A 
ATOM      6  N   UNL     1       5.066   4.032  16.493  0.00  0.00    +0.000 N 
ATOM      7  C   UNL     1       4.948   4.813  15.267  0.00  0.00    +0.000 C 
ATOM      8  C   UNL     1       6.357   4.658  14.682  0.00  0.00    +0.000 C 
ATOM      9  C   UNL     1       7.250   4.817  15.926  0.00  0.00    +0.000 C 
ATOM     10  C   UNL     1       6.415   4.141  17.045  0.00  0.00    +0.000 C 
ATOM     11  N   UNL     1       4.181   3.339  18.539  0.00  0.00    +0.000 NA
ATOM     12  C   UNL     1       3.134   3.175  19.377  0.00  0.00    +0.000 A 
ENDROOT
BRANCH  12  13
ATOM     13  N   UNL     1       3.297   2.329  20.489  0.00  0.00    +0.000 N 
ATOM     14  C   UNL     1       4.663   1.830  20.677  0.00  0.00    +0.000 C 
ATOM     15  C   UNL     1       2.655   2.731  21.739  0.00  0.00    +0.000 C 
ENDBRANCH  12  13
BRANCH   8  16
ATOM     16  O   UNL     1       6.515   3.342  14.127  0.00  0.00    +0.000 OA
ATOM     17  H   UNL     1       6.317   3.431  13.173  0.00  0.00    +0.000 HD
ENDBRANCH   8  16
BRANCH   9  18
ATOM     18  O   UNL     1       7.470   6.219  16.144  0.00  0.00    +0.000 OA
BRANCH  18  19
ATOM     19  C   UNL     1       7.059   6.734  17.415  0.00  0.00    +0.000 C 
ATOM     20  C   UNL     1       8.092   7.675  18.028  0.00  0.00    +0.000 C 
ATOM     21  C   UNL     1       5.745   7.476  17.185  0.00  0.00    +0.000 C 
ENDBRANCH  18  19
ENDBRANCH   9  18
TORSDOF 4
ENDMDL
MODEL 5
REMARK VINA RESULT:      -6.1      2.319      3.363
REMARK  Name = 
REMARK  9 active torsions:
REMARK  status: ('A' for Active; 'I' for Inactive)
REMARK    1  A    between atoms: C_1  and  C_2
REMARK    2  A    between atoms: C_8  and  O_9
REMARK    3  A    between atoms: C_10  and  O_11
REMARK    4  A    between atoms: O_11  and  C_12
REMARK    5  A    between atoms: C_12  and  C_13
REMARK    6  A    between atoms: C_12  and  C_14
REMARK    7  A    between atoms: C_17  and  N_18
REMARK    8  A    between atoms: N_18  and  C_19
REMARK    9  A    between atoms: N_18  and  C_20
REMARK                            x       y       z     vdW  Elec       q    Type
REMARK                         _______ _______ _______ _____ _____    ______ ____
ROOT
ATOM      1  C   UNL     1       0.303  11.218  19.182  0.00  0.00    +0.000 C 
ATOM      2  C   UNL     1       1.081   9.941  19.122  0.00  0.00    +0.000 A 
ATOM      3  C   UNL     1       1.694   9.591  17.936  0.00  0.00    +0.000 A 
ATOM      4  N   UNL     1       2.359   8.448  17.731  0.00  0.00    +0.000 NA
ATOM      5  C   UNL     1       2.439   7.612  18.767  0.00  0.00    +0.000 A 
ATOM      6  N   UNL     1       3.035   6.388  18.574  0.00  0.00    +0.000 N 
ATOM      7  C   UNL     1       3.724   6.111  17.320  0.00  0.00    +0.000 C 
ATOM      8  C   UNL     1       4.302   4.719  17.601  0.00  0.00    +0.000 C 
ATOM      9  C   UNL     1       4.809   4.858  19.048  0.00  0.00    +0.000 C 
ATOM     10  C   UNL     1       3.756   5.793  19.699  0.00  0.00    +0.000 C 
ATOM     11  N   UNL     1       1.895   7.874  19.968  0.00  0.00    +0.000 NA
ATOM     12  C   UNL     1       1.199   9.017  20.156  0.00  0.00    +0.000 A 
ENDROOT
BRANCH  12  13
ATOM     13  N   UNL     1       0.481   9.169  21.356  0.00  0.00    +0.000 N 
ATOM     14  C   UNL     1      -0.662   8.263  21.499  0.00  0.00    +0.000 C 
ATOM     15  C   UNL     1       1.254   9.316  22.588  0.00  0.00    +0.000 C 
ENDBRANCH  12  13
BRANCH   8  16
ATOM     16  O   UNL     1       3.259   3.733  17.537  0.00  0.00    +0.000 OA
ATOM     17  H   UNL     1       3.521   3.115  16.825  0.00  0.00    +0.000 HD
ENDBRANCH   8  16
BRANCH   9  18
ATOM     18  O   UNL     1       6.128   5.423  19.009  0.00  0.00    +0.000 OA
BRANCH  18  19
ATOM     19  C   UNL     1       6.729   5.541  17.714  0.00  0.00    +0.000 C 
ATOM     20  C   UNL     1       7.350   6.915  17.479  0.00  0.00    +0.000 C 
ATOM     21  C   UNL     1       7.801   4.459  17.625  0.00  0.00    +0.000 C 
ENDBRANCH  18  19
ENDBRANCH   9  18
TORSDOF 4
ENDMDL
MODEL 6
REMARK VINA RESULT:      -5.9      1.642      1.837
REMARK  Name = 
REMARK  9 active torsions:
REMARK  status: ('A' for Active; 'I' for Inactive)
REMARK    1  A    between atoms: C_1  and  C_2
REMARK    2  A    between atoms: C_8  and  O_9
REMARK    3  A    between atoms: C_10  and  O_11
REMARK    4  A    between atoms: O_11  and  C_12
REMARK    5  A    between atoms: C_12  and  C_13
REMARK    6  A    between atoms: C_12  and  C_14
REMARK    7  A    between atoms: C_17  and  N_18
REMARK    8  A    between atoms: N_18  and  C_19
REMARK    9  A    between atoms: N_18  and  C_20
REMARK                            x       y       z     vdW  Elec       q    Type
REMARK                         _______ _______ _______ _____ _____    ______ ____
ROOT
ATOM      1  C   UNL     1       0.856   4.361  20.431  0.00  0.00    +0.000 C 
ATOM      2  C   UNL     1       2.073   4.384  19.560  0.00  0.00    +0.000 A 
ATOM      3  C   UNL     1       2.025   5.079  18.368  0.00  0.00    +0.000 A 
ATOM      4  N   UNL     1       3.015   5.120  17.470  0.00  0.00    +0.000 NA
ATOM      5  C   UNL     1       4.127   4.452  17.779  0.00  0.00    +0.000 A 
ATOM      6  N   UNL     1       5.136   4.395  16.846  0.00  0.00    +0.000 N 
ATOM      7  C   UNL     1       5.050   5.209  15.640  0.00  0.00    +0.000 C 
ATOM      8  C   UNL     1       6.401   4.907  14.982  0.00  0.00    +0.000 C 
ATOM      9  C   UNL     1       7.366   4.938  16.181  0.00  0.00    +0.000 C 
ATOM     10  C   UNL     1       6.515   4.339  17.331  0.00  0.00    +0.000 C 
ATOM     11  N   UNL     1       4.279   3.766  18.925  0.00  0.00    +0.000 NA
ATOM     12  C   UNL     1       3.261   3.704  19.811  0.00  0.00    +0.000 A 
ENDROOT
BRANCH  12  13
ATOM     13  N   UNL     1       3.380   2.822  20.901  0.00  0.00    +0.000 N 
ATOM     14  C   UNL     1       2.105   2.293  21.396  0.00  0.00    +0.000 C 
ATOM     15  C   UNL     1       4.434   1.812  20.836  0.00  0.00    +0.000 C 
ENDBRANCH  12  13
BRANCH   8  16
ATOM     16  O   UNL     1       6.380   3.593  14.401  0.00  0.00    +0.000 OA
ATOM     17  H   UNL     1       7.031   3.068  14.908  0.00  0.00    +0.000 HD
ENDBRANCH   8  16
BRANCH   9  18
ATOM     18  O   UNL     1       7.756   6.301  16.408  0.00  0.00    +0.000 OA
BRANCH  18  19
ATOM     19  C   UNL     1       7.361   6.872  17.661  0.00  0.00    +0.000 C 
ATOM     20  C   UNL     1       8.063   6.222  18.849  0.00  0.00    +0.000 C 
ATOM     21  C   UNL     1       7.706   8.357  17.596  0.00  0.00    +0.000 C 
ENDBRANCH  18  19
ENDBRANCH   9  18
TORSDOF 4
ENDMDL
MODEL 7
REMARK VINA RESULT:      -5.9      3.068      5.568
REMARK  Name = 
REMARK  9 active torsions:
REMARK  status: ('A' for Active; 'I' for Inactive)
REMARK    1  A    between atoms: C_1  and  C_2
REMARK    2  A    between atoms: C_8  and  O_9
REMARK    3  A    between atoms: C_10  and  O_11
REMARK    4  A    between atoms: O_11  and  C_12
REMARK    5  A    between atoms: C_12  and  C_13
REMARK    6  A    between atoms: C_12  and  C_14
REMARK    7  A    between atoms: C_17  and  N_18
REMARK    8  A    between atoms: N_18  and  C_19
REMARK    9  A    between atoms: N_18  and  C_20
REMARK                            x       y       z     vdW  Elec       q    Type
REMARK                         _______ _______ _______ _____ _____    ______ ____
ROOT
ATOM      1  C   UNL     1      -0.525  10.972  22.210  0.00  0.00    +0.000 C 
ATOM      2  C   UNL     1       0.220   9.955  21.403  0.00  0.00    +0.000 A 
ATOM      3  C   UNL     1       0.647   8.797  22.021  0.00  0.00    +0.000 A 
ATOM      4  N   UNL     1       1.380   7.845  21.432  0.00  0.00    +0.000 NA
ATOM      5  C   UNL     1       1.688   8.040  20.150  0.00  0.00    +0.000 A 
ATOM      6  N   UNL     1       2.514   7.131  19.531  0.00  0.00    +0.000 N 
ATOM      7  C   UNL     1       2.870   5.896  20.219  0.00  0.00    +0.000 C 
ATOM      8  C   UNL     1       3.682   5.177  19.134  0.00  0.00    +0.000 C 
ATOM      9  C   UNL     1       2.853   5.449  17.867  0.00  0.00    +0.000 C 
ATOM     10  C   UNL     1       2.313   6.884  18.103  0.00  0.00    +0.000 C 
ATOM     11  N   UNL     1       1.300   9.123  19.455  0.00  0.00    +0.000 NA
ATOM     12  C   UNL     1       0.587  10.094  20.068  0.00  0.00    +0.000 A 
ENDROOT
BRANCH  12  13
ATOM     13  N   UNL     1       0.365  11.297  19.372  0.00  0.00    +0.000 N 
ATOM     14  C   UNL     1       1.586  12.020  19.005  0.00  0.00    +0.000 C 
ATOM     15  C   UNL     1      -0.635  11.281  18.305  0.00  0.00    +0.000 C 
ENDBRANCH  12  13
BRANCH   8  16
ATOM     16  O   UNL     1       4.980   5.781  19.014  0.00  0.00    +0.000 OA
ATOM     17  H   UNL     1       4.914   6.404  18.262  0.00  0.00    +0.000 HD
ENDBRANCH   8  16
BRANCH   9  18
ATOM     18  O   UNL     1       1.820   4.456  17.784  0.00  0.00    +0.000 OA
BRANCH  18  19
ATOM     19  C   UNL     1       2.039   3.251  18.526  0.00  0.00    +0.000 C 
ATOM     20  C   UNL     1       0.791   2.784  19.268  0.00  0.00    +0.000 C 
ATOM     21  C   UNL     1       2.480   2.189  17.522  0.00  0.00    +0.000 C 
ENDBRANCH  18  19
ENDBRANCH   9  18
TORSDOF 4
ENDMDL
MODEL 8
REMARK VINA RESULT:      -5.8      2.238      2.604
REMARK  Name = 
REMARK  9 active torsions:
REMARK  status: ('A' for Active; 'I' for Inactive)
REMARK    1  A    between atoms: C_1  and  C_2
REMARK    2  A    between atoms: C_8  and  O_9
REMARK    3  A    between atoms: C_10  and  O_11
REMARK    4  A    between atoms: O_11  and  C_12
REMARK    5  A    between atoms: C_12  and  C_13
REMARK    6  A    between atoms: C_12  and  C_14
REMARK    7  A    between atoms: C_17  and  N_18
REMARK    8  A    between atoms: N_18  and  C_19
REMARK    9  A    between atoms: N_18  and  C_20
REMARK                            x       y       z     vdW  Elec       q    Type
REMARK                         _______ _______ _______ _____ _____    ______ ____
ROOT
ATOM      1  C   UNL     1       0.439   2.874  19.414  0.00  0.00    +0.000 C 
ATOM      2  C   UNL     1       1.738   3.335  18.831  0.00  0.00    +0.000 A 
ATOM      3  C   UNL     1       1.727   3.990  17.616  0.00  0.00    +0.000 A 
ATOM      4  N   UNL     1       2.820   4.390  16.956  0.00  0.00    +0.000 NA
ATOM      5  C   UNL     1       3.992   4.146  17.544  0.00  0.00    +0.000 A 
ATOM      6  N   UNL     1       5.144   4.459  16.860  0.00  0.00    +0.000 N 
ATOM      7  C   UNL     1       5.060   5.213  15.615  0.00  0.00    +0.000 C 
ATOM      8  C   UNL     1       6.545   5.413  15.290  0.00  0.00    +0.000 C 
ATOM      9  C   UNL     1       7.141   5.757  16.667  0.00  0.00    +0.000 C 
ATOM     10  C   UNL     1       6.309   4.879  17.638  0.00  0.00    +0.000 C 
ATOM     11  N   UNL     1       4.105   3.535  18.736  0.00  0.00    +0.000 NA
ATOM     12  C   UNL     1       2.997   3.108  19.380  0.00  0.00    +0.000 A 
ENDROOT
BRANCH  12  13
ATOM     13  N   UNL     1       3.160   2.304  20.523  0.00  0.00    +0.000 N 
ATOM     14  C   UNL     1       4.522   1.799  20.722  0.00  0.00    +0.000 C 
ATOM     15  C   UNL     1       2.531   2.760  21.761  0.00  0.00    +0.000 C 
ENDBRANCH  12  13
BRANCH   8  16
ATOM     16  O   UNL     1       7.109   4.184  14.803  0.00  0.00    +0.000 OA
ATOM     17  H   UNL     1       6.517   3.889  14.081  0.00  0.00    +0.000 HD
ENDBRANCH   8  16
BRANCH   9  18
ATOM     18  O   UNL     1       6.977   7.166  16.887  0.00  0.00    +0.000 OA
BRANCH  18  19
ATOM     19  C   UNL     1       8.069   7.839  17.522  0.00  0.00    +0.000 C 
ATOM     20  C   UNL     1       7.792   9.323  17.749  0.00  0.00    +0.000 C 
ATOM     21  C   UNL     1       8.301   7.139  18.858  0.00  0.00    +0.000 C 
ENDBRANCH  18  19
ENDBRANCH   9  18
TORSDOF 4
ENDMDL
MODEL 9
REMARK VINA RESULT:      -5.8      3.262      6.830
REMARK  Name = 
REMARK  9 active torsions:
REMARK  status: ('A' for Active; 'I' for Inactive)
REMARK    1  A    between atoms: C_1  and  C_2
REMARK    2  A    between atoms: C_8  and  O_9
REMARK    3  A    between atoms: C_10  and  O_11
REMARK    4  A    between atoms: O_11  and  C_12
REMARK    5  A    between atoms: C_12  and  C_13
REMARK    6  A    between atoms: C_12  and  C_14
REMARK    7  A    between atoms: C_17  and  N_18
REMARK    8  A    between atoms: N_18  and  C_19
REMARK    9  A    between atoms: N_18  and  C_20
REMARK                            x       y       z     vdW  Elec       q    Type
REMARK                         _______ _______ _______ _____ _____    ______ ____
ROOT
ATOM      1  C   UNL     1       7.555   4.200  10.996  0.00  0.00    +0.000 C 
ATOM      2  C   UNL     1       7.003   4.332  12.381  0.00  0.00    +0.000 A 
ATOM      3  C   UNL     1       7.701   5.082  13.307  0.00  0.00    +0.000 A 
ATOM      4  N   UNL     1       7.354   5.222  14.591  0.00  0.00    +0.000 NA
ATOM      5  C   UNL     1       6.239   4.601  14.977  0.00  0.00    +0.000 A 
ATOM      6  N   UNL     1       5.894   4.644  16.308  0.00  0.00    +0.000 N 
ATOM      7  C   UNL     1       6.634   5.511  17.216  0.00  0.00    +0.000 C 
ATOM      8  C   UNL     1       5.847   5.316  18.518  0.00  0.00    +0.000 C 
ATOM      9  C   UNL     1       4.388   5.340  18.028  0.00  0.00    +0.000 C 
ATOM     10  C   UNL     1       4.471   4.639  16.647  0.00  0.00    +0.000 C 
ATOM     11  N   UNL     1       5.479   3.867  14.146  0.00  0.00    +0.000 NA
ATOM     12  C   UNL     1       5.855   3.707  12.858  0.00  0.00    +0.000 A 
ENDROOT
BRANCH  12  13
ATOM     13  N   UNL     1       5.149   2.779  12.069  0.00  0.00    +0.000 N 
ATOM     14  C   UNL     1       4.162   3.378  11.165  0.00  0.00    +0.000 C 
ATOM     15  C   UNL     1       5.918   1.703  11.448  0.00  0.00    +0.000 C 
ENDBRANCH  12  13
BRANCH   8  16
ATOM     16  O   UNL     1       6.155   4.034  19.088  0.00  0.00    +0.000 OA
ATOM     17  H   UNL     1       7.020   4.142  19.533  0.00  0.00    +0.000 HD
ENDBRANCH   8  16
BRANCH   9  18
ATOM     18  O   UNL     1       3.963   6.709  17.950  0.00  0.00    +0.000 OA
BRANCH  18  19
ATOM     19  C   UNL     1       2.600   6.970  18.301  0.00  0.00    +0.000 C 
ATOM     20  C   UNL     1       2.298   6.648  19.761  0.00  0.00    +0.000 C 
ATOM     21  C   UNL     1       2.350   8.451  18.028  0.00  0.00    +0.000 C 
ENDBRANCH  18  19
ENDBRANCH   9  18
TORSDOF 4
ENDMDL
