MODEL 1
REMARK VINA RESULT:      -8.4      0.000      0.000
REMARK  Name = 
REMARK  8 active torsions:
REMARK  status: ('A' for Active; 'I' for Inactive)
REMARK    1  A    between atoms: C_1  and  O_2
REMARK    2  A    between atoms: O_2  and  C_3
REMARK    3  A    between atoms: C_6  and  C_7
REMARK    4  A    between atoms: C_15  and  N_16
REMARK    5  A    between atoms: N_19  and  N_20
REMARK    6  A    between atoms: C_21  and  C_23
REMARK    7  A    between atoms: C_25  and  N_26
REMARK    8  A    between atoms: C_28  and  N_29
REMARK                            x       y       z     vdW  Elec       q    Type
REMARK                         _______ _______ _______ _____ _____    ______ ____
ROOT
ATOM      1  C   UNL     1       8.233  14.858  22.489  0.00  0.00    +0.000 A 
ATOM      2  N   UNL     1       7.879  15.916  21.655  0.00  0.00    +0.000 N 
ATOM      3  N   UNL     1       8.274  15.762  20.371  0.00  0.00    +0.000 NA
ATOM      4  C   UNL     1       8.640  14.493  20.371  0.00  0.00    +0.000 A 
ATOM      5  C   UNL     1       8.481  13.837  21.596  0.00  0.00    +0.000 A 
ATOM      6  C   UNL     1       8.869  12.436  21.441  0.00  0.00    +0.000 C 
ATOM      7  O   UNL     1       9.006  11.622  22.330  0.00  0.00    +0.000 OA
ATOM      8  C   UNL     1       9.225  12.306  19.951  0.00  0.00    +0.000 A 
ATOM      9  C   UNL     1       9.662  11.252  19.150  0.00  0.00    +0.000 A 
ATOM     10  C   UNL     1      10.311  11.599  17.942  0.00  0.00    +0.000 A 
ATOM     11  C   UNL     1      10.429  12.933  17.503  0.00  0.00    +0.000 A 
ATOM     12  C   UNL     1       9.842  13.962  18.226  0.00  0.00    +0.000 A 
ATOM     13  C   UNL     1       9.228  13.620  19.413  0.00  0.00    +0.000 A 
ATOM     14  H   UNL     1       7.492  16.810  21.934  0.00  0.00    +0.000 HD
ENDROOT
BRANCH   1  18
ATOM     15  C   UNL     1       8.520  15.360  26.737  0.00  0.00    +0.000 A 
ATOM     16  C   UNL     1       8.773  16.444  25.891  0.00  0.00    +0.000 A 
ATOM     17  C   UNL     1       8.697  16.305  24.494  0.00  0.00    +0.000 A 
ATOM     18  C   UNL     1       8.396  15.067  23.927  0.00  0.00    +0.000 A 
ATOM     19  C   UNL     1       8.177  13.976  24.795  0.00  0.00    +0.000 A 
ATOM     20  C   UNL     1       8.237  14.115  26.183  0.00  0.00    +0.000 A 
BRANCH  15  22
ATOM     21  C   UNL     1       7.760  16.662  28.558  0.00  0.00    +0.000 C 
ATOM     22  O   UNL     1       8.598  15.614  28.079  0.00  0.00    +0.000 OA
ENDBRANCH  15  22
ENDBRANCH   1  18
BRANCH   9  23
ATOM     23  N   UNL     1       9.474   9.865  19.360  0.00  0.00    +0.000 N 
ATOM     24  C   UNL     1       8.623   9.059  18.637  0.00  0.00    +0.000 C 
ATOM     25  O   UNL     1       7.883   9.428  17.728  0.00  0.00    +0.000 OA
ATOM     26  N   UNL     1       8.684   7.726  19.036  0.00  0.00    +0.000 N 
ATOM     27  H   UNL     1      10.235   9.369  19.803  0.00  0.00    +0.000 HD
ATOM     28  H   UNL     1       9.547   7.318  19.381  0.00  0.00    +0.000 HD
BRANCH  26  29
ATOM     29  N   UNL     1       7.859   6.831  18.332  0.00  0.00    +0.000 N 
ATOM     30  C   UNL     1       7.294   5.744  18.975  0.00  0.00    +0.000 C 
ATOM     31  O   UNL     1       7.539   5.444  20.139  0.00  0.00    +0.000 OA
ATOM     32  H   UNL     1       7.522   7.182  17.435  0.00  0.00    +0.000 HD
BRANCH  30  33
ATOM     33  C   UNL     1       6.331   4.955  18.150  0.00  0.00    +0.000 A 
ATOM     34  C   UNL     1       6.629   4.640  16.818  0.00  0.00    +0.000 A 
ATOM     35  C   UNL     1       5.719   3.932  16.029  0.00  0.00    +0.000 A 
ATOM     36  C   UNL     1       4.549   3.453  16.624  0.00  0.00    +0.000 A 
ATOM     37  C   UNL     1       4.208   3.790  17.940  0.00  0.00    +0.000 A 
ATOM     38  C   UNL     1       5.132   4.499  18.716  0.00  0.00    +0.000 A 
BRANCH  35  39
ATOM     39  N   UNL     1       6.088   3.506  14.747  0.00  0.00    +0.000 N 
ATOM     40  H   UNL     1       6.204   2.500  14.659  0.00  0.00    +0.000 HD
ATOM     41  H   UNL     1       6.875   4.015  14.354  0.00  0.00    +0.000 HD
ENDBRANCH  35  39
BRANCH  37  42
ATOM     42  N   UNL     1       3.071   3.221  18.529  0.00  0.00    +0.000 N 
ATOM     43  H   UNL     1       2.238   3.800  18.468  0.00  0.00    +0.000 HD
ATOM     44  H   UNL     1       3.222   2.861  19.466  0.00  0.00    +0.000 HD
ENDBRANCH  37  42
ENDBRANCH  30  33
ENDBRANCH  26  29
ENDBRANCH   9  23
TORSDOF 7
ENDMDL
MODEL 2
REMARK VINA RESULT:      -8.4      0.423      1.670
REMARK  Name = 
REMARK  8 active torsions:
REMARK  status: ('A' for Active; 'I' for Inactive)
REMARK    1  A    between atoms: C_1  and  O_2
REMARK    2  A    between atoms: O_2  and  C_3
REMARK    3  A    between atoms: C_6  and  C_7
REMARK    4  A    between atoms: C_15  and  N_16
REMARK    5  A    between atoms: N_19  and  N_20
REMARK    6  A    between atoms: C_21  and  C_23
REMARK    7  A    between atoms: C_25  and  N_26
REMARK    8  A    between atoms: C_28  and  N_29
REMARK                            x       y       z     vdW  Elec       q    Type
REMARK                         _______ _______ _______ _____ _____    ______ ____
ROOT
ATOM      1  C   UNL     1       8.049  14.783  22.480  0.00  0.00    +0.000 A 
ATOM      2  N   UNL     1       7.714  15.843  21.641  0.00  0.00    +0.000 N 
ATOM      3  N   UNL     1       8.153  15.700  20.369  0.00  0.00    +0.000 NA
ATOM      4  C   UNL     1       8.529  14.434  20.375  0.00  0.00    +0.000 A 
ATOM      5  C   UNL     1       8.336  13.770  21.591  0.00  0.00    +0.000 A 
ATOM      6  C   UNL     1       8.740  12.373  21.440  0.00  0.00    +0.000 C 
ATOM      7  O   UNL     1       8.855  11.555  22.329  0.00  0.00    +0.000 OA
ATOM      8  C   UNL     1       9.147  12.254  19.962  0.00  0.00    +0.000 A 
ATOM      9  C   UNL     1       9.619  11.209  19.171  0.00  0.00    +0.000 A 
ATOM     10  C   UNL     1      10.305  11.568  17.987  0.00  0.00    +0.000 A 
ATOM     11  C   UNL     1      10.426  12.906  17.560  0.00  0.00    +0.000 A 
ATOM     12  C   UNL     1       9.807  13.926  18.268  0.00  0.00    +0.000 A 
ATOM     13  C   UNL     1       9.157  13.572  19.433  0.00  0.00    +0.000 A 
ATOM     14  H   UNL     1       7.310  16.732  21.911  0.00  0.00    +0.000 HD
ENDROOT
BRANCH   1  18
ATOM     15  C   UNL     1       8.571  15.485  26.677  0.00  0.00    +0.000 A 
ATOM     16  C   UNL     1       8.190  14.218  26.227  0.00  0.00    +0.000 A 
ATOM     17  C   UNL     1       8.002  13.962  24.858  0.00  0.00    +0.000 A 
ATOM     18  C   UNL     1       8.162  14.985  23.924  0.00  0.00    +0.000 A 
ATOM     19  C   UNL     1       8.513  16.267  24.400  0.00  0.00    +0.000 A 
ATOM     20  C   UNL     1       8.716  16.519  25.757  0.00  0.00    +0.000 A 
BRANCH  15  22
ATOM     21  C   UNL     1      10.086  15.875  28.450  0.00  0.00    +0.000 C 
ATOM     22  O   UNL     1       8.751  15.614  28.027  0.00  0.00    +0.000 OA
ENDBRANCH  15  22
ENDBRANCH   1  18
BRANCH   9  23
ATOM     23  N   UNL     1       9.436   9.819  19.366  0.00  0.00    +0.000 N 
ATOM     24  C   UNL     1       8.596   9.016  18.628  0.00  0.00    +0.000 C 
ATOM     25  O   UNL     1       7.863   9.389  17.716  0.00  0.00    +0.000 OA
ATOM     26  N   UNL     1       8.660   7.680  19.016  0.00  0.00    +0.000 N 
ATOM     27  H   UNL     1      10.195   9.324  19.812  0.00  0.00    +0.000 HD
ATOM     28  H   UNL     1       9.522   7.273  19.365  0.00  0.00    +0.000 HD
BRANCH  26  29
ATOM     29  N   UNL     1       7.846   6.787  18.296  0.00  0.00    +0.000 N 
ATOM     30  C   UNL     1       7.245   5.716  18.933  0.00  0.00    +0.000 C 
ATOM     31  O   UNL     1       7.447   5.428  20.109  0.00  0.00    +0.000 OA
ATOM     32  H   UNL     1       7.543   7.130  17.385  0.00  0.00    +0.000 HD
BRANCH  30  33
ATOM     33  C   UNL     1       6.298   4.929  18.087  0.00  0.00    +0.000 A 
ATOM     34  C   UNL     1       5.042   4.560  18.586  0.00  0.00    +0.000 A 
ATOM     35  C   UNL     1       4.164   3.795  17.815  0.00  0.00    +0.000 A 
ATOM     36  C   UNL     1       4.520   3.492  16.497  0.00  0.00    +0.000 A 
ATOM     37  C   UNL     1       5.785   3.814  15.990  0.00  0.00    +0.000 A 
ATOM     38  C   UNL     1       6.651   4.581  16.777  0.00  0.00    +0.000 A 
BRANCH  35  39
ATOM     39  N   UNL     1       2.862   3.551  18.271  0.00  0.00    +0.000 N 
ATOM     40  H   UNL     1       2.789   2.781  18.931  0.00  0.00    +0.000 HD
ATOM     41  H   UNL     1       2.171   3.483  17.529  0.00  0.00    +0.000 HD
ENDBRANCH  35  39
BRANCH  37  42
ATOM     42  N   UNL     1       6.073   3.571  14.640  0.00  0.00    +0.000 N 
ATOM     43  H   UNL     1       6.535   4.344  14.169  0.00  0.00    +0.000 HD
ATOM     44  H   UNL     1       5.291   3.207  14.106  0.00  0.00    +0.000 HD
ENDBRANCH  37  42
ENDBRANCH  30  33
ENDBRANCH  26  29
ENDBRANCH   9  23
TORSDOF 7
ENDMDL
MODEL 3
REMARK VINA RESULT:      -8.4      8.681     12.836
REMARK  Name = 
REMARK  8 active torsions:
REMARK  status: ('A' for Active; 'I' for Inactive)
REMARK    1  A    between atoms: C_1  and  O_2
REMARK    2  A    between atoms: O_2  and  C_3
REMARK    3  A    between atoms: C_6  and  C_7
REMARK    4  A    between atoms: C_15  and  N_16
REMARK    5  A    between atoms: N_19  and  N_20
REMARK    6  A    between atoms: C_21  and  C_23
REMARK    7  A    between atoms: C_25  and  N_26
REMARK    8  A    between atoms: C_28  and  N_29
REMARK                            x       y       z     vdW  Elec       q    Type
REMARK                         _______ _______ _______ _____ _____    ______ ____
ROOT
ATOM      1  C   UNL     1       3.759   5.674  18.111  0.00  0.00    +0.000 A 
ATOM      2  N   UNL     1       3.572   4.765  19.149  0.00  0.00    +0.000 N 
ATOM      3  N   UNL     1       2.970   5.291  20.241  0.00  0.00    +0.000 NA
ATOM      4  C   UNL     1       2.559   6.453  19.765  0.00  0.00    +0.000 A 
ATOM      5  C   UNL     1       2.865   6.677  18.419  0.00  0.00    +0.000 A 
ATOM      6  C   UNL     1       2.308   7.966  18.013  0.00  0.00    +0.000 C 
ATOM      7  O   UNL     1       2.516   8.544  16.966  0.00  0.00    +0.000 OA
ATOM      8  C   UNL     1       1.571   8.471  19.264  0.00  0.00    +0.000 A 
ATOM      9  C   UNL     1       0.832   9.616  19.554  0.00  0.00    +0.000 A 
ATOM     10  C   UNL     1       0.687   9.949  20.921  0.00  0.00    +0.000 A 
ATOM     11  C   UNL     1       1.170   9.122  21.956  0.00  0.00    +0.000 A 
ATOM     12  C   UNL     1       1.755   7.900  21.659  0.00  0.00    +0.000 A 
ATOM     13  C   UNL     1       1.913   7.590  20.324  0.00  0.00    +0.000 A 
ATOM     14  H   UNL     1       3.948   3.827  19.214  0.00  0.00    +0.000 HD
ENDROOT
BRANCH   1  18
ATOM     15  C   UNL     1       6.937   5.309  15.255  0.00  0.00    +0.000 A 
ATOM     16  C   UNL     1       5.712   4.678  15.016  0.00  0.00    +0.000 A 
ATOM     17  C   UNL     1       4.657   4.771  15.940  0.00  0.00    +0.000 A 
ATOM     18  C   UNL     1       4.828   5.476  17.132  0.00  0.00    +0.000 A 
ATOM     19  C   UNL     1       6.081   6.078  17.372  0.00  0.00    +0.000 A 
ATOM     20  C   UNL     1       7.125   5.999  16.449  0.00  0.00    +0.000 A 
BRANCH  15  22
ATOM     21  C   UNL     1       7.419   4.642  13.039  0.00  0.00    +0.000 C 
ATOM     22  O   UNL     1       7.883   5.172  14.277  0.00  0.00    +0.000 OA
ENDBRANCH  15  22
ENDBRANCH   1  18
BRANCH   9  23
ATOM     23  N   UNL     1       0.143  10.459  18.649  0.00  0.00    +0.000 N 
ATOM     24  C   UNL     1      -1.159  10.883  18.793  0.00  0.00    +0.000 C 
ATOM     25  O   UNL     1      -1.920  10.572  19.706  0.00  0.00    +0.000 OA
ATOM     26  N   UNL     1      -1.555  11.744  17.772  0.00  0.00    +0.000 N 
ATOM     27  H   UNL     1       0.712  11.060  18.071  0.00  0.00    +0.000 HD
ATOM     28  H   UNL     1      -0.894  12.376  17.330  0.00  0.00    +0.000 HD
BRANCH  26  29
ATOM     29  N   UNL     1      -2.868  12.241  17.856  0.00  0.00    +0.000 N 
ATOM     30  C   UNL     1      -3.928  11.508  17.355  0.00  0.00    +0.000 C 
ATOM     31  O   UNL     1      -3.793  10.454  16.742  0.00  0.00    +0.000 OA
ATOM     32  H   UNL     1      -2.988  13.012  18.513  0.00  0.00    +0.000 HD
BRANCH  30  33
ATOM     33  C   UNL     1      -5.279  12.083  17.631  0.00  0.00    +0.000 A 
ATOM     34  C   UNL     1      -5.964  11.748  18.806  0.00  0.00    +0.000 A 
ATOM     35  C   UNL     1      -7.242  12.254  19.058  0.00  0.00    +0.000 A 
ATOM     36  C   UNL     1      -7.782  13.183  18.164  0.00  0.00    +0.000 A 
ATOM     37  C   UNL     1      -7.135  13.502  16.963  0.00  0.00    +0.000 A 
ATOM     38  C   UNL     1      -5.856  12.987  16.729  0.00  0.00    +0.000 A 
BRANCH  35  39
ATOM     39  N   UNL     1      -7.856  12.022  20.295  0.00  0.00    +0.000 N 
ATOM     40  H   UNL     1      -7.250  12.177  21.097  0.00  0.00    +0.000 HD
ATOM     41  H   UNL     1      -8.343  11.132  20.353  0.00  0.00    +0.000 HD
ENDBRANCH  35  39
BRANCH  37  42
ATOM     42  N   UNL     1      -7.664  14.501  16.135  0.00  0.00    +0.000 N 
ATOM     43  H   UNL     1      -7.282  15.427  16.304  0.00  0.00    +0.000 HD
ATOM     44  H   UNL     1      -8.679  14.506  16.083  0.00  0.00    +0.000 HD
ENDBRANCH  37  42
ENDBRANCH  30  33
ENDBRANCH  26  29
ENDBRANCH   9  23
TORSDOF 7
ENDMDL
MODEL 4
REMARK VINA RESULT:      -8.4      8.757      9.357
REMARK  Name = 
REMARK  8 active torsions:
REMARK  status: ('A' for Active; 'I' for Inactive)
REMARK    1  A    between atoms: C_1  and  O_2
REMARK    2  A    between atoms: O_2  and  C_3
REMARK    3  A    between atoms: C_6  and  C_7
REMARK    4  A    between atoms: C_15  and  N_16
REMARK    5  A    between atoms: N_19  and  N_20
REMARK    6  A    between atoms: C_21  and  C_23
REMARK    7  A    between atoms: C_25  and  N_26
REMARK    8  A    between atoms: C_28  and  N_29
REMARK                            x       y       z     vdW  Elec       q    Type
REMARK                         _______ _______ _______ _____ _____    ______ ____
ROOT
ATOM      1  C   UNL     1      -2.533  14.163  20.486  0.00  0.00    +0.000 A 
ATOM      2  N   UNL     1      -2.405  15.539  20.317  0.00  0.00    +0.000 N 
ATOM      3  N   UNL     1      -1.159  15.940  19.975  0.00  0.00    +0.000 NA
ATOM      4  C   UNL     1      -0.595  14.782  19.682  0.00  0.00    +0.000 A 
ATOM      5  C   UNL     1      -1.434  13.670  19.814  0.00  0.00    +0.000 A 
ATOM      6  C   UNL     1      -0.704  12.471  19.409  0.00  0.00    +0.000 C 
ATOM      7  O   UNL     1      -1.070  11.322  19.546  0.00  0.00    +0.000 OA
ATOM      8  C   UNL     1       0.667  12.998  18.955  0.00  0.00    +0.000 A 
ATOM      9  C   UNL     1       1.818  12.393  18.455  0.00  0.00    +0.000 A 
ATOM     10  C   UNL     1       3.023  13.126  18.570  0.00  0.00    +0.000 A 
ATOM     11  C   UNL     1       3.061  14.444  19.068  0.00  0.00    +0.000 A 
ATOM     12  C   UNL     1       1.885  15.099  19.406  0.00  0.00    +0.000 A 
ATOM     13  C   UNL     1       0.716  14.372  19.311  0.00  0.00    +0.000 A 
ATOM     14  H   UNL     1      -3.090  16.249  20.549  0.00  0.00    +0.000 HD
ENDROOT
BRANCH   1  18
ATOM     15  C   UNL     1      -5.740  12.664  22.905  0.00  0.00    +0.000 A 
ATOM     16  C   UNL     1      -4.574  13.139  23.514  0.00  0.00    +0.000 A 
ATOM     17  C   UNL     1      -3.503  13.626  22.745  0.00  0.00    +0.000 A 
ATOM     18  C   UNL     1      -3.576  13.614  21.352  0.00  0.00    +0.000 A 
ATOM     19  C   UNL     1      -4.746  13.099  20.755  0.00  0.00    +0.000 A 
ATOM     20  C   UNL     1      -5.817  12.629  21.516  0.00  0.00    +0.000 A 
BRANCH  15  22
ATOM     21  C   UNL     1      -7.597  13.253  24.245  0.00  0.00    +0.000 C 
ATOM     22  O   UNL     1      -6.728  12.238  23.750  0.00  0.00    +0.000 OA
ENDBRANCH  15  22
ENDBRANCH   1  18
BRANCH   9  23
ATOM     23  N   UNL     1       1.926  11.155  17.777  0.00  0.00    +0.000 N 
ATOM     24  C   UNL     1       1.924   9.916  18.378  0.00  0.00    +0.000 C 
ATOM     25  O   UNL     1       1.859   9.703  19.587  0.00  0.00    +0.000 OA
ATOM     26  N   UNL     1       1.995   8.876  17.455  0.00  0.00    +0.000 N 
ATOM     27  H   UNL     1       1.636  11.145  16.810  0.00  0.00    +0.000 HD
ATOM     28  H   UNL     1       1.575   8.958  16.534  0.00  0.00    +0.000 HD
BRANCH  26  29
ATOM     29  N   UNL     1       1.978   7.574  17.987  0.00  0.00    +0.000 N 
ATOM     30  C   UNL     1       3.081   6.749  17.859  0.00  0.00    +0.000 C 
ATOM     31  O   UNL     1       4.082   7.052  17.217  0.00  0.00    +0.000 OA
ATOM     32  H   UNL     1       1.232   7.402  18.660  0.00  0.00    +0.000 HD
BRANCH  30  33
ATOM     33  C   UNL     1       2.983   5.449  18.587  0.00  0.00    +0.000 A 
ATOM     34  C   UNL     1       4.116   4.641  18.750  0.00  0.00    +0.000 A 
ATOM     35  C   UNL     1       4.028   3.407  19.399  0.00  0.00    +0.000 A 
ATOM     36  C   UNL     1       2.808   3.040  19.974  0.00  0.00    +0.000 A 
ATOM     37  C   UNL     1       1.652   3.809  19.789  0.00  0.00    +0.000 A 
ATOM     38  C   UNL     1       1.761   5.042  19.137  0.00  0.00    +0.000 A 
BRANCH  35  39
ATOM     39  N   UNL     1       5.191   2.676  19.676  0.00  0.00    +0.000 N 
ATOM     40  H   UNL     1       5.276   1.813  19.146  0.00  0.00    +0.000 HD
ATOM     41  H   UNL     1       5.361   2.533  20.667  0.00  0.00    +0.000 HD
ENDBRANCH  35  39
BRANCH  37  42
ATOM     42  N   UNL     1       0.470   3.454  20.452  0.00  0.00    +0.000 N 
ATOM     43  H   UNL     1      -0.221   3.005  19.857  0.00  0.00    +0.000 HD
ATOM     44  H   UNL     1       0.068   4.197  21.015  0.00  0.00    +0.000 HD
ENDBRANCH  37  42
ENDBRANCH  30  33
ENDBRANCH  26  29
ENDBRANCH   9  23
TORSDOF 7
ENDMDL
MODEL 5
REMARK VINA RESULT:      -8.2      8.598      9.238
REMARK  Name = 
REMARK  8 active torsions:
REMARK  status: ('A' for Active; 'I' for Inactive)
REMARK    1  A    between atoms: C_1  and  O_2
REMARK    2  A    between atoms: O_2  and  C_3
REMARK    3  A    between atoms: C_6  and  C_7
REMARK    4  A    between atoms: C_15  and  N_16
REMARK    5  A    between atoms: N_19  and  N_20
REMARK    6  A    between atoms: C_21  and  C_23
REMARK    7  A    between atoms: C_25  and  N_26
REMARK    8  A    between atoms: C_28  and  N_29
REMARK                            x       y       z     vdW  Elec       q    Type
REMARK                         _______ _______ _______ _____ _____    ______ ____
ROOT
ATOM      1  C   UNL     1      -2.330  14.488  20.578  0.00  0.00    +0.000 A 
ATOM      2  N   UNL     1      -2.176  15.857  20.373  0.00  0.00    +0.000 N 
ATOM      3  N   UNL     1      -0.937  16.219  19.970  0.00  0.00    +0.000 NA
ATOM      4  C   UNL     1      -0.414  15.042  19.680  0.00  0.00    +0.000 A 
ATOM      5  C   UNL     1      -1.273  13.955  19.872  0.00  0.00    +0.000 A 
ATOM      6  C   UNL     1      -0.589  12.729  19.463  0.00  0.00    +0.000 C 
ATOM      7  O   UNL     1      -0.976  11.593  19.641  0.00  0.00    +0.000 OA
ATOM      8  C   UNL     1       0.774  13.213  18.941  0.00  0.00    +0.000 A 
ATOM      9  C   UNL     1       1.888  12.569  18.407  0.00  0.00    +0.000 A 
ATOM     10  C   UNL     1       3.113  13.274  18.454  0.00  0.00    +0.000 A 
ATOM     11  C   UNL     1       3.204  14.601  18.921  0.00  0.00    +0.000 A 
ATOM     12  C   UNL     1       2.059  15.292  19.293  0.00  0.00    +0.000 A 
ATOM     13  C   UNL     1       0.871  14.592  19.264  0.00  0.00    +0.000 A 
ATOM     14  H   UNL     1      -2.834  16.589  20.617  0.00  0.00    +0.000 HD
ENDROOT
BRANCH   1  18
ATOM     15  C   UNL     1      -5.225  12.805  23.255  0.00  0.00    +0.000 A 
ATOM     16  C   UNL     1      -5.636  13.696  22.260  0.00  0.00    +0.000 A 
ATOM     17  C   UNL     1      -4.707  14.272  21.375  0.00  0.00    +0.000 A 
ATOM     18  C   UNL     1      -3.348  13.983  21.498  0.00  0.00    +0.000 A 
ATOM     19  C   UNL     1      -2.948  13.108  22.531  0.00  0.00    +0.000 A 
ATOM     20  C   UNL     1      -3.870  12.524  23.401  0.00  0.00    +0.000 A 
BRANCH  15  22
ATOM     21  C   UNL     1      -7.430  13.032  24.077  0.00  0.00    +0.000 C 
ATOM     22  O   UNL     1      -6.216  12.287  24.043  0.00  0.00    +0.000 OA
ENDBRANCH  15  22
ENDBRANCH   1  18
BRANCH   9  23
ATOM     23  N   UNL     1       1.937  11.314  17.752  0.00  0.00    +0.000 N 
ATOM     24  C   UNL     1       1.971  10.090  18.381  0.00  0.00    +0.000 C 
ATOM     25  O   UNL     1       1.993   9.906  19.596  0.00  0.00    +0.000 OA
ATOM     26  N   UNL     1       1.968   9.028  17.480  0.00  0.00    +0.000 N 
ATOM     27  H   UNL     1       1.578  11.284  16.809  0.00  0.00    +0.000 HD
ATOM     28  H   UNL     1       1.482   9.093  16.591  0.00  0.00    +0.000 HD
BRANCH  26  29
ATOM     29  N   UNL     1       1.980   7.739  18.043  0.00  0.00    +0.000 N 
ATOM     30  C   UNL     1       3.113   6.950  17.963  0.00  0.00    +0.000 C 
ATOM     31  O   UNL     1       4.120   7.271  17.338  0.00  0.00    +0.000 OA
ATOM     32  H   UNL     1       1.224   7.557  18.702  0.00  0.00    +0.000 HD
BRANCH  30  33
ATOM     33  C   UNL     1       3.041   5.664  18.719  0.00  0.00    +0.000 A 
ATOM     34  C   UNL     1       1.833   5.246  19.293  0.00  0.00    +0.000 A 
ATOM     35  C   UNL     1       1.763   4.062  20.031  0.00  0.00    +0.000 A 
ATOM     36  C   UNL     1       2.898   3.249  20.100  0.00  0.00    +0.000 A 
ATOM     37  C   UNL     1       4.127   3.664  19.571  0.00  0.00    +0.000 A 
ATOM     38  C   UNL     1       4.177   4.852  18.834  0.00  0.00    +0.000 A 
BRANCH  35  39
ATOM     39  N   UNL     1       0.524   3.589  20.480  0.00  0.00    +0.000 N 
ATOM     40  H   UNL     1       0.383   3.675  21.483  0.00  0.00    +0.000 HD
ATOM     41  H   UNL     1       0.290   2.660  20.141  0.00  0.00    +0.000 HD
ENDBRANCH  35  39
BRANCH  37  42
ATOM     42  N   UNL     1       5.219   2.785  19.583  0.00  0.00    +0.000 N 
ATOM     43  H   UNL     1       5.713   2.724  18.698  0.00  0.00    +0.000 HD
ATOM     44  H   UNL     1       5.014   1.870  19.974  0.00  0.00    +0.000 HD
ENDBRANCH  37  42
ENDBRANCH  30  33
ENDBRANCH  26  29
ENDBRANCH   9  23
TORSDOF 7
ENDMDL
MODEL 6
REMARK VINA RESULT:      -7.9     10.376     11.423
REMARK  Name = 
REMARK  8 active torsions:
REMARK  status: ('A' for Active; 'I' for Inactive)
REMARK    1  A    between atoms: C_1  and  O_2
REMARK    2  A    between atoms: O_2  and  C_3
REMARK    3  A    between atoms: C_6  and  C_7
REMARK    4  A    between atoms: C_15  and  N_16
REMARK    5  A    between atoms: N_19  and  N_20
REMARK    6  A    between atoms: C_21  and  C_23
REMARK    7  A    between atoms: C_25  and  N_26
REMARK    8  A    between atoms: C_28  and  N_29
REMARK                            x       y       z     vdW  Elec       q    Type
REMARK                         _______ _______ _______ _____ _____    ______ ____
ROOT
ATOM      1  C   UNL     1      -4.785  13.944  23.102  0.00  0.00    +0.000 A 
ATOM      2  N   UNL     1      -5.936  13.290  23.535  0.00  0.00    +0.000 N 
ATOM      3  N   UNL     1      -6.578  12.601  22.564  0.00  0.00    +0.000 NA
ATOM      4  C   UNL     1      -5.674  12.624  21.601  0.00  0.00    +0.000 A 
ATOM      5  C   UNL     1      -4.487  13.288  21.927  0.00  0.00    +0.000 A 
ATOM      6  C   UNL     1      -3.562  13.190  20.799  0.00  0.00    +0.000 C 
ATOM      7  O   UNL     1      -2.509  13.781  20.676  0.00  0.00    +0.000 OA
ATOM      8  C   UNL     1      -4.311  12.331  19.768  0.00  0.00    +0.000 A 
ATOM      9  C   UNL     1      -4.002  11.862  18.494  0.00  0.00    +0.000 A 
ATOM     10  C   UNL     1      -5.091  11.486  17.673  0.00  0.00    +0.000 A 
ATOM     11  C   UNL     1      -6.422  11.482  18.138  0.00  0.00    +0.000 A 
ATOM     12  C   UNL     1      -6.701  11.790  19.462  0.00  0.00    +0.000 A 
ATOM     13  C   UNL     1      -5.638  12.176  20.251  0.00  0.00    +0.000 A 
ATOM     14  H   UNL     1      -6.392  13.388  24.435  0.00  0.00    +0.000 HD
ENDROOT
BRANCH   1  18
ATOM     15  C   UNL     1      -3.230  17.278  25.304  0.00  0.00    +0.000 A 
ATOM     16  C   UNL     1      -4.581  17.253  24.944  0.00  0.00    +0.000 A 
ATOM     17  C   UNL     1      -5.115  16.177  24.213  0.00  0.00    +0.000 A 
ATOM     18  C   UNL     1      -4.292  15.127  23.806  0.00  0.00    +0.000 A 
ATOM     19  C   UNL     1      -2.925  15.187  24.148  0.00  0.00    +0.000 A 
ATOM     20  C   UNL     1      -2.395  16.246  24.887  0.00  0.00    +0.000 A 
BRANCH  15  22
ATOM     21  C   UNL     1      -1.423  18.621  26.027  0.00  0.00    +0.000 C 
ATOM     22  O   UNL     1      -2.824  18.360  26.036  0.00  0.00    +0.000 OA
ENDBRANCH  15  22
ENDBRANCH   1  18
BRANCH   9  23
ATOM     23  N   UNL     1      -2.720  11.644  17.934  0.00  0.00    +0.000 N 
ATOM     24  C   UNL     1      -1.922  10.549  18.175  0.00  0.00    +0.000 C 
ATOM     25  O   UNL     1      -2.190   9.616  18.930  0.00  0.00    +0.000 OA
ATOM     26  N   UNL     1      -0.735  10.583  17.448  0.00  0.00    +0.000 N 
ATOM     27  H   UNL     1      -2.524  12.113  17.061  0.00  0.00    +0.000 HD
ATOM     28  H   UNL     1      -0.693  11.009  16.527  0.00  0.00    +0.000 HD
BRANCH  26  29
ATOM     29  N   UNL     1       0.130   9.487  17.622  0.00  0.00    +0.000 N 
ATOM     30  C   UNL     1       1.422   9.679  18.077  0.00  0.00    +0.000 C 
ATOM     31  O   UNL     1       1.916  10.786  18.266  0.00  0.00    +0.000 OA
ATOM     32  H   UNL     1      -0.335   8.580  17.638  0.00  0.00    +0.000 HD
BRANCH  30  33
ATOM     33  C   UNL     1       2.187   8.425  18.350  0.00  0.00    +0.000 A 
ATOM     34  C   UNL     1       1.888   7.644  19.473  0.00  0.00    +0.000 A 
ATOM     35  C   UNL     1       2.621   6.487  19.755  0.00  0.00    +0.000 A 
ATOM     36  C   UNL     1       3.589   6.069  18.839  0.00  0.00    +0.000 A 
ATOM     37  C   UNL     1       3.934   6.854  17.731  0.00  0.00    +0.000 A 
ATOM     38  C   UNL     1       3.190   8.008  17.464  0.00  0.00    +0.000 A 
BRANCH  35  39
ATOM     39  N   UNL     1       2.223   5.644  20.801  0.00  0.00    +0.000 N 
ATOM     40  H   UNL     1       2.716   5.804  21.675  0.00  0.00    +0.000 HD
ATOM     41  H   UNL     1       2.201   4.660  20.551  0.00  0.00    +0.000 HD
ENDBRANCH  35  39
BRANCH  37  42
ATOM     42  N   UNL     1       4.848   6.361  16.790  0.00  0.00    +0.000 N 
ATOM     43  H   UNL     1       4.851   5.348  16.705  0.00  0.00    +0.000 HD
ATOM     44  H   UNL     1       5.785   6.743  16.878  0.00  0.00    +0.000 HD
ENDBRANCH  37  42
ENDBRANCH  30  33
ENDBRANCH  26  29
ENDBRANCH   9  23
TORSDOF 7
ENDMDL
MODEL 7
REMARK VINA RESULT:      -7.7      6.093      7.604
REMARK  Name = 
REMARK  8 active torsions:
REMARK  status: ('A' for Active; 'I' for Inactive)
REMARK    1  A    between atoms: C_1  and  O_2
REMARK    2  A    between atoms: O_2  and  C_3
REMARK    3  A    between atoms: C_6  and  C_7
REMARK    4  A    between atoms: C_15  and  N_16
REMARK    5  A    between atoms: N_19  and  N_20
REMARK    6  A    between atoms: C_21  and  C_23
REMARK    7  A    between atoms: C_25  and  N_26
REMARK    8  A    between atoms: C_28  and  N_29
REMARK                            x       y       z     vdW  Elec       q    Type
REMARK                         _______ _______ _______ _____ _____    ______ ____
ROOT
ATOM      1  C   UNL     1       1.505  14.958  19.233  0.00  0.00    +0.000 A 
ATOM      2  N   UNL     1       0.301  15.654  19.313  0.00  0.00    +0.000 N 
ATOM      3  N   UNL     1      -0.775  14.944  18.903  0.00  0.00    +0.000 NA
ATOM      4  C   UNL     1      -0.258  13.731  18.820  0.00  0.00    +0.000 A 
ATOM      5  C   UNL     1       1.094  13.644  19.171  0.00  0.00    +0.000 A 
ATOM      6  C   UNL     1       1.518  12.248  19.088  0.00  0.00    +0.000 C 
ATOM      7  O   UNL     1       2.656  11.833  19.170  0.00  0.00    +0.000 OA
ATOM      8  C   UNL     1       0.240  11.486  18.701  0.00  0.00    +0.000 A 
ATOM      9  C   UNL     1      -0.051  10.144  18.467  0.00  0.00    +0.000 A 
ATOM     10  C   UNL     1      -1.210   9.869  17.704  0.00  0.00    +0.000 A 
ATOM     11  C   UNL     1      -2.095  10.883  17.281  0.00  0.00    +0.000 A 
ATOM     12  C   UNL     1      -1.884  12.199  17.664  0.00  0.00    +0.000 A 
ATOM     13  C   UNL     1      -0.742  12.464  18.390  0.00  0.00    +0.000 A 
ATOM     14  H   UNL     1       0.177  16.640  19.510  0.00  0.00    +0.000 HD
ENDROOT
BRANCH   1  18
ATOM     15  C   UNL     1       5.321  16.868  18.810  0.00  0.00    +0.000 A 
ATOM     16  C   UNL     1       4.427  17.312  19.789  0.00  0.00    +0.000 A 
ATOM     17  C   UNL     1       3.165  16.711  19.944  0.00  0.00    +0.000 A 
ATOM     18  C   UNL     1       2.771  15.677  19.095  0.00  0.00    +0.000 A 
ATOM     19  C   UNL     1       3.673  15.266  18.090  0.00  0.00    +0.000 A 
ATOM     20  C   UNL     1       4.932  15.850  17.945  0.00  0.00    +0.000 A 
BRANCH  15  22
ATOM     21  C   UNL     1       7.226  17.594  20.006  0.00  0.00    +0.000 C 
ATOM     22  O   UNL     1       6.529  17.508  18.766  0.00  0.00    +0.000 OA
ENDBRANCH  15  22
ENDBRANCH   1  18
BRANCH   9  23
ATOM     23  N   UNL     1       0.633   9.006  18.958  0.00  0.00    +0.000 N 
ATOM     24  C   UNL     1       1.780   8.472  18.415  0.00  0.00    +0.000 C 
ATOM     25  O   UNL     1       2.360   8.882  17.412  0.00  0.00    +0.000 OA
ATOM     26  N   UNL     1       2.254   7.381  19.140  0.00  0.00    +0.000 N 
ATOM     27  H   UNL     1       0.496   8.785  19.934  0.00  0.00    +0.000 HD
ATOM     28  H   UNL     1       2.133   7.323  20.146  0.00  0.00    +0.000 HD
BRANCH  26  29
ATOM     29  N   UNL     1       3.437   6.788  18.662  0.00  0.00    +0.000 N 
ATOM     30  C   UNL     1       3.389   5.606  17.945  0.00  0.00    +0.000 C 
ATOM     31  O   UNL     1       2.357   4.967  17.761  0.00  0.00    +0.000 OA
ATOM     32  H   UNL     1       4.249   7.404  18.661  0.00  0.00    +0.000 HD
BRANCH  30  33
ATOM     33  C   UNL     1       4.696   5.159  17.379  0.00  0.00    +0.000 A 
ATOM     34  C   UNL     1       5.851   5.165  18.172  0.00  0.00    +0.000 A 
ATOM     35  C   UNL     1       7.085   4.781  17.641  0.00  0.00    +0.000 A 
ATOM     36  C   UNL     1       7.127   4.292  16.333  0.00  0.00    +0.000 A 
ATOM     37  C   UNL     1       5.996   4.314  15.507  0.00  0.00    +0.000 A 
ATOM     38  C   UNL     1       4.769   4.701  16.056  0.00  0.00    +0.000 A 
BRANCH  35  39
ATOM     39  N   UNL     1       8.201   4.661  18.479  0.00  0.00    +0.000 N 
ATOM     40  H   UNL     1       8.404   3.708  18.769  0.00  0.00    +0.000 HD
ATOM     41  H   UNL     1       8.197   5.305  19.265  0.00  0.00    +0.000 HD
ENDBRANCH  35  39
BRANCH  37  42
ATOM     42  N   UNL     1       6.057   3.736  14.232  0.00  0.00    +0.000 N 
ATOM     43  H   UNL     1       6.983   3.747  13.815  0.00  0.00    +0.000 HD
ATOM     44  H   UNL     1       5.342   4.065  13.591  0.00  0.00    +0.000 HD
ENDBRANCH  37  42
ENDBRANCH  30  33
ENDBRANCH  26  29
ENDBRANCH   9  23
TORSDOF 7
ENDMDL
MODEL 8
REMARK VINA RESULT:      -7.7      9.573     10.390
REMARK  Name = 
REMARK  8 active torsions:
REMARK  status: ('A' for Active; 'I' for Inactive)
REMARK    1  A    between atoms: C_1  and  O_2
REMARK    2  A    between atoms: O_2  and  C_3
REMARK    3  A    between atoms: C_6  and  C_7
REMARK    4  A    between atoms: C_15  and  N_16
REMARK    5  A    between atoms: N_19  and  N_20
REMARK    6  A    between atoms: C_21  and  C_23
REMARK    7  A    between atoms: C_25  and  N_26
REMARK    8  A    between atoms: C_28  and  N_29
REMARK                            x       y       z     vdW  Elec       q    Type
REMARK                         _______ _______ _______ _____ _____    ______ ____
ROOT
ATOM      1  C   UNL     1      -4.378  13.828  21.919  0.00  0.00    +0.000 A 
ATOM      2  N   UNL     1      -5.640  13.251  21.805  0.00  0.00    +0.000 N 
ATOM      3  N   UNL     1      -5.830  12.561  20.657  0.00  0.00    +0.000 NA
ATOM      4  C   UNL     1      -4.594  12.502  20.193  0.00  0.00    +0.000 A 
ATOM      5  C   UNL     1      -3.633  13.115  21.004  0.00  0.00    +0.000 A 
ATOM      6  C   UNL     1      -2.314  12.929  20.403  0.00  0.00    +0.000 C 
ATOM      7  O   UNL     1      -1.280  13.460  20.753  0.00  0.00    +0.000 OA
ATOM      8  C   UNL     1      -2.584  12.073  19.155  0.00  0.00    +0.000 A 
ATOM      9  C   UNL     1      -1.774  11.542  18.154  0.00  0.00    +0.000 A 
ATOM     10  C   UNL     1      -2.411  11.194  16.939  0.00  0.00    +0.000 A 
ATOM     11  C   UNL     1      -3.807  11.275  16.768  0.00  0.00    +0.000 A 
ATOM     12  C   UNL     1      -4.622  11.645  17.828  0.00  0.00    +0.000 A 
ATOM     13  C   UNL     1      -3.994  12.004  19.003  0.00  0.00    +0.000 A 
ATOM     14  H   UNL     1      -6.439  13.405  22.409  0.00  0.00    +0.000 HD
ENDROOT
BRANCH   1  18
ATOM     15  C   UNL     1      -3.560  17.264  24.350  0.00  0.00    +0.000 A 
ATOM     16  C   UNL     1      -4.513  16.330  24.766  0.00  0.00    +0.000 A 
ATOM     17  C   UNL     1      -4.810  15.200  23.984  0.00  0.00    +0.000 A 
ATOM     18  C   UNL     1      -4.174  15.009  22.757  0.00  0.00    +0.000 A 
ATOM     19  C   UNL     1      -3.240  15.980  22.337  0.00  0.00    +0.000 A 
ATOM     20  C   UNL     1      -2.933  17.095  23.119  0.00  0.00    +0.000 A 
BRANCH  15  22
ATOM     21  C   UNL     1      -2.047  18.343  25.812  0.00  0.00    +0.000 C 
ATOM     22  O   UNL     1      -3.334  18.311  25.200  0.00  0.00    +0.000 OA
ENDBRANCH  15  22
ENDBRANCH   1  18
BRANCH   9  23
ATOM     23  N   UNL     1      -0.393  11.239  18.221  0.00  0.00    +0.000 N 
ATOM     24  C   UNL     1       0.174  10.033  17.876  0.00  0.00    +0.000 C 
ATOM     25  O   UNL     1      -0.433   9.038  17.488  0.00  0.00    +0.000 OA
ATOM     26  N   UNL     1       1.562  10.042  17.999  0.00  0.00    +0.000 N 
ATOM     27  H   UNL     1       0.243  12.023  18.175  0.00  0.00    +0.000 HD
ATOM     28  H   UNL     1       2.101  10.886  17.832  0.00  0.00    +0.000 HD
BRANCH  26  29
ATOM     29  N   UNL     1       2.222   8.852  17.645  0.00  0.00    +0.000 N 
ATOM     30  C   UNL     1       2.377   7.834  18.569  0.00  0.00    +0.000 C 
ATOM     31  O   UNL     1       2.042   7.931  19.745  0.00  0.00    +0.000 OA
ATOM     32  H   UNL     1       2.331   8.710  16.641  0.00  0.00    +0.000 HD
BRANCH  30  33
ATOM     33  C   UNL     1       2.969   6.575  18.026  0.00  0.00    +0.000 A 
ATOM     34  C   UNL     1       2.298   5.354  18.174  0.00  0.00    +0.000 A 
ATOM     35  C   UNL     1       2.860   4.166  17.700  0.00  0.00    +0.000 A 
ATOM     36  C   UNL     1       4.058   4.233  16.983  0.00  0.00    +0.000 A 
ATOM     37  C   UNL     1       4.769   5.433  16.858  0.00  0.00    +0.000 A 
ATOM     38  C   UNL     1       4.189   6.613  17.338  0.00  0.00    +0.000 A 
BRANCH  35  39
ATOM     39  N   UNL     1       2.118   2.979  17.732  0.00  0.00    +0.000 N 
ATOM     40  H   UNL     1       1.297   3.016  18.330  0.00  0.00    +0.000 HD
ATOM     41  H   UNL     1       2.677   2.148  17.905  0.00  0.00    +0.000 HD
ENDBRANCH  35  39
BRANCH  37  42
ATOM     42  N   UNL     1       5.920   5.477  16.060  0.00  0.00    +0.000 N 
ATOM     43  H   UNL     1       6.665   4.860  16.372  0.00  0.00    +0.000 HD
ATOM     44  H   UNL     1       6.254   6.415  15.861  0.00  0.00    +0.000 HD
ENDBRANCH  37  42
ENDBRANCH  30  33
ENDBRANCH  26  29
ENDBRANCH   9  23
TORSDOF 7
ENDMDL
MODEL 9
REMARK VINA RESULT:      -7.7      6.179      7.576
REMARK  Name = 
REMARK  8 active torsions:
REMARK  status: ('A' for Active; 'I' for Inactive)
REMARK    1  A    between atoms: C_1  and  O_2
REMARK    2  A    between atoms: O_2  and  C_3
REMARK    3  A    between atoms: C_6  and  C_7
REMARK    4  A    between atoms: C_15  and  N_16
REMARK    5  A    between atoms: N_19  and  N_20
REMARK    6  A    between atoms: C_21  and  C_23
REMARK    7  A    between atoms: C_25  and  N_26
REMARK    8  A    between atoms: C_28  and  N_29
REMARK                            x       y       z     vdW  Elec       q    Type
REMARK                         _______ _______ _______ _____ _____    ______ ____
ROOT
ATOM      1  C   UNL     1       1.249  15.056  19.609  0.00  0.00    +0.000 A 
ATOM      2  N   UNL     1       0.007  15.684  19.680  0.00  0.00    +0.000 N 
ATOM      3  N   UNL     1      -1.017  14.936  19.211  0.00  0.00    +0.000 NA
ATOM      4  C   UNL     1      -0.434  13.756  19.096  0.00  0.00    +0.000 A 
ATOM      5  C   UNL     1       0.910  13.726  19.483  0.00  0.00    +0.000 A 
ATOM      6  C   UNL     1       1.411  12.359  19.357  0.00  0.00    +0.000 C 
ATOM      7  O   UNL     1       2.567  12.001  19.457  0.00  0.00    +0.000 OA
ATOM      8  C   UNL     1       0.187  11.547  18.903  0.00  0.00    +0.000 A 
ATOM      9  C   UNL     1      -0.025  10.202  18.608  0.00  0.00    +0.000 A 
ATOM     10  C   UNL     1      -1.147   9.898  17.800  0.00  0.00    +0.000 A 
ATOM     11  C   UNL     1      -2.072  10.880  17.392  0.00  0.00    +0.000 A 
ATOM     12  C   UNL     1      -1.943  12.190  17.833  0.00  0.00    +0.000 A 
ATOM     13  C   UNL     1      -0.837  12.484  18.602  0.00  0.00    +0.000 A 
ATOM     14  H   UNL     1      -0.175  16.653  19.913  0.00  0.00    +0.000 HD
ENDROOT
BRANCH   1  18
ATOM     15  C   UNL     1       4.951  17.196  19.297  0.00  0.00    +0.000 A 
ATOM     16  C   UNL     1       4.228  17.231  20.493  0.00  0.00    +0.000 A 
ATOM     17  C   UNL     1       3.005  16.547  20.620  0.00  0.00    +0.000 A 
ATOM     18  C   UNL     1       2.478  15.845  19.536  0.00  0.00    +0.000 A 
ATOM     19  C   UNL     1       3.205  15.850  18.327  0.00  0.00    +0.000 A 
ATOM     20  C   UNL     1       4.426  16.515  18.203  0.00  0.00    +0.000 A 
BRANCH  15  22
ATOM     21  C   UNL     1       7.266  17.146  18.817  0.00  0.00    +0.000 C 
ATOM     22  O   UNL     1       6.138  17.875  19.294  0.00  0.00    +0.000 OA
ENDBRANCH  15  22
ENDBRANCH   1  18
BRANCH   9  23
ATOM     23  N   UNL     1       0.705   9.083  19.074  0.00  0.00    +0.000 N 
ATOM     24  C   UNL     1       1.799   8.530  18.447  0.00  0.00    +0.000 C 
ATOM     25  O   UNL     1       2.283   8.904  17.381  0.00  0.00    +0.000 OA
ATOM     26  N   UNL     1       2.341   7.465  19.163  0.00  0.00    +0.000 N 
ATOM     27  H   UNL     1       0.659   8.897  20.066  0.00  0.00    +0.000 HD
ATOM     28  H   UNL     1       2.313   7.444  20.178  0.00  0.00    +0.000 HD
BRANCH  26  29
ATOM     29  N   UNL     1       3.477   6.856  18.600  0.00  0.00    +0.000 N 
ATOM     30  C   UNL     1       3.395   5.587  18.056  0.00  0.00    +0.000 C 
ATOM     31  O   UNL     1       2.384   4.893  18.106  0.00  0.00    +0.000 OA
ATOM     32  H   UNL     1       4.247   7.495  18.403  0.00  0.00    +0.000 HD
BRANCH  30  33
ATOM     33  C   UNL     1       4.634   5.114  17.369  0.00  0.00    +0.000 A 
ATOM     34  C   UNL     1       4.613   4.806  16.003  0.00  0.00    +0.000 A 
ATOM     35  C   UNL     1       5.759   4.331  15.359  0.00  0.00    +0.000 A 
ATOM     36  C   UNL     1       6.954   4.267  16.081  0.00  0.00    +0.000 A 
ATOM     37  C   UNL     1       6.991   4.529  17.456  0.00  0.00    +0.000 A 
ATOM     38  C   UNL     1       5.835   5.005  18.084  0.00  0.00    +0.000 A 
BRANCH  35  39
ATOM     39  N   UNL     1       5.761   4.159  13.969  0.00  0.00    +0.000 N 
ATOM     40  H   UNL     1       5.053   4.702  13.481  0.00  0.00    +0.000 HD
ATOM     41  H   UNL     1       5.763   3.186  13.674  0.00  0.00    +0.000 HD
ENDBRANCH  35  39
BRANCH  37  42
ATOM     42  N   UNL     1       8.222   4.538  18.127  0.00  0.00    +0.000 N 
ATOM     43  H   UNL     1       8.248   3.948  18.954  0.00  0.00    +0.000 HD
ATOM     44  H   UNL     1       8.594   5.466  18.304  0.00  0.00    +0.000 HD
ENDBRANCH  37  42
ENDBRANCH  30  33
ENDBRANCH  26  29
ENDBRANCH   9  23
TORSDOF 7
ENDMDL
