MODEL 1
REMARK VINA RESULT:      -8.8      0.000      0.000
REMARK  Name = 
REMARK  2 active torsions:
REMARK  status: ('A' for Active; 'I' for Inactive)
REMARK    1  A    between atoms: S_2  and  C_4
REMARK    2  A    between atoms: S_2  and  N_10
REMARK                            x       y       z     vdW  Elec       q    Type
REMARK                         _______ _______ _______ _____ _____    ______ ____
ROOT
ATOM      1  N   UNL     1       3.320   5.610  18.920  0.00  0.00    +0.000 N 
ATOM      2  C   UNL     1       2.508   6.623  19.395  0.00  0.00    +0.000 A 
ATOM      3  C   UNL     1       2.263   7.938  18.983  0.00  0.00    +0.000 A 
ATOM      4  C   UNL     1       1.401   8.692  19.792  0.00  0.00    +0.000 A 
ATOM      5  C   UNL     1       1.139  10.035  19.494  0.00  0.00    +0.000 A 
ATOM      6  C   UNL     1       0.308  10.771  20.325  0.00  0.00    +0.000 A 
ATOM      7  C   UNL     1      -0.231  10.125  21.418  0.00  0.00    +0.000 A 
ATOM      8  N   UNL     1      -0.006   8.828  21.714  0.00  0.00    +0.000 NA
ATOM      9  C   UNL     1       0.798   8.109  20.926  0.00  0.00    +0.000 A 
ATOM     10  N   UNL     1       1.004   6.841  21.262  0.00  0.00    +0.000 NA
ATOM     11  C   UNL     1       1.861   6.124  20.518  0.00  0.00    +0.000 A 
ATOM     12  C   UNL     1       2.286   4.771  20.698  0.00  0.00    +0.000 A 
ATOM     13  C   UNL     1       1.939   3.760  21.607  0.00  0.00    +0.000 A 
ATOM     14  C   UNL     1       2.580   2.532  21.479  0.00  0.00    +0.000 A 
ATOM     15  C   UNL     1       3.568   2.403  20.512  0.00  0.00    +0.000 A 
ATOM     16  N   UNL     1       3.955   3.358  19.627  0.00  0.00    +0.000 NA
ATOM     17  C   UNL     1       3.258   4.506  19.735  0.00  0.00    +0.000 A 
ENDROOT
BRANCH   1  19
ATOM     18  O   UNL     1       3.613   6.994  16.897  0.00  0.00    +0.000 OA
ATOM     19  S   UNL     1       4.218   5.816  17.510  0.00  0.00    +0.000 S 
ATOM     20  O   UNL     1       4.133   4.538  16.832  0.00  0.00    +0.000 OA
BRANCH  19  21
ATOM     21  C   UNL     1       5.937   6.184  17.741  0.00  0.00    +0.000 A 
ATOM     22  C   UNL     1       6.718   5.479  18.691  0.00  0.00    +0.000 A 
ATOM     23  C   UNL     1       7.914   6.035  19.158  0.00  0.00    +0.000 A 
ATOM     24  C   UNL     1       8.401   7.224  18.617  0.00  0.00    +0.000 A 
ATOM     25  C   UNL     1       7.695   7.850  17.603  0.00  0.00    +0.000 A 
ATOM     26  C   UNL     1       6.443   7.364  17.208  0.00  0.00    +0.000 A 
ENDBRANCH  19  21
ENDBRANCH   1  19
TORSDOF 2
ENDMDL
MODEL 2
REMARK VINA RESULT:      -8.5      3.893      5.397
REMARK  Name = 
REMARK  2 active torsions:
REMARK  status: ('A' for Active; 'I' for Inactive)
REMARK    1  A    between atoms: S_2  and  C_4
REMARK    2  A    between atoms: S_2  and  N_10
REMARK                            x       y       z     vdW  Elec       q    Type
REMARK                         _______ _______ _______ _____ _____    ______ ____
ROOT
ATOM      1  N   UNL     1       6.244   4.782  17.599  0.00  0.00    +0.000 N 
ATOM      2  C   UNL     1       4.990   4.383  18.023  0.00  0.00    +0.000 A 
ATOM      3  C   UNL     1       4.368   4.321  19.275  0.00  0.00    +0.000 A 
ATOM      4  C   UNL     1       3.077   3.774  19.302  0.00  0.00    +0.000 A 
ATOM      5  C   UNL     1       2.396   3.618  20.515  0.00  0.00    +0.000 A 
ATOM      6  C   UNL     1       1.132   3.046  20.522  0.00  0.00    +0.000 A 
ATOM      7  C   UNL     1       0.604   2.661  19.308  0.00  0.00    +0.000 A 
ATOM      8  N   UNL     1       1.236   2.817  18.126  0.00  0.00    +0.000 NA
ATOM      9  C   UNL     1       2.456   3.361  18.106  0.00  0.00    +0.000 A 
ATOM     10  N   UNL     1       3.047   3.482  16.923  0.00  0.00    +0.000 NA
ATOM     11  C   UNL     1       4.299   3.965  16.893  0.00  0.00    +0.000 A 
ATOM     12  C   UNL     1       5.161   4.146  15.766  0.00  0.00    +0.000 A 
ATOM     13  C   UNL     1       5.001   3.961  14.385  0.00  0.00    +0.000 A 
ATOM     14  C   UNL     1       6.090   4.243  13.567  0.00  0.00    +0.000 A 
ATOM     15  C   UNL     1       7.284   4.619  14.167  0.00  0.00    +0.000 A 
ATOM     16  N   UNL     1       7.495   4.788  15.499  0.00  0.00    +0.000 NA
ATOM     17  C   UNL     1       6.395   4.579  16.249  0.00  0.00    +0.000 A 
ENDROOT
BRANCH   1  19
ATOM     18  O   UNL     1       8.510   4.547  18.549  0.00  0.00    +0.000 OA
ATOM     19  S   UNL     1       7.356   5.428  18.687  0.00  0.00    +0.000 S 
ATOM     20  O   UNL     1       6.645   5.478  19.950  0.00  0.00    +0.000 OA
BRANCH  19  21
ATOM     21  C   UNL     1       7.917   7.071  18.327  0.00  0.00    +0.000 A 
ATOM     22  C   UNL     1       8.821   7.744  19.187  0.00  0.00    +0.000 A 
ATOM     23  C   UNL     1       8.925   9.137  19.131  0.00  0.00    +0.000 A 
ATOM     24  C   UNL     1       8.231   9.863  18.164  0.00  0.00    +0.000 A 
ATOM     25  C   UNL     1       7.439   9.190  17.248  0.00  0.00    +0.000 A 
ATOM     26  C   UNL     1       7.239   7.809  17.364  0.00  0.00    +0.000 A 
ENDBRANCH  19  21
ENDBRANCH   1  19
TORSDOF 2
ENDMDL
MODEL 3
REMARK VINA RESULT:      -8.4      3.607      7.575
REMARK  Name = 
REMARK  2 active torsions:
REMARK  status: ('A' for Active; 'I' for Inactive)
REMARK    1  A    between atoms: S_2  and  C_4
REMARK    2  A    between atoms: S_2  and  N_10
REMARK                            x       y       z     vdW  Elec       q    Type
REMARK                         _______ _______ _______ _____ _____    ______ ____
ROOT
ATOM      1  N   UNL     1       5.155   3.965  17.268  0.00  0.00    +0.000 N 
ATOM      2  C   UNL     1       5.568   4.075  15.953  0.00  0.00    +0.000 A 
ATOM      3  C   UNL     1       5.089   3.561  14.743  0.00  0.00    +0.000 A 
ATOM      4  C   UNL     1       5.848   3.849  13.600  0.00  0.00    +0.000 A 
ATOM      5  C   UNL     1       5.480   3.332  12.352  0.00  0.00    +0.000 A 
ATOM      6  C   UNL     1       6.263   3.603  11.241  0.00  0.00    +0.000 A 
ATOM      7  C   UNL     1       7.381   4.388  11.428  0.00  0.00    +0.000 A 
ATOM      8  N   UNL     1       7.745   4.911  12.618  0.00  0.00    +0.000 NA
ATOM      9  C   UNL     1       7.003   4.652  13.698  0.00  0.00    +0.000 A 
ATOM     10  N   UNL     1       7.406   5.174  14.852  0.00  0.00    +0.000 NA
ATOM     11  C   UNL     1       6.708   4.869  15.957  0.00  0.00    +0.000 A 
ATOM     12  C   UNL     1       6.962   5.258  17.310  0.00  0.00    +0.000 A 
ATOM     13  C   UNL     1       7.916   6.088  17.915  0.00  0.00    +0.000 A 
ATOM     14  C   UNL     1       7.857   6.234  19.298  0.00  0.00    +0.000 A 
ATOM     15  C   UNL     1       6.910   5.499  19.998  0.00  0.00    +0.000 A 
ATOM     16  N   UNL     1       5.982   4.665  19.459  0.00  0.00    +0.000 NA
ATOM     17  C   UNL     1       6.024   4.612  18.113  0.00  0.00    +0.000 A 
ENDROOT
BRANCH   1  19
ATOM     18  O   UNL     1       4.160   1.731  17.606  0.00  0.00    +0.000 OA
ATOM     19  S   UNL     1       3.746   3.129  17.660  0.00  0.00    +0.000 S 
ATOM     20  O   UNL     1       2.757   3.615  16.718  0.00  0.00    +0.000 OA
BRANCH  19  21
ATOM     21  C   UNL     1       3.114   3.414  19.292  0.00  0.00    +0.000 A 
ATOM     22  C   UNL     1       3.450   2.558  20.370  0.00  0.00    +0.000 A 
ATOM     23  C   UNL     1       2.646   2.532  21.514  0.00  0.00    +0.000 A 
ATOM     24  C   UNL     1       1.578   3.419  21.650  0.00  0.00    +0.000 A 
ATOM     25  C   UNL     1       1.324   4.336  20.644  0.00  0.00    +0.000 A 
ATOM     26  C   UNL     1       2.051   4.296  19.449  0.00  0.00    +0.000 A 
ENDBRANCH  19  21
ENDBRANCH   1  19
TORSDOF 2
ENDMDL
MODEL 4
REMARK VINA RESULT:      -8.0      2.629      5.287
REMARK  Name = 
REMARK  2 active torsions:
REMARK  status: ('A' for Active; 'I' for Inactive)
REMARK    1  A    between atoms: S_2  and  C_4
REMARK    2  A    between atoms: S_2  and  N_10
REMARK                            x       y       z     vdW  Elec       q    Type
REMARK                         _______ _______ _______ _____ _____    ______ ____
ROOT
ATOM      1  N   UNL     1       4.414   4.158  17.783  0.00  0.00    +0.000 N 
ATOM      2  C   UNL     1       3.788   5.322  18.190  0.00  0.00    +0.000 A 
ATOM      3  C   UNL     1       2.990   5.657  19.289  0.00  0.00    +0.000 A 
ATOM      4  C   UNL     1       2.471   6.959  19.308  0.00  0.00    +0.000 A 
ATOM      5  C   UNL     1       1.616   7.370  20.339  0.00  0.00    +0.000 A 
ATOM      6  C   UNL     1       1.089   8.652  20.320  0.00  0.00    +0.000 A 
ATOM      7  C   UNL     1       1.448   9.471  19.271  0.00  0.00    +0.000 A 
ATOM      8  N   UNL     1       2.284   9.102  18.277  0.00  0.00    +0.000 NA
ATOM      9  C   UNL     1       2.793   7.867  18.279  0.00  0.00    +0.000 A 
ATOM     10  N   UNL     1       3.599   7.541  17.275  0.00  0.00    +0.000 NA
ATOM     11  C   UNL     1       4.066   6.284  17.227  0.00  0.00    +0.000 A 
ATOM     12  C   UNL     1       4.899   5.677  16.235  0.00  0.00    +0.000 A 
ATOM     13  C   UNL     1       5.535   6.155  15.080  0.00  0.00    +0.000 A 
ATOM     14  C   UNL     1       6.284   5.249  14.336  0.00  0.00    +0.000 A 
ATOM     15  C   UNL     1       6.299   3.921  14.738  0.00  0.00    +0.000 A 
ATOM     16  N   UNL     1       5.681   3.406  15.833  0.00  0.00    +0.000 NA
ATOM     17  C   UNL     1       5.031   4.330  16.568  0.00  0.00    +0.000 A 
ENDROOT
BRANCH   1  19
ATOM     18  O   UNL     1       5.486   2.962  19.658  0.00  0.00    +0.000 OA
ATOM     19  S   UNL     1       4.365   2.775  18.743  0.00  0.00    +0.000 S 
ATOM     20  O   UNL     1       4.393   1.674  17.799  0.00  0.00    +0.000 OA
BRANCH  19  21
ATOM     21  C   UNL     1       2.913   2.584  19.742  0.00  0.00    +0.000 A 
ATOM     22  C   UNL     1       1.616   2.639  19.172  0.00  0.00    +0.000 A 
ATOM     23  C   UNL     1       0.511   2.907  19.985  0.00  0.00    +0.000 A 
ATOM     24  C   UNL     1       0.657   3.012  21.368  0.00  0.00    +0.000 A 
ATOM     25  C   UNL     1       1.909   2.840  21.935  0.00  0.00    +0.000 A 
ATOM     26  C   UNL     1       3.038   2.684  21.123  0.00  0.00    +0.000 A 
ENDBRANCH  19  21
ENDBRANCH   1  19
TORSDOF 2
ENDMDL
MODEL 5
REMARK VINA RESULT:      -7.8      2.574      6.357
REMARK  Name = 
REMARK  2 active torsions:
REMARK  status: ('A' for Active; 'I' for Inactive)
REMARK    1  A    between atoms: S_2  and  C_4
REMARK    2  A    between atoms: S_2  and  N_10
REMARK                            x       y       z     vdW  Elec       q    Type
REMARK                         _______ _______ _______ _____ _____    ______ ____
ROOT
ATOM      1  N   UNL     1       2.436   6.086  19.397  0.00  0.00    +0.000 N 
ATOM      2  C   UNL     1       3.297   5.845  18.342  0.00  0.00    +0.000 A 
ATOM      3  C   UNL     1       4.006   4.718  17.912  0.00  0.00    +0.000 A 
ATOM      4  C   UNL     1       4.853   4.900  16.809  0.00  0.00    +0.000 A 
ATOM      5  C   UNL     1       5.646   3.846  16.340  0.00  0.00    +0.000 A 
ATOM      6  C   UNL     1       6.500   4.057  15.268  0.00  0.00    +0.000 A 
ATOM      7  C   UNL     1       6.518   5.317  14.709  0.00  0.00    +0.000 A 
ATOM      8  N   UNL     1       5.750   6.342  15.134  0.00  0.00    +0.000 NA
ATOM      9  C   UNL     1       4.927   6.154  16.169  0.00  0.00    +0.000 A 
ATOM     10  N   UNL     1       4.200   7.194  16.565  0.00  0.00    +0.000 NA
ATOM     11  C   UNL     1       3.419   7.040  17.645  0.00  0.00    +0.000 A 
ATOM     12  C   UNL     1       2.588   8.007  18.292  0.00  0.00    +0.000 A 
ATOM     13  C   UNL     1       2.262   9.343  18.016  0.00  0.00    +0.000 A 
ATOM     14  C   UNL     1       1.398   9.989  18.894  0.00  0.00    +0.000 A 
ATOM     15  C   UNL     1       0.969   9.302  20.021  0.00  0.00    +0.000 A 
ATOM     16  N   UNL     1       1.276   8.018  20.343  0.00  0.00    +0.000 NA
ATOM     17  C   UNL     1       2.052   7.404  19.429  0.00  0.00    +0.000 A 
ENDROOT
BRANCH   1  19
ATOM     18  O   UNL     1       0.526   4.820  20.317  0.00  0.00    +0.000 OA
ATOM     19  S   UNL     1       1.980   4.841  20.437  0.00  0.00    +0.000 S 
ATOM     20  O   UNL     1       2.585   5.187  21.709  0.00  0.00    +0.000 OA
BRANCH  19  21
ATOM     21  C   UNL     1       2.555   3.223  19.996  0.00  0.00    +0.000 A 
ATOM     22  C   UNL     1       3.796   2.729  20.471  0.00  0.00    +0.000 A 
ATOM     23  C   UNL     1       4.422   1.670  19.806  0.00  0.00    +0.000 A 
ATOM     24  C   UNL     1       3.786   1.021  18.748  0.00  0.00    +0.000 A 
ATOM     25  C   UNL     1       2.520   1.430  18.363  0.00  0.00    +0.000 A 
ATOM     26  C   UNL     1       1.933   2.559  18.945  0.00  0.00    +0.000 A 
ENDBRANCH  19  21
ENDBRANCH   1  19
TORSDOF 2
ENDMDL
MODEL 6
REMARK VINA RESULT:      -7.8      4.873      7.895
REMARK  Name = 
REMARK  2 active torsions:
REMARK  status: ('A' for Active; 'I' for Inactive)
REMARK    1  A    between atoms: S_2  and  C_4
REMARK    2  A    between atoms: S_2  and  N_10
REMARK                            x       y       z     vdW  Elec       q    Type
REMARK                         _______ _______ _______ _____ _____    ______ ____
ROOT
ATOM      1  N   UNL     1      -0.779  11.667  20.933  0.00  0.00    +0.000 N 
ATOM      2  C   UNL     1      -1.528  11.399  19.802  0.00  0.00    +0.000 A 
ATOM      3  C   UNL     1      -1.306  10.627  18.656  0.00  0.00    +0.000 A 
ATOM      4  C   UNL     1      -2.306  10.669  17.674  0.00  0.00    +0.000 A 
ATOM      5  C   UNL     1      -2.149   9.974  16.468  0.00  0.00    +0.000 A 
ATOM      6  C   UNL     1      -3.136  10.056  15.498  0.00  0.00    +0.000 A 
ATOM      7  C   UNL     1      -4.244  10.826  15.782  0.00  0.00    +0.000 A 
ATOM      8  N   UNL     1      -4.424  11.490  16.944  0.00  0.00    +0.000 NA
ATOM      9  C   UNL     1      -3.477  11.425  17.884  0.00  0.00    +0.000 A 
ATOM     10  N   UNL     1      -3.688  12.105  19.006  0.00  0.00    +0.000 NA
ATOM     11  C   UNL     1      -2.718  12.104  19.933  0.00  0.00    +0.000 A 
ATOM     12  C   UNL     1      -2.680  12.789  21.188  0.00  0.00    +0.000 A 
ATOM     13  C   UNL     1      -3.598  13.592  21.880  0.00  0.00    +0.000 A 
ATOM     14  C   UNL     1      -3.202  14.106  23.112  0.00  0.00    +0.000 A 
ATOM     15  C   UNL     1      -1.908  13.854  23.546  0.00  0.00    +0.000 A 
ATOM     16  N   UNL     1      -0.977  13.103  22.900  0.00  0.00    +0.000 NA
ATOM     17  C   UNL     1      -1.425  12.562  21.750  0.00  0.00    +0.000 A 
ENDROOT
BRANCH   1  19
ATOM     18  O   UNL     1       0.562  10.279  22.472  0.00  0.00    +0.000 OA
ATOM     19  S   UNL     1       0.713  10.924  21.172  0.00  0.00    +0.000 S 
ATOM     20  O   UNL     1       1.683  11.990  21.015  0.00  0.00    +0.000 OA
BRANCH  19  21
ATOM     21  C   UNL     1       1.131   9.649  20.013  0.00  0.00    +0.000 A 
ATOM     22  C   UNL     1       1.340   8.312  20.434  0.00  0.00    +0.000 A 
ATOM     23  C   UNL     1       2.059   7.431  19.620  0.00  0.00    +0.000 A 
ATOM     24  C   UNL     1       2.477   7.822  18.348  0.00  0.00    +0.000 A 
ATOM     25  C   UNL     1       2.167   9.092  17.892  0.00  0.00    +0.000 A 
ATOM     26  C   UNL     1       1.548  10.018  18.739  0.00  0.00    +0.000 A 
ENDBRANCH  19  21
ENDBRANCH   1  19
TORSDOF 2
ENDMDL
MODEL 7
REMARK VINA RESULT:      -7.7      3.549      7.459
REMARK  Name = 
REMARK  2 active torsions:
REMARK  status: ('A' for Active; 'I' for Inactive)
REMARK    1  A    between atoms: S_2  and  C_4
REMARK    2  A    between atoms: S_2  and  N_10
REMARK                            x       y       z     vdW  Elec       q    Type
REMARK                         _______ _______ _______ _____ _____    ______ ____
ROOT
ATOM      1  N   UNL     1       5.229   4.216  17.423  0.00  0.00    +0.000 N 
ATOM      2  C   UNL     1       5.605   4.254  16.093  0.00  0.00    +0.000 A 
ATOM      3  C   UNL     1       5.054   3.730  14.919  0.00  0.00    +0.000 A 
ATOM      4  C   UNL     1       5.792   3.929  13.743  0.00  0.00    +0.000 A 
ATOM      5  C   UNL     1       5.351   3.393  12.527  0.00  0.00    +0.000 A 
ATOM      6  C   UNL     1       6.113   3.575  11.383  0.00  0.00    +0.000 A 
ATOM      7  C   UNL     1       7.283   4.293  11.506  0.00  0.00    +0.000 A 
ATOM      8  N   UNL     1       7.718   4.833  12.664  0.00  0.00    +0.000 NA
ATOM      9  C   UNL     1       6.997   4.659  13.776  0.00  0.00    +0.000 A 
ATOM     10  N   UNL     1       7.470   5.194  14.896  0.00  0.00    +0.000 NA
ATOM     11  C   UNL     1       6.792   4.973  16.033  0.00  0.00    +0.000 A 
ATOM     12  C   UNL     1       7.113   5.392  17.362  0.00  0.00    +0.000 A 
ATOM     13  C   UNL     1       8.137   6.181  17.907  0.00  0.00    +0.000 A 
ATOM     14  C   UNL     1       8.133   6.378  19.284  0.00  0.00    +0.000 A 
ATOM     15  C   UNL     1       7.166   5.730  20.039  0.00  0.00    +0.000 A 
ATOM     16  N   UNL     1       6.170   4.938  19.561  0.00  0.00    +0.000 NA
ATOM     17  C   UNL     1       6.164   4.835  18.217  0.00  0.00    +0.000 A 
ENDROOT
BRANCH   1  19
ATOM     18  O   UNL     1       4.223   2.410  18.772  0.00  0.00    +0.000 OA
ATOM     19  S   UNL     1       3.785   3.486  17.889  0.00  0.00    +0.000 S 
ATOM     20  O   UNL     1       3.121   3.158  16.643  0.00  0.00    +0.000 OA
BRANCH  19  21
ATOM     21  C   UNL     1       2.679   4.503  18.830  0.00  0.00    +0.000 A 
ATOM     22  C   UNL     1       2.732   5.918  18.748  0.00  0.00    +0.000 A 
ATOM     23  C   UNL     1       2.174   6.694  19.769  0.00  0.00    +0.000 A 
ATOM     24  C   UNL     1       1.468   6.094  20.811  0.00  0.00    +0.000 A 
ATOM     25  C   UNL     1       1.316   4.717  20.825  0.00  0.00    +0.000 A 
ATOM     26  C   UNL     1       1.964   3.923  19.872  0.00  0.00    +0.000 A 
ENDBRANCH  19  21
ENDBRANCH   1  19
TORSDOF 2
ENDMDL
MODEL 8
REMARK VINA RESULT:      -7.7      6.376      9.320
REMARK  Name = 
REMARK  2 active torsions:
REMARK  status: ('A' for Active; 'I' for Inactive)
REMARK    1  A    between atoms: S_2  and  C_4
REMARK    2  A    between atoms: S_2  and  N_10
REMARK                            x       y       z     vdW  Elec       q    Type
REMARK                         _______ _______ _______ _____ _____    ______ ____
ROOT
ATOM      1  N   UNL     1      -2.598  12.225  19.459  0.00  0.00    +0.000 N 
ATOM      2  C   UNL     1      -3.745  12.434  20.202  0.00  0.00    +0.000 A 
ATOM      3  C   UNL     1      -3.982  12.875  21.509  0.00  0.00    +0.000 A 
ATOM      4  C   UNL     1      -5.320  12.885  21.929  0.00  0.00    +0.000 A 
ATOM      5  C   UNL     1      -5.652  13.257  23.237  0.00  0.00    +0.000 A 
ATOM      6  C   UNL     1      -6.978  13.229  23.641  0.00  0.00    +0.000 A 
ATOM      7  C   UNL     1      -7.917  12.835  22.711  0.00  0.00    +0.000 A 
ATOM      8  N   UNL     1      -7.621  12.488  21.440  0.00  0.00    +0.000 NA
ATOM      9  C   UNL     1      -6.346  12.505  21.040  0.00  0.00    +0.000 A 
ATOM     10  N   UNL     1      -6.098  12.143  19.786  0.00  0.00    +0.000 NA
ATOM     11  C   UNL     1      -4.817  12.090  19.389  0.00  0.00    +0.000 A 
ATOM     12  C   UNL     1      -4.290  11.689  18.122  0.00  0.00    +0.000 A 
ATOM     13  C   UNL     1      -4.876  11.299  16.909  0.00  0.00    +0.000 A 
ATOM     14  C   UNL     1      -4.025  10.966  15.861  0.00  0.00    +0.000 A 
ATOM     15  C   UNL     1      -2.657  10.970  16.097  0.00  0.00    +0.000 A 
ATOM     16  N   UNL     1      -2.043  11.316  17.259  0.00  0.00    +0.000 NA
ATOM     17  C   UNL     1      -2.900  11.705  18.223  0.00  0.00    +0.000 A 
ENDROOT
BRANCH   1  19
ATOM     18  O   UNL     1      -1.348  13.772  20.922  0.00  0.00    +0.000 OA
ATOM     19  S   UNL     1      -1.082  12.604  20.089  0.00  0.00    +0.000 S 
ATOM     20  O   UNL     1      -0.226  12.738  18.927  0.00  0.00    +0.000 OA
BRANCH  19  21
ATOM     21  C   UNL     1      -0.361  11.375  21.144  0.00  0.00    +0.000 A 
ATOM     22  C   UNL     1       0.449  10.338  20.618  0.00  0.00    +0.000 A 
ATOM     23  C   UNL     1       0.656   9.172  21.362  0.00  0.00    +0.000 A 
ATOM     24  C   UNL     1       0.166   9.065  22.663  0.00  0.00    +0.000 A 
ATOM     25  C   UNL     1      -0.525  10.129  23.219  0.00  0.00    +0.000 A 
ATOM     26  C   UNL     1      -0.835  11.254  22.446  0.00  0.00    +0.000 A 
ENDBRANCH  19  21
ENDBRANCH   1  19
TORSDOF 2
ENDMDL
MODEL 9
REMARK VINA RESULT:      -7.7      6.602      9.616
REMARK  Name = 
REMARK  2 active torsions:
REMARK  status: ('A' for Active; 'I' for Inactive)
REMARK    1  A    between atoms: S_2  and  C_4
REMARK    2  A    between atoms: S_2  and  N_10
REMARK                            x       y       z     vdW  Elec       q    Type
REMARK                         _______ _______ _______ _____ _____    ______ ____
ROOT
ATOM      1  N   UNL     1      -2.498  12.967  21.492  0.00  0.00    +0.000 N 
ATOM      2  C   UNL     1      -2.798  12.414  20.261  0.00  0.00    +0.000 A 
ATOM      3  C   UNL     1      -2.037  11.761  19.285  0.00  0.00    +0.000 A 
ATOM      4  C   UNL     1      -2.710  11.401  18.109  0.00  0.00    +0.000 A 
ATOM      5  C   UNL     1      -2.021  10.795  17.051  0.00  0.00    +0.000 A 
ATOM      6  C   UNL     1      -2.701  10.477  15.885  0.00  0.00    +0.000 A 
ATOM      7  C   UNL     1      -4.046  10.775  15.832  0.00  0.00    +0.000 A 
ATOM      8  N   UNL     1      -4.733  11.343  16.845  0.00  0.00    +0.000 NA
ATOM      9  C   UNL     1      -4.089  11.661  17.972  0.00  0.00    +0.000 A 
ATOM     10  N   UNL     1      -4.800  12.232  18.938  0.00  0.00    +0.000 NA
ATOM     11  C   UNL     1      -4.155  12.618  20.049  0.00  0.00    +0.000 A 
ATOM     12  C   UNL     1      -4.677  13.290  21.199  0.00  0.00    +0.000 A 
ATOM     13  C   UNL     1      -5.963  13.699  21.580  0.00  0.00    +0.000 A 
ATOM     14  C   UNL     1      -6.096  14.348  22.803  0.00  0.00    +0.000 A 
ATOM     15  C   UNL     1      -4.947  14.614  23.536  0.00  0.00    +0.000 A 
ATOM     16  N   UNL     1      -3.680  14.260  23.197  0.00  0.00    +0.000 NA
ATOM     17  C   UNL     1      -3.604  13.567  22.044  0.00  0.00    +0.000 A 
ENDROOT
BRANCH   1  19
ATOM     18  O   UNL     1      -1.145  13.143  23.549  0.00  0.00    +0.000 OA
ATOM     19  S   UNL     1      -0.945  12.851  22.134  0.00  0.00    +0.000 S 
ATOM     20  O   UNL     1      -0.147  13.753  21.327  0.00  0.00    +0.000 OA
BRANCH  19  21
ATOM     21  C   UNL     1      -0.195  11.247  22.041  0.00  0.00    +0.000 A 
ATOM     22  C   UNL     1       0.729  10.926  21.014  0.00  0.00    +0.000 A 
ATOM     23  C   UNL     1       0.982   9.587  20.702  0.00  0.00    +0.000 A 
ATOM     24  C   UNL     1       0.420   8.562  21.464  0.00  0.00    +0.000 A 
ATOM     25  C   UNL     1      -0.388   8.882  22.542  0.00  0.00    +0.000 A 
ATOM     26  C   UNL     1      -0.738  10.214  22.795  0.00  0.00    +0.000 A 
ENDBRANCH  19  21
ENDBRANCH   1  19
TORSDOF 2
ENDMDL
