MODEL 1
REMARK VINA RESULT:      -7.9      0.000      0.000
REMARK  Name = 
REMARK  9 active torsions:
REMARK  status: ('A' for Active; 'I' for Inactive)
REMARK    1  A    between atoms: C_1  and  C_2
REMARK    2  A    between atoms: C_5  and  S_6
REMARK    3  A    between atoms: S_6  and  N_19
REMARK    4  A    between atoms: N_8  and  C_9
REMARK    5  A    between atoms: N_11  and  C_12
REMARK    6  A    between atoms: N_19  and  C_20
REMARK    7  A    between atoms: C_20  and  C_21
REMARK    8  A    between atoms: C_21  and  C_22
REMARK    9  A    between atoms: C_21  and  C_23
REMARK                            x       y       z     vdW  Elec       q    Type
REMARK                         _______ _______ _______ _____ _____    ______ ____
ROOT
ATOM      1  S   UNL     1       5.164   4.581  18.915  0.00  0.00    +0.000 S 
ATOM      2  O   UNL     1       6.240   5.116  19.723  0.00  0.00    +0.000 OA
ATOM      3  N   UNL     1       3.697   5.016  19.005  0.00  0.00    +0.000 NA
ENDROOT
BRANCH   1   8
ATOM      4  C   UNL     1       7.012   4.549  13.100  0.00  0.00    +0.000 C 
ATOM      5  C   UNL     1       6.573   4.551  14.538  0.00  0.00    +0.000 A 
ATOM      6  C   UNL     1       5.262   4.196  14.874  0.00  0.00    +0.000 A 
ATOM      7  C   UNL     1       4.845   4.215  16.207  0.00  0.00    +0.000 A 
ATOM      8  C   UNL     1       5.739   4.578  17.221  0.00  0.00    +0.000 A 
ATOM      9  C   UNL     1       7.051   4.935  16.902  0.00  0.00    +0.000 A 
ATOM     10  C   UNL     1       7.461   4.927  15.559  0.00  0.00    +0.000 A 
ENDBRANCH   1   8
BRANCH   3  11
ATOM     11  C   UNL     1       3.380   6.344  18.765  0.00  0.00    +0.000 C 
ATOM     12  O   UNL     1       4.070   7.064  18.044  0.00  0.00    +0.000 OA
ATOM     13  N   UNL     1       2.251   6.793  19.404  0.00  0.00    +0.000 N 
ATOM     14  H   UNL     1       2.035   6.258  20.232  0.00  0.00    +0.000 HD
BRANCH  13  15
ATOM     15  C   UNL     1       1.845   8.140  19.297  0.00  0.00    +0.000 A 
ATOM     16  C   UNL     1       1.279   8.790  20.402  0.00  0.00    +0.000 A 
ATOM     17  C   UNL     1       0.797  10.095  20.286  0.00  0.00    +0.000 A 
ATOM     18  C   UNL     1       0.859  10.742  19.055  0.00  0.00    +0.000 A 
ATOM     19 CL   UNL     1       0.202  12.324  18.890  0.00  0.00    +0.000 Cl
ATOM     20  C   UNL     1       1.440  10.110  17.954  0.00  0.00    +0.000 A 
ATOM     21  C   UNL     1       1.965   8.817  18.082  0.00  0.00    +0.000 A 
ENDBRANCH  13  15
ENDBRANCH   3  11
BRANCH   1  22
ATOM     22  N   UNL     1       5.159   2.959  19.428  0.00  0.00    +0.000 NA
ATOM     23  H   UNL     1       5.973   2.926  20.039  0.00  0.00    +0.000 HD
BRANCH  22  24
ATOM     24  C   UNL     1       4.020   2.489  20.231  0.00  0.00    +0.000 C 
BRANCH  24  25
ATOM     25  C   UNL     1       2.993   1.662  19.430  0.00  0.00    +0.000 C 
ATOM     26  C   UNL     1       1.593   2.281  19.416  0.00  0.00    +0.000 C 
ATOM     27  C   UNL     1       3.483   1.500  17.985  0.00  0.00    +0.000 C 
ENDBRANCH  24  25
ENDBRANCH  22  24
ENDBRANCH   1  22
TORSDOF 6
ENDMDL
MODEL 2
REMARK VINA RESULT:      -7.7      2.156      3.849
REMARK  Name = 
REMARK  9 active torsions:
REMARK  status: ('A' for Active; 'I' for Inactive)
REMARK    1  A    between atoms: C_1  and  C_2
REMARK    2  A    between atoms: C_5  and  S_6
REMARK    3  A    between atoms: S_6  and  N_19
REMARK    4  A    between atoms: N_8  and  C_9
REMARK    5  A    between atoms: N_11  and  C_12
REMARK    6  A    between atoms: N_19  and  C_20
REMARK    7  A    between atoms: C_20  and  C_21
REMARK    8  A    between atoms: C_21  and  C_22
REMARK    9  A    between atoms: C_21  and  C_23
REMARK                            x       y       z     vdW  Elec       q    Type
REMARK                         _______ _______ _______ _____ _____    ______ ____
ROOT
ATOM      1  S   UNL     1       4.957   4.443  17.913  0.00  0.00    +0.000 S 
ATOM      2  O   UNL     1       5.297   3.598  19.038  0.00  0.00    +0.000 OA
ATOM      3  N   UNL     1       3.536   4.882  17.540  0.00  0.00    +0.000 NA
ENDROOT
BRANCH   1   8
ATOM      4  C   UNL     1       8.858   9.130  18.112  0.00  0.00    +0.000 C 
ATOM      5  C   UNL     1       7.883   7.987  18.061  0.00  0.00    +0.000 A 
ATOM      6  C   UNL     1       8.101   6.843  18.836  0.00  0.00    +0.000 A 
ATOM      7  C   UNL     1       7.207   5.770  18.777  0.00  0.00    +0.000 A 
ATOM      8  C   UNL     1       6.079   5.835  17.951  0.00  0.00    +0.000 A 
ATOM      9  C   UNL     1       5.848   6.972  17.171  0.00  0.00    +0.000 A 
ATOM     10  C   UNL     1       6.757   8.041  17.225  0.00  0.00    +0.000 A 
ENDBRANCH   1   8
BRANCH   3  11
ATOM     11  C   UNL     1       2.800   5.609  18.465  0.00  0.00    +0.000 C 
ATOM     12  O   UNL     1       2.134   5.066  19.347  0.00  0.00    +0.000 OA
ATOM     13  N   UNL     1       2.861   6.971  18.310  0.00  0.00    +0.000 N 
ATOM     14  H   UNL     1       3.086   7.244  17.363  0.00  0.00    +0.000 HD
BRANCH  13  15
ATOM     15  C   UNL     1       2.114   7.830  19.143  0.00  0.00    +0.000 A 
ATOM     16  C   UNL     1       1.920   7.502  20.491  0.00  0.00    +0.000 A 
ATOM     17  C   UNL     1       1.113   8.299  21.305  0.00  0.00    +0.000 A 
ATOM     18  C   UNL     1       0.480   9.413  20.762  0.00  0.00    +0.000 A 
ATOM     19 CL   UNL     1      -0.572  10.358  21.744  0.00  0.00    +0.000 Cl
ATOM     20  C   UNL     1       0.685   9.760  19.426  0.00  0.00    +0.000 A 
ATOM     21  C   UNL     1       1.531   8.986  18.620  0.00  0.00    +0.000 A 
ENDBRANCH  13  15
ENDBRANCH   3  11
BRANCH   1  22
ATOM     22  N   UNL     1       5.450   3.458  16.616  0.00  0.00    +0.000 NA
ATOM     23  H   UNL     1       4.891   2.620  16.761  0.00  0.00    +0.000 HD
BRANCH  22  24
ATOM     24  C   UNL     1       5.162   3.916  15.249  0.00  0.00    +0.000 C 
BRANCH  24  25
ATOM     25  C   UNL     1       6.358   3.786  14.283  0.00  0.00    +0.000 C 
ATOM     26  C   UNL     1       5.942   3.549  12.830  0.00  0.00    +0.000 C 
ATOM     27  C   UNL     1       7.215   5.057  14.358  0.00  0.00    +0.000 C 
ENDBRANCH  24  25
ENDBRANCH  22  24
ENDBRANCH   1  22
TORSDOF 6
ENDMDL
MODEL 3
REMARK VINA RESULT:      -7.7      2.377      4.228
REMARK  Name = 
REMARK  9 active torsions:
REMARK  status: ('A' for Active; 'I' for Inactive)
REMARK    1  A    between atoms: C_1  and  C_2
REMARK    2  A    between atoms: C_5  and  S_6
REMARK    3  A    between atoms: S_6  and  N_19
REMARK    4  A    between atoms: N_8  and  C_9
REMARK    5  A    between atoms: N_11  and  C_12
REMARK    6  A    between atoms: N_19  and  C_20
REMARK    7  A    between atoms: C_20  and  C_21
REMARK    8  A    between atoms: C_21  and  C_22
REMARK    9  A    between atoms: C_21  and  C_23
REMARK                            x       y       z     vdW  Elec       q    Type
REMARK                         _______ _______ _______ _____ _____    ______ ____
ROOT
ATOM      1  S   UNL     1       5.830   4.792  17.532  0.00  0.00    +0.000 S 
ATOM      2  O   UNL     1       6.040   3.878  18.635  0.00  0.00    +0.000 OA
ATOM      3  N   UNL     1       4.462   5.160  16.944  0.00  0.00    +0.000 NA
ENDROOT
BRANCH   1   8
ATOM      4  C   UNL     1       9.219   9.710  18.779  0.00  0.00    +0.000 C 
ATOM      5  C   UNL     1       8.370   8.509  18.467  0.00  0.00    +0.000 A 
ATOM      6  C   UNL     1       8.494   7.343  19.231  0.00  0.00    +0.000 A 
ATOM      7  C   UNL     1       7.721   6.219  18.932  0.00  0.00    +0.000 A 
ATOM      8  C   UNL     1       6.805   6.252  17.874  0.00  0.00    +0.000 A 
ATOM      9  C   UNL     1       6.670   7.409  17.103  0.00  0.00    +0.000 A 
ATOM     10  C   UNL     1       7.459   8.532  17.399  0.00  0.00    +0.000 A 
ENDBRANCH   1   8
BRANCH   3  11
ATOM     11  C   UNL     1       3.518   5.749  17.773  0.00  0.00    +0.000 C 
ATOM     12  O   UNL     1       2.800   5.089  18.523  0.00  0.00    +0.000 OA
ATOM     13  N   UNL     1       3.439   7.116  17.678  0.00  0.00    +0.000 N 
ATOM     14  H   UNL     1       3.766   7.463  16.787  0.00  0.00    +0.000 HD
BRANCH  13  15
ATOM     15  C   UNL     1       2.481   7.840  18.419  0.00  0.00    +0.000 A 
ATOM     16  C   UNL     1       1.792   8.903  17.821  0.00  0.00    +0.000 A 
ATOM     17  C   UNL     1       0.903   9.680  18.567  0.00  0.00    +0.000 A 
ATOM     18  C   UNL     1       0.723   9.406  19.920  0.00  0.00    +0.000 A 
ATOM     19 CL   UNL     1      -0.318  10.405  20.859  0.00  0.00    +0.000 Cl
ATOM     20  C   UNL     1       1.388   8.336  20.518  0.00  0.00    +0.000 A 
ATOM     21  C   UNL     1       2.246   7.528  19.759  0.00  0.00    +0.000 A 
ENDBRANCH  13  15
ENDBRANCH   3  11
BRANCH   1  22
ATOM     22  N   UNL     1       6.622   3.962  16.276  0.00  0.00    +0.000 NA
ATOM     23  H   UNL     1       6.917   3.105  16.740  0.00  0.00    +0.000 HD
BRANCH  22  24
ATOM     24  C   UNL     1       5.828   3.549  15.109  0.00  0.00    +0.000 C 
BRANCH  24  25
ATOM     25  C   UNL     1       6.141   4.351  13.829  0.00  0.00    +0.000 C 
ATOM     26  C   UNL     1       7.522   5.010  13.846  0.00  0.00    +0.000 C 
ATOM     27  C   UNL     1       6.044   3.424  12.610  0.00  0.00    +0.000 C 
ENDBRANCH  24  25
ENDBRANCH  22  24
ENDBRANCH   1  22
TORSDOF 6
ENDMDL
MODEL 4
REMARK VINA RESULT:      -7.6      0.435      1.239
REMARK  Name = 
REMARK  9 active torsions:
REMARK  status: ('A' for Active; 'I' for Inactive)
REMARK    1  A    between atoms: C_1  and  C_2
REMARK    2  A    between atoms: C_5  and  S_6
REMARK    3  A    between atoms: S_6  and  N_19
REMARK    4  A    between atoms: N_8  and  C_9
REMARK    5  A    between atoms: N_11  and  C_12
REMARK    6  A    between atoms: N_19  and  C_20
REMARK    7  A    between atoms: C_20  and  C_21
REMARK    8  A    between atoms: C_21  and  C_22
REMARK    9  A    between atoms: C_21  and  C_23
REMARK                            x       y       z     vdW  Elec       q    Type
REMARK                         _______ _______ _______ _____ _____    ______ ____
ROOT
ATOM      1  S   UNL     1       4.969   4.550  18.795  0.00  0.00    +0.000 S 
ATOM      2  O   UNL     1       6.030   4.989  19.677  0.00  0.00    +0.000 OA
ATOM      3  N   UNL     1       3.525   5.063  18.834  0.00  0.00    +0.000 NA
ENDROOT
BRANCH   1   8
ATOM      4  C   UNL     1       7.323   4.689  13.167  0.00  0.00    +0.000 C 
ATOM      5  C   UNL     1       6.727   4.661  14.548  0.00  0.00    +0.000 A 
ATOM      6  C   UNL     1       7.518   4.965  15.661  0.00  0.00    +0.000 A 
ATOM      7  C   UNL     1       6.974   4.921  16.947  0.00  0.00    +0.000 A 
ATOM      8  C   UNL     1       5.627   4.585  17.132  0.00  0.00    +0.000 A 
ATOM      9  C   UNL     1       4.825   4.279  16.030  0.00  0.00    +0.000 A 
ATOM     10  C   UNL     1       5.382   4.311  14.741  0.00  0.00    +0.000 A 
ENDBRANCH   1   8
BRANCH   3  11
ATOM     11  C   UNL     1       3.294   6.417  18.638  0.00  0.00    +0.000 C 
ATOM     12  O   UNL     1       4.048   7.122  17.968  0.00  0.00    +0.000 OA
ATOM     13  N   UNL     1       2.173   6.908  19.260  0.00  0.00    +0.000 N 
ATOM     14  H   UNL     1       1.900   6.354  20.060  0.00  0.00    +0.000 HD
BRANCH  13  15
ATOM     15  C   UNL     1       1.850   8.279  19.196  0.00  0.00    +0.000 A 
ATOM     16  C   UNL     1       1.251   8.909  20.294  0.00  0.00    +0.000 A 
ATOM     17  C   UNL     1       0.850  10.244  20.214  0.00  0.00    +0.000 A 
ATOM     18  C   UNL     1       1.028  10.943  19.023  0.00  0.00    +0.000 A 
ATOM     19 CL   UNL     1       0.471  12.567  18.896  0.00  0.00    +0.000 Cl
ATOM     20  C   UNL     1       1.644  10.330  17.931  0.00  0.00    +0.000 A 
ATOM     21  C   UNL     1       2.087   9.004  18.026  0.00  0.00    +0.000 A 
ENDBRANCH  13  15
ENDBRANCH   3  11
BRANCH   1  22
ATOM     22  N   UNL     1       4.849   2.910  19.234  0.00  0.00    +0.000 NA
ATOM     23  H   UNL     1       4.695   2.970  20.239  0.00  0.00    +0.000 HD
BRANCH  22  24
ATOM     24  C   UNL     1       3.730   2.127  18.690  0.00  0.00    +0.000 C 
BRANCH  24  25
ATOM     25  C   UNL     1       2.584   1.897  19.697  0.00  0.00    +0.000 C 
ATOM     26  C   UNL     1       2.798   2.609  21.034  0.00  0.00    +0.000 C 
ATOM     27  C   UNL     1       1.261   2.371  19.082  0.00  0.00    +0.000 C 
ENDBRANCH  24  25
ENDBRANCH  22  24
ENDBRANCH   1  22
TORSDOF 6
ENDMDL
MODEL 5
REMARK VINA RESULT:      -7.6      2.186      3.913
REMARK  Name = 
REMARK  9 active torsions:
REMARK  status: ('A' for Active; 'I' for Inactive)
REMARK    1  A    between atoms: C_1  and  C_2
REMARK    2  A    between atoms: C_5  and  S_6
REMARK    3  A    between atoms: S_6  and  N_19
REMARK    4  A    between atoms: N_8  and  C_9
REMARK    5  A    between atoms: N_11  and  C_12
REMARK    6  A    between atoms: N_19  and  C_20
REMARK    7  A    between atoms: C_20  and  C_21
REMARK    8  A    between atoms: C_21  and  C_22
REMARK    9  A    between atoms: C_21  and  C_23
REMARK                            x       y       z     vdW  Elec       q    Type
REMARK                         _______ _______ _______ _____ _____    ______ ____
ROOT
ATOM      1  S   UNL     1       5.277   4.449  17.693  0.00  0.00    +0.000 S 
ATOM      2  O   UNL     1       5.489   3.608  18.852  0.00  0.00    +0.000 OA
ATOM      3  N   UNL     1       3.906   4.851  17.138  0.00  0.00    +0.000 NA
ENDROOT
BRANCH   1   8
ATOM      4  C   UNL     1       8.846   9.366  18.262  0.00  0.00    +0.000 C 
ATOM      5  C   UNL     1       7.981   8.143  18.124  0.00  0.00    +0.000 A 
ATOM      6  C   UNL     1       6.904   8.142  17.232  0.00  0.00    +0.000 A 
ATOM      7  C   UNL     1       6.086   7.015  17.115  0.00  0.00    +0.000 A 
ATOM      8  C   UNL     1       6.344   5.872  17.881  0.00  0.00    +0.000 A 
ATOM      9  C   UNL     1       7.417   5.859  18.775  0.00  0.00    +0.000 A 
ATOM     10  C   UNL     1       8.227   6.999  18.898  0.00  0.00    +0.000 A 
ENDBRANCH   1   8
BRANCH   3  11
ATOM     11  C   UNL     1       3.034   5.552  17.959  0.00  0.00    +0.000 C 
ATOM     12  O   UNL     1       2.214   4.986  18.680  0.00  0.00    +0.000 OA
ATOM     13  N   UNL     1       3.150   6.918  17.891  0.00  0.00    +0.000 N 
ATOM     14  H   UNL     1       3.543   7.231  17.015  0.00  0.00    +0.000 HD
BRANCH  13  15
ATOM     15  C   UNL     1       2.286   7.756  18.627  0.00  0.00    +0.000 A 
ATOM     16  C   UNL     1       1.668   8.846  18.001  0.00  0.00    +0.000 A 
ATOM     17  C   UNL     1       0.878   9.731  18.737  0.00  0.00    +0.000 A 
ATOM     18  C   UNL     1       0.726   9.537  20.107  0.00  0.00    +0.000 A 
ATOM     19 CL   UNL     1      -0.190  10.665  21.031  0.00  0.00    +0.000 Cl
ATOM     20  C   UNL     1       1.320   8.441  20.735  0.00  0.00    +0.000 A 
ATOM     21  C   UNL     1       2.076   7.528  19.988  0.00  0.00    +0.000 A 
ENDBRANCH  13  15
ENDBRANCH   3  11
BRANCH   1  22
ATOM     22  N   UNL     1       5.964   3.486  16.470  0.00  0.00    +0.000 NA
ATOM     23  H   UNL     1       5.162   3.296  15.872  0.00  0.00    +0.000 HD
BRANCH  22  24
ATOM     24  C   UNL     1       6.991   4.089  15.607  0.00  0.00    +0.000 C 
BRANCH  24  25
ATOM     25  C   UNL     1       6.670   3.997  14.101  0.00  0.00    +0.000 C 
ATOM     26  C   UNL     1       5.187   4.205  13.783  0.00  0.00    +0.000 C 
ATOM     27  C   UNL     1       7.497   5.040  13.338  0.00  0.00    +0.000 C 
ENDBRANCH  24  25
ENDBRANCH  22  24
ENDBRANCH   1  22
TORSDOF 6
ENDMDL
MODEL 6
REMARK VINA RESULT:      -7.6      4.199      6.539
REMARK  Name = 
REMARK  9 active torsions:
REMARK  status: ('A' for Active; 'I' for Inactive)
REMARK    1  A    between atoms: C_1  and  C_2
REMARK    2  A    between atoms: C_5  and  S_6
REMARK    3  A    between atoms: S_6  and  N_19
REMARK    4  A    between atoms: N_8  and  C_9
REMARK    5  A    between atoms: N_11  and  C_12
REMARK    6  A    between atoms: N_19  and  C_20
REMARK    7  A    between atoms: C_20  and  C_21
REMARK    8  A    between atoms: C_21  and  C_22
REMARK    9  A    between atoms: C_21  and  C_23
REMARK                            x       y       z     vdW  Elec       q    Type
REMARK                         _______ _______ _______ _____ _____    ______ ____
ROOT
ATOM      1  S   UNL     1       5.823   6.054  16.455  0.00  0.00    +0.000 S 
ATOM      2  O   UNL     1       5.421   7.109  15.550  0.00  0.00    +0.000 OA
ATOM      3  N   UNL     1       7.227   5.891  17.048  0.00  0.00    +0.000 NA
ENDROOT
BRANCH   1   8
ATOM      4  C   UNL     1       1.591   5.608  20.829  0.00  0.00    +0.000 C 
ATOM      5  C   UNL     1       2.622   5.725  19.740  0.00  0.00    +0.000 A 
ATOM      6  C   UNL     1       3.614   4.748  19.603  0.00  0.00    +0.000 A 
ATOM      7  C   UNL     1       4.584   4.863  18.605  0.00  0.00    +0.000 A 
ATOM      8  C   UNL     1       4.566   5.951  17.724  0.00  0.00    +0.000 A 
ATOM      9  C   UNL     1       3.581   6.934  17.848  0.00  0.00    +0.000 A 
ATOM     10  C   UNL     1       2.616   6.820  18.862  0.00  0.00    +0.000 A 
ENDBRANCH   1   8
BRANCH   3  11
ATOM     11  C   UNL     1       7.747   6.919  17.821  0.00  0.00    +0.000 C 
ATOM     12  O   UNL     1       8.111   6.748  18.984  0.00  0.00    +0.000 OA
ATOM     13  N   UNL     1       7.809   8.139  17.193  0.00  0.00    +0.000 N 
ATOM     14  H   UNL     1       7.139   8.222  16.442  0.00  0.00    +0.000 HD
BRANCH  13  15
ATOM     15  C   UNL     1       8.260   9.285  17.880  0.00  0.00    +0.000 A 
ATOM     16  C   UNL     1       8.032  10.559  17.342  0.00  0.00    +0.000 A 
ATOM     17  C   UNL     1       8.545  11.695  17.969  0.00  0.00    +0.000 A 
ATOM     18  C   UNL     1       9.310  11.555  19.123  0.00  0.00    +0.000 A 
ATOM     19 CL   UNL     1      10.005  12.948  19.860  0.00  0.00    +0.000 Cl
ATOM     20  C   UNL     1       9.524  10.293  19.679  0.00  0.00    +0.000 A 
ATOM     21  C   UNL     1       8.971   9.156  19.075  0.00  0.00    +0.000 A 
ENDBRANCH  13  15
ENDBRANCH   3  11
BRANCH   1  22
ATOM     22  N   UNL     1       5.621   4.688  15.461  0.00  0.00    +0.000 NA
ATOM     23  H   UNL     1       4.926   5.013  14.792  0.00  0.00    +0.000 HD
BRANCH  22  24
ATOM     24  C   UNL     1       6.774   4.229  14.671  0.00  0.00    +0.000 C 
BRANCH  24  25
ATOM     25  C   UNL     1       6.743   4.691  13.200  0.00  0.00    +0.000 C 
ATOM     26  C   UNL     1       8.049   5.343  12.740  0.00  0.00    +0.000 C 
ATOM     27  C   UNL     1       6.437   3.491  12.294  0.00  0.00    +0.000 C 
ENDBRANCH  24  25
ENDBRANCH  22  24
ENDBRANCH   1  22
TORSDOF 6
ENDMDL
MODEL 7
REMARK VINA RESULT:      -7.5      4.248      6.409
REMARK  Name = 
REMARK  9 active torsions:
REMARK  status: ('A' for Active; 'I' for Inactive)
REMARK    1  A    between atoms: C_1  and  C_2
REMARK    2  A    between atoms: C_5  and  S_6
REMARK    3  A    between atoms: S_6  and  N_19
REMARK    4  A    between atoms: N_8  and  C_9
REMARK    5  A    between atoms: N_11  and  C_12
REMARK    6  A    between atoms: N_19  and  C_20
REMARK    7  A    between atoms: C_20  and  C_21
REMARK    8  A    between atoms: C_21  and  C_22
REMARK    9  A    between atoms: C_21  and  C_23
REMARK                            x       y       z     vdW  Elec       q    Type
REMARK                         _______ _______ _______ _____ _____    ______ ____
ROOT
ATOM      1  S   UNL     1       5.843   6.073  16.370  0.00  0.00    +0.000 S 
ATOM      2  O   UNL     1       5.338   7.160  15.557  0.00  0.00    +0.000 OA
ATOM      3  N   UNL     1       7.277   5.964  16.899  0.00  0.00    +0.000 NA
ENDROOT
BRANCH   1   8
ATOM      4  C   UNL     1       1.694   5.225  20.763  0.00  0.00    +0.000 C 
ATOM      5  C   UNL     1       2.730   5.428  19.692  0.00  0.00    +0.000 A 
ATOM      6  C   UNL     1       2.601   6.483  18.782  0.00  0.00    +0.000 A 
ATOM      7  C   UNL     1       3.551   6.665  17.773  0.00  0.00    +0.000 A 
ATOM      8  C   UNL     1       4.647   5.799  17.671  0.00  0.00    +0.000 A 
ATOM      9  C   UNL     1       4.788   4.741  18.573  0.00  0.00    +0.000 A 
ATOM     10  C   UNL     1       3.823   4.556  19.576  0.00  0.00    +0.000 A 
ENDBRANCH   1   8
BRANCH   3  11
ATOM     11  C   UNL     1       7.760   6.969  17.725  0.00  0.00    +0.000 C 
ATOM     12  O   UNL     1       8.062   6.765  18.900  0.00  0.00    +0.000 OA
ATOM     13  N   UNL     1       7.859   8.204  17.134  0.00  0.00    +0.000 N 
ATOM     14  H   UNL     1       7.230   8.311  16.351  0.00  0.00    +0.000 HD
BRANCH  13  15
ATOM     15  C   UNL     1       8.279   9.329  17.873  0.00  0.00    +0.000 A 
ATOM     16  C   UNL     1       8.058  10.619  17.371  0.00  0.00    +0.000 A 
ATOM     17  C   UNL     1       8.542  11.737  18.053  0.00  0.00    +0.000 A 
ATOM     18  C   UNL     1       9.270  11.563  19.225  0.00  0.00    +0.000 A 
ATOM     19 CL   UNL     1       9.929  12.935  20.031  0.00  0.00    +0.000 Cl
ATOM     20  C   UNL     1       9.477  10.284  19.745  0.00  0.00    +0.000 A 
ATOM     21  C   UNL     1       8.952   9.164  19.085  0.00  0.00    +0.000 A 
ENDBRANCH  13  15
ENDBRANCH   3  11
BRANCH   1  22
ATOM     22  N   UNL     1       5.689   4.769  15.288  0.00  0.00    +0.000 NA
ATOM     23  H   UNL     1       4.778   4.946  14.869  0.00  0.00    +0.000 HD
BRANCH  22  24
ATOM     24  C   UNL     1       6.645   4.676  14.174  0.00  0.00    +0.000 C 
BRANCH  24  25
ATOM     25  C   UNL     1       6.270   3.615  13.119  0.00  0.00    +0.000 C 
ATOM     26  C   UNL     1       4.802   3.677  12.690  0.00  0.00    +0.000 C 
ATOM     27  C   UNL     1       7.161   3.787  11.882  0.00  0.00    +0.000 C 
ENDBRANCH  24  25
ENDBRANCH  22  24
ENDBRANCH   1  22
TORSDOF 6
ENDMDL
MODEL 8
REMARK VINA RESULT:      -7.4      0.298      1.562
REMARK  Name = 
REMARK  9 active torsions:
REMARK  status: ('A' for Active; 'I' for Inactive)
REMARK    1  A    between atoms: C_1  and  C_2
REMARK    2  A    between atoms: C_5  and  S_6
REMARK    3  A    between atoms: S_6  and  N_19
REMARK    4  A    between atoms: N_8  and  C_9
REMARK    5  A    between atoms: N_11  and  C_12
REMARK    6  A    between atoms: N_19  and  C_20
REMARK    7  A    between atoms: C_20  and  C_21
REMARK    8  A    between atoms: C_21  and  C_22
REMARK    9  A    between atoms: C_21  and  C_23
REMARK                            x       y       z     vdW  Elec       q    Type
REMARK                         _______ _______ _______ _____ _____    ______ ____
ROOT
ATOM      1  S   UNL     1       5.237   4.716  18.959  0.00  0.00    +0.000 S 
ATOM      2  O   UNL     1       6.348   5.320  19.663  0.00  0.00    +0.000 OA
ATOM      3  N   UNL     1       3.769   5.130  19.112  0.00  0.00    +0.000 NA
ENDROOT
BRANCH   1   8
ATOM      4  C   UNL     1       6.954   4.392  13.112  0.00  0.00    +0.000 C 
ATOM      5  C   UNL     1       6.514   4.477  14.548  0.00  0.00    +0.000 A 
ATOM      6  C   UNL     1       7.414   4.892  15.535  0.00  0.00    +0.000 A 
ATOM      7  C   UNL     1       7.016   4.954  16.873  0.00  0.00    +0.000 A 
ATOM      8  C   UNL     1       5.707   4.614  17.236  0.00  0.00    +0.000 A 
ATOM      9  C   UNL     1       4.797   4.197  16.261  0.00  0.00    +0.000 A 
ATOM     10  C   UNL     1       5.208   4.124  14.920  0.00  0.00    +0.000 A 
ENDBRANCH   1   8
BRANCH   3  11
ATOM     11  C   UNL     1       3.410   6.435  18.808  0.00  0.00    +0.000 C 
ATOM     12  O   UNL     1       4.066   7.134  18.036  0.00  0.00    +0.000 OA
ATOM     13  N   UNL     1       2.281   6.887  19.446  0.00  0.00    +0.000 N 
ATOM     14  H   UNL     1       2.097   6.391  20.306  0.00  0.00    +0.000 HD
BRANCH  13  15
ATOM     15  C   UNL     1       1.836   8.215  19.276  0.00  0.00    +0.000 A 
ATOM     16  C   UNL     1       2.082   8.886  18.071  0.00  0.00    +0.000 A 
ATOM     17  C   UNL     1       1.721  10.227  17.920  0.00  0.00    +0.000 A 
ATOM     18  C   UNL     1       1.134  10.902  18.986  0.00  0.00    +0.000 A 
ATOM     19 CL   UNL     1       0.752  12.574  18.828  0.00  0.00    +0.000 Cl
ATOM     20  C   UNL     1       0.865  10.235  20.182  0.00  0.00    +0.000 A 
ATOM     21  C   UNL     1       1.186   8.878  20.318  0.00  0.00    +0.000 A 
ENDBRANCH  13  15
ENDBRANCH   3  11
BRANCH   1  22
ATOM     22  N   UNL     1       5.297   3.130  19.573  0.00  0.00    +0.000 NA
ATOM     23  H   UNL     1       5.941   3.229  20.355  0.00  0.00    +0.000 HD
BRANCH  22  24
ATOM     24  C   UNL     1       4.062   2.553  20.124  0.00  0.00    +0.000 C 
BRANCH  24  25
ATOM     25  C   UNL     1       2.883   2.542  19.129  0.00  0.00    +0.000 C 
ATOM     26  C   UNL     1       3.055   1.530  17.994  0.00  0.00    +0.000 C 
ATOM     27  C   UNL     1       1.582   2.232  19.882  0.00  0.00    +0.000 C 
ENDBRANCH  24  25
ENDBRANCH  22  24
ENDBRANCH   1  22
TORSDOF 6
ENDMDL
MODEL 9
REMARK VINA RESULT:      -7.3      3.190      6.517
REMARK  Name = 
REMARK  9 active torsions:
REMARK  status: ('A' for Active; 'I' for Inactive)
REMARK    1  A    between atoms: C_1  and  C_2
REMARK    2  A    between atoms: C_5  and  S_6
REMARK    3  A    between atoms: S_6  and  N_19
REMARK    4  A    between atoms: N_8  and  C_9
REMARK    5  A    between atoms: N_11  and  C_12
REMARK    6  A    between atoms: N_19  and  C_20
REMARK    7  A    between atoms: C_20  and  C_21
REMARK    8  A    between atoms: C_21  and  C_22
REMARK    9  A    between atoms: C_21  and  C_23
REMARK                            x       y       z     vdW  Elec       q    Type
REMARK                         _______ _______ _______ _____ _____    ______ ____
ROOT
ATOM      1  S   UNL     1       4.480   3.972  18.340  0.00  0.00    +0.000 S 
ATOM      2  O   UNL     1       3.655   3.106  17.524  0.00  0.00    +0.000 OA
ATOM      3  N   UNL     1       6.010   4.051  18.268  0.00  0.00    +0.000 NA
ENDROOT
BRANCH   1   8
ATOM      4  C   UNL     1       1.917   9.509  18.252  0.00  0.00    +0.000 C 
ATOM      5  C   UNL     1       2.547   8.143  18.256  0.00  0.00    +0.000 A 
ATOM      6  C   UNL     1       2.299   7.258  19.310  0.00  0.00    +0.000 A 
ATOM      7  C   UNL     1       2.898   5.995  19.327  0.00  0.00    +0.000 A 
ATOM      8  C   UNL     1       3.742   5.600  18.282  0.00  0.00    +0.000 A 
ATOM      9  C   UNL     1       3.998   6.474  17.222  0.00  0.00    +0.000 A 
ATOM     10  C   UNL     1       3.405   7.746  17.218  0.00  0.00    +0.000 A 
ENDBRANCH   1   8
BRANCH   3  11
ATOM     11  C   UNL     1       6.602   4.413  17.067  0.00  0.00    +0.000 C 
ATOM     12  O   UNL     1       7.536   5.212  17.010  0.00  0.00    +0.000 OA
ATOM     13  N   UNL     1       6.057   3.823  15.954  0.00  0.00    +0.000 N 
ATOM     14  H   UNL     1       5.100   3.536  16.096  0.00  0.00    +0.000 HD
BRANCH  13  15
ATOM     15  C   UNL     1       6.523   4.145  14.662  0.00  0.00    +0.000 A 
ATOM     16  C   UNL     1       7.454   5.179  14.492  0.00  0.00    +0.000 A 
ATOM     17  C   UNL     1       7.859   5.564  13.212  0.00  0.00    +0.000 A 
ATOM     18  C   UNL     1       7.313   4.930  12.101  0.00  0.00    +0.000 A 
ATOM     19 CL   UNL     1       7.756   5.449  10.520  0.00  0.00    +0.000 Cl
ATOM     20  C   UNL     1       6.402   3.884  12.261  0.00  0.00    +0.000 A 
ATOM     21  C   UNL     1       6.029   3.467  13.546  0.00  0.00    +0.000 A 
ENDBRANCH  13  15
ENDBRANCH   3  11
BRANCH   1  22
ATOM     22  N   UNL     1       4.159   3.349  19.890  0.00  0.00    +0.000 NA
ATOM     23  H   UNL     1       3.663   4.121  20.331  0.00  0.00    +0.000 HD
BRANCH  22  24
ATOM     24  C   UNL     1       3.279   2.176  19.997  0.00  0.00    +0.000 C 
BRANCH  24  25
ATOM     25  C   UNL     1       1.926   2.473  20.674  0.00  0.00    +0.000 C 
ATOM     26  C   UNL     1       2.023   3.502  21.802  0.00  0.00    +0.000 C 
ATOM     27  C   UNL     1       0.929   2.977  19.622  0.00  0.00    +0.000 C 
ENDBRANCH  24  25
ENDBRANCH  22  24
ENDBRANCH   1  22
TORSDOF 6
ENDMDL
