MODEL 1
REMARK VINA RESULT:      -7.4      0.000      0.000
REMARK  Name = 
REMARK  15 active torsions:
REMARK  status: ('A' for Active; 'I' for Inactive)
REMARK    1  A    between atoms: C_1  and  C_2
REMARK    2  A    between atoms: C_2  and  O_3
REMARK    3  A    between atoms: O_3  and  C_4
REMARK    4  A    between atoms: C_4  and  C_6
REMARK    5  A    between atoms: C_7  and  N_8
REMARK    6  A    between atoms: C_9  and  C_11
REMARK    7  A    between atoms: C_11  and  O_12
REMARK    8  A    between atoms: O_12  and  C_13
REMARK    9  A    between atoms: C_13  and  C_15
REMARK   10  A    between atoms: C_15  and  C_16
REMARK   11  A    between atoms: C_21  and  N_22
REMARK   12  A    between atoms: C_26  and  C_27
REMARK   13  A    between atoms: N_29  and  C_30
REMARK   14  A    between atoms: N_29  and  C_31
REMARK   15  A    between atoms: C_32  and  C_33
REMARK                            x       y       z     vdW  Elec       q    Type
REMARK                         _______ _______ _______ _____ _____    ______ ____
ROOT
ATOM      1  N   UNL     1       0.676   9.340  18.906  0.00  0.00    +0.000 N 
ATOM      2  C   UNL     1       1.750   9.616  18.081  0.00  0.00    +0.000 C 
ATOM      3  O   UNL     1       1.943  10.683  17.502  0.00  0.00    +0.000 OA
ATOM      4  H   UNL     1       0.822   8.589  19.574  0.00  0.00    +0.000 HD
ENDROOT
BRANCH   1   6
ATOM      5  C   UNL     1      -1.436  10.754  18.859  0.00  0.00    +0.000 A 
ATOM      6  C   UNL     1      -0.190  10.348  19.292  0.00  0.00    +0.000 A 
ATOM      7  S   UNL     1       0.362  11.211  20.640  0.00  0.00    +0.000 S 
ATOM      8  C   UNL     1      -0.948  12.306  20.629  0.00  0.00    +0.000 A 
ATOM      9  C   UNL     1      -1.870  11.925  19.645  0.00  0.00    +0.000 A 
ATOM     10  C   UNL     1      -3.218  12.568  19.432  0.00  0.00    +0.000 C 
BRANCH   8  11
ATOM     11  C   UNL     1      -1.148  13.325  21.675  0.00  0.00    +0.000 C 
ATOM     12  O   UNL     1      -0.713  14.467  21.477  0.00  0.00    +0.000 OA
ATOM     13  N   UNL     1      -1.778  13.081  22.916  0.00  0.00    +0.000 N 
ATOM     14  C   UNL     1      -2.475  11.890  23.379  0.00  0.00    +0.000 C 
ATOM     15  C   UNL     1      -1.776  14.165  23.904  0.00  0.00    +0.000 C 
ENDBRANCH   8  11
BRANCH   5  16
ATOM     16  C   UNL     1      -2.277  10.074  17.855  0.00  0.00    +0.000 C 
ATOM     17  O   UNL     1      -3.201   9.327  18.160  0.00  0.00    +0.000 OA
BRANCH  16  18
ATOM     18  O   UNL     1      -1.873  10.267  16.565  0.00  0.00    +0.000 OA
BRANCH  18  20
ATOM     19  C   UNL     1      -3.121  10.046  14.515  0.00  0.00    +0.000 C 
ATOM     20  C   UNL     1      -2.793  10.946  15.693  0.00  0.00    +0.000 C 
ENDBRANCH  18  20
ENDBRANCH  16  18
ENDBRANCH   5  16
ENDBRANCH   1   6
BRANCH   2  21
ATOM     21  C   UNL     1       2.718   8.424  17.896  0.00  0.00    +0.000 C 
BRANCH  21  22
ATOM     22  O   UNL     1       2.308   7.131  18.354  0.00  0.00    +0.000 OA
BRANCH  22  23
ATOM     23  C   UNL     1       2.888   6.056  17.753  0.00  0.00    +0.000 C 
ATOM     24  O   UNL     1       3.971   6.067  17.192  0.00  0.00    +0.000 OA
BRANCH  23  25
ATOM     25  C   UNL     1       1.988   4.824  17.876  0.00  0.00    +0.000 C 
BRANCH  25  26
ATOM     26  C   UNL     1       2.185   4.026  19.159  0.00  0.00    +0.000 A 
ATOM     27  C   UNL     1       1.154   4.072  20.121  0.00  0.00    +0.000 A 
ATOM     28  C   UNL     1       1.243   3.360  21.323  0.00  0.00    +0.000 A 
ATOM     29  C   UNL     1       2.337   2.543  21.577  0.00  0.00    +0.000 A 
ATOM     30  C   UNL     1       3.376   2.485  20.658  0.00  0.00    +0.000 A 
ATOM     31  C   UNL     1       3.330   3.259  19.483  0.00  0.00    +0.000 A 
BRANCH  31  32
ATOM     32  N   UNL     1       4.569   3.294  18.686  0.00  0.00    +0.000 N 
ATOM     33  O   UNL     1       4.553   2.826  17.543  0.00  0.00    +0.000 OA
ATOM     34  O   UNL     1       5.580   3.780  19.208  0.00  0.00    +0.000 OA
ENDBRANCH  31  32
ENDBRANCH  25  26
ENDBRANCH  23  25
ENDBRANCH  22  23
ENDBRANCH  21  22
ENDBRANCH   2  21
TORSDOF 11
ENDMDL
MODEL 2
REMARK VINA RESULT:      -7.2      1.072      1.227
REMARK  Name = 
REMARK  15 active torsions:
REMARK  status: ('A' for Active; 'I' for Inactive)
REMARK    1  A    between atoms: C_1  and  C_2
REMARK    2  A    between atoms: C_2  and  O_3
REMARK    3  A    between atoms: O_3  and  C_4
REMARK    4  A    between atoms: C_4  and  C_6
REMARK    5  A    between atoms: C_7  and  N_8
REMARK    6  A    between atoms: C_9  and  C_11
REMARK    7  A    between atoms: C_11  and  O_12
REMARK    8  A    between atoms: O_12  and  C_13
REMARK    9  A    between atoms: C_13  and  C_15
REMARK   10  A    between atoms: C_15  and  C_16
REMARK   11  A    between atoms: C_21  and  N_22
REMARK   12  A    between atoms: C_26  and  C_27
REMARK   13  A    between atoms: N_29  and  C_30
REMARK   14  A    between atoms: N_29  and  C_31
REMARK   15  A    between atoms: C_32  and  C_33
REMARK                            x       y       z     vdW  Elec       q    Type
REMARK                         _______ _______ _______ _____ _____    ______ ____
ROOT
ATOM      1  N   UNL     1       0.600  11.012  18.426  0.00  0.00    +0.000 N 
ATOM      2  C   UNL     1       1.015   9.764  18.854  0.00  0.00    +0.000 C 
ATOM      3  O   UNL     1       0.572   9.169  19.835  0.00  0.00    +0.000 OA
ATOM      4  H   UNL     1       0.778  11.217  17.447  0.00  0.00    +0.000 HD
ENDROOT
BRANCH   1   6
ATOM      5  C   UNL     1      -1.861  11.573  18.716  0.00  0.00    +0.000 A 
ATOM      6  C   UNL     1      -0.510  11.616  18.990  0.00  0.00    +0.000 A 
ATOM      7  S   UNL     1      -0.135  12.533  20.363  0.00  0.00    +0.000 S 
ATOM      8  C   UNL     1      -1.736  13.084  20.583  0.00  0.00    +0.000 A 
ATOM      9  C   UNL     1      -2.579  12.460  19.653  0.00  0.00    +0.000 A 
ATOM     10  C   UNL     1      -4.082  12.588  19.630  0.00  0.00    +0.000 C 
BRANCH   8  11
ATOM     11  C   UNL     1      -2.152  13.896  21.740  0.00  0.00    +0.000 C 
ATOM     12  O   UNL     1      -2.166  15.128  21.622  0.00  0.00    +0.000 OA
ATOM     13  N   UNL     1      -2.505  13.365  23.001  0.00  0.00    +0.000 N 
ATOM     14  C   UNL     1      -2.686  11.977  23.399  0.00  0.00    +0.000 C 
ATOM     15  C   UNL     1      -2.763  14.312  24.089  0.00  0.00    +0.000 C 
ENDBRANCH   8  11
BRANCH   5  16
ATOM     16  C   UNL     1      -2.527  10.702  17.729  0.00  0.00    +0.000 C 
ATOM     17  O   UNL     1      -2.935   9.578  18.005  0.00  0.00    +0.000 OA
BRANCH  16  18
ATOM     18  O   UNL     1      -2.556  11.212  16.463  0.00  0.00    +0.000 OA
BRANCH  18  20
ATOM     19  C   UNL     1      -3.277  10.102  14.448  0.00  0.00    +0.000 C 
ATOM     20  C   UNL     1      -3.711  10.900  15.666  0.00  0.00    +0.000 C 
ENDBRANCH  18  20
ENDBRANCH  16  18
ENDBRANCH   5  16
ENDBRANCH   1   6
BRANCH   2  21
ATOM     21  C   UNL     1       2.151   9.157  18.000  0.00  0.00    +0.000 C 
BRANCH  21  22
ATOM     22  O   UNL     1       2.035   7.795  17.573  0.00  0.00    +0.000 OA
BRANCH  22  23
ATOM     23  C   UNL     1       2.606   6.851  18.370  0.00  0.00    +0.000 C 
ATOM     24  O   UNL     1       3.450   7.072  19.221  0.00  0.00    +0.000 OA
BRANCH  23  25
ATOM     25  C   UNL     1       2.042   5.466  18.046  0.00  0.00    +0.000 C 
BRANCH  25  26
ATOM     26  C   UNL     1       2.241   4.432  19.148  0.00  0.00    +0.000 A 
ATOM     27  C   UNL     1       1.243   4.336  20.141  0.00  0.00    +0.000 A 
ATOM     28  C   UNL     1       1.335   3.406  21.183  0.00  0.00    +0.000 A 
ATOM     29  C   UNL     1       2.398   2.513  21.236  0.00  0.00    +0.000 A 
ATOM     30  C   UNL     1       3.404   2.589  20.284  0.00  0.00    +0.000 A 
ATOM     31  C   UNL     1       3.358   3.573  19.277  0.00  0.00    +0.000 A 
BRANCH  31  32
ATOM     32  N   UNL     1       4.573   3.709  18.454  0.00  0.00    +0.000 N 
ATOM     33  O   UNL     1       5.518   4.372  18.896  0.00  0.00    +0.000 OA
ATOM     34  O   UNL     1       4.584   3.163  17.344  0.00  0.00    +0.000 OA
ENDBRANCH  31  32
ENDBRANCH  25  26
ENDBRANCH  23  25
ENDBRANCH  22  23
ENDBRANCH  21  22
ENDBRANCH   2  21
TORSDOF 11
ENDMDL
MODEL 3
REMARK VINA RESULT:      -7.1      2.020      2.583
REMARK  Name = 
REMARK  15 active torsions:
REMARK  status: ('A' for Active; 'I' for Inactive)
REMARK    1  A    between atoms: C_1  and  C_2
REMARK    2  A    between atoms: C_2  and  O_3
REMARK    3  A    between atoms: O_3  and  C_4
REMARK    4  A    between atoms: C_4  and  C_6
REMARK    5  A    between atoms: C_7  and  N_8
REMARK    6  A    between atoms: C_9  and  C_11
REMARK    7  A    between atoms: C_11  and  O_12
REMARK    8  A    between atoms: O_12  and  C_13
REMARK    9  A    between atoms: C_13  and  C_15
REMARK   10  A    between atoms: C_15  and  C_16
REMARK   11  A    between atoms: C_21  and  N_22
REMARK   12  A    between atoms: C_26  and  C_27
REMARK   13  A    between atoms: N_29  and  C_30
REMARK   14  A    between atoms: N_29  and  C_31
REMARK   15  A    between atoms: C_32  and  C_33
REMARK                            x       y       z     vdW  Elec       q    Type
REMARK                         _______ _______ _______ _____ _____    ______ ____
ROOT
ATOM      1  N   UNL     1       0.448   9.995  21.262  0.00  0.00    +0.000 N 
ATOM      2  C   UNL     1       0.199   8.639  21.368  0.00  0.00    +0.000 C 
ATOM      3  O   UNL     1      -0.871   8.141  21.712  0.00  0.00    +0.000 OA
ATOM      4  H   UNL     1       1.218  10.249  20.649  0.00  0.00    +0.000 HD
ENDROOT
BRANCH   1   6
ATOM      5  C   UNL     1      -1.344  11.600  20.443  0.00  0.00    +0.000 A 
ATOM      6  C   UNL     1      -0.585  10.910  21.366  0.00  0.00    +0.000 A 
ATOM      7  S   UNL     1      -1.076  11.170  22.965  0.00  0.00    +0.000 S 
ATOM      8  C   UNL     1      -2.225  12.363  22.547  0.00  0.00    +0.000 A 
ATOM      9  C   UNL     1      -2.302  12.471  21.152  0.00  0.00    +0.000 A 
ATOM     10  C   UNL     1      -3.304  13.319  20.408  0.00  0.00    +0.000 C 
BRANCH   8  11
ATOM     11  C   UNL     1      -3.140  12.971  23.529  0.00  0.00    +0.000 C 
ATOM     12  O   UNL     1      -3.995  12.252  24.063  0.00  0.00    +0.000 OA
ATOM     13  N   UNL     1      -3.136  14.339  23.882  0.00  0.00    +0.000 N 
ATOM     14  C   UNL     1      -2.195  15.385  23.510  0.00  0.00    +0.000 C 
ATOM     15  C   UNL     1      -4.200  14.815  24.771  0.00  0.00    +0.000 C 
ENDBRANCH   8  11
BRANCH   5  16
ATOM     16  C   UNL     1      -1.311  11.428  18.978  0.00  0.00    +0.000 C 
ATOM     17  O   UNL     1      -0.839  12.271  18.222  0.00  0.00    +0.000 OA
BRANCH  16  18
ATOM     18  O   UNL     1      -1.942  10.301  18.534  0.00  0.00    +0.000 OA
BRANCH  18  20
ATOM     19  C   UNL     1      -2.737   9.959  16.285  0.00  0.00    +0.000 C 
ATOM     20  C   UNL     1      -1.561   9.816  17.235  0.00  0.00    +0.000 C 
ENDBRANCH  18  20
ENDBRANCH  16  18
ENDBRANCH   5  16
ENDBRANCH   1   6
BRANCH   2  21
ATOM     21  C   UNL     1       1.423   7.752  21.046  0.00  0.00    +0.000 C 
BRANCH  21  22
ATOM     22  O   UNL     1       2.193   8.043  19.875  0.00  0.00    +0.000 OA
BRANCH  22  23
ATOM     23  C   UNL     1       2.505   6.992  19.069  0.00  0.00    +0.000 C 
ATOM     24  O   UNL     1       2.385   6.979  17.856  0.00  0.00    +0.000 OA
BRANCH  23  25
ATOM     25  C   UNL     1       3.028   5.818  19.900  0.00  0.00    +0.000 C 
BRANCH  25  26
ATOM     26  C   UNL     1       2.510   4.455  19.460  0.00  0.00    +0.000 A 
ATOM     27  C   UNL     1       1.233   4.064  19.915  0.00  0.00    +0.000 A 
ATOM     28  C   UNL     1       0.671   2.835  19.550  0.00  0.00    +0.000 A 
ATOM     29  C   UNL     1       1.344   1.984  18.683  0.00  0.00    +0.000 A 
ATOM     30  C   UNL     1       2.609   2.330  18.227  0.00  0.00    +0.000 A 
ATOM     31  C   UNL     1       3.214   3.529  18.652  0.00  0.00    +0.000 A 
BRANCH  31  32
ATOM     32  N   UNL     1       4.632   3.699  18.289  0.00  0.00    +0.000 N 
ATOM     33  O   UNL     1       5.483   3.654  19.184  0.00  0.00    +0.000 OA
ATOM     34  O   UNL     1       4.905   3.896  17.099  0.00  0.00    +0.000 OA
ENDBRANCH  31  32
ENDBRANCH  25  26
ENDBRANCH  23  25
ENDBRANCH  22  23
ENDBRANCH  21  22
ENDBRANCH   2  21
TORSDOF 11
ENDMDL
MODEL 4
REMARK VINA RESULT:      -7.1      2.235      3.313
REMARK  Name = 
REMARK  15 active torsions:
REMARK  status: ('A' for Active; 'I' for Inactive)
REMARK    1  A    between atoms: C_1  and  C_2
REMARK    2  A    between atoms: C_2  and  O_3
REMARK    3  A    between atoms: O_3  and  C_4
REMARK    4  A    between atoms: C_4  and  C_6
REMARK    5  A    between atoms: C_7  and  N_8
REMARK    6  A    between atoms: C_9  and  C_11
REMARK    7  A    between atoms: C_11  and  O_12
REMARK    8  A    between atoms: O_12  and  C_13
REMARK    9  A    between atoms: C_13  and  C_15
REMARK   10  A    between atoms: C_15  and  C_16
REMARK   11  A    between atoms: C_21  and  N_22
REMARK   12  A    between atoms: C_26  and  C_27
REMARK   13  A    between atoms: N_29  and  C_30
REMARK   14  A    between atoms: N_29  and  C_31
REMARK   15  A    between atoms: C_32  and  C_33
REMARK                            x       y       z     vdW  Elec       q    Type
REMARK                         _______ _______ _______ _____ _____    ______ ____
ROOT
ATOM      1  N   UNL     1       0.843   9.944  20.907  0.00  0.00    +0.000 N 
ATOM      2  C   UNL     1       0.599   8.589  21.036  0.00  0.00    +0.000 C 
ATOM      3  O   UNL     1      -0.441   8.095  21.467  0.00  0.00    +0.000 OA
ATOM      4  H   UNL     1       1.561  10.194  20.233  0.00  0.00    +0.000 HD
ENDROOT
BRANCH   1   6
ATOM      5  C   UNL     1      -0.901  11.666  20.236  0.00  0.00    +0.000 A 
ATOM      6  C   UNL     1      -0.176  10.862  21.091  0.00  0.00    +0.000 A 
ATOM      7  S   UNL     1      -0.700  10.951  22.698  0.00  0.00    +0.000 S 
ATOM      8  C   UNL     1      -1.818  12.206  22.393  0.00  0.00    +0.000 A 
ATOM      9  C   UNL     1      -1.860  12.472  21.017  0.00  0.00    +0.000 A 
ATOM     10  C   UNL     1      -2.829  13.418  20.352  0.00  0.00    +0.000 C 
BRANCH   8  11
ATOM     11  C   UNL     1      -2.745  12.720  23.417  0.00  0.00    +0.000 C 
ATOM     12  O   UNL     1      -3.754  12.054  23.685  0.00  0.00    +0.000 OA
ATOM     13  N   UNL     1      -2.582  13.947  24.097  0.00  0.00    +0.000 N 
ATOM     14  C   UNL     1      -1.459  14.873  24.073  0.00  0.00    +0.000 C 
ATOM     15  C   UNL     1      -3.664  14.380  24.987  0.00  0.00    +0.000 C 
ENDBRANCH   8  11
BRANCH   5  16
ATOM     16  C   UNL     1      -0.837  11.659  18.762  0.00  0.00    +0.000 C 
ATOM     17  O   UNL     1      -0.751  12.686  18.096  0.00  0.00    +0.000 OA
BRANCH  16  18
ATOM     18  O   UNL     1      -0.985  10.422  18.203  0.00  0.00    +0.000 OA
BRANCH  18  20
ATOM     19  C   UNL     1      -2.557   9.987  16.428  0.00  0.00    +0.000 C 
ATOM     20  C   UNL     1      -2.330   9.993  17.930  0.00  0.00    +0.000 C 
ENDBRANCH  18  20
ENDBRANCH  16  18
ENDBRANCH   5  16
ENDBRANCH   1   6
BRANCH   2  21
ATOM     21  C   UNL     1       1.791   7.698  20.620  0.00  0.00    +0.000 C 
BRANCH  21  22
ATOM     22  O   UNL     1       1.680   6.280  20.792  0.00  0.00    +0.000 OA
BRANCH  22  23
ATOM     23  C   UNL     1       2.473   5.504  20.004  0.00  0.00    +0.000 C 
ATOM     24  O   UNL     1       3.224   4.633  20.409  0.00  0.00    +0.000 OA
BRANCH  23  25
ATOM     25  C   UNL     1       2.295   5.878  18.530  0.00  0.00    +0.000 C 
BRANCH  25  26
ATOM     26  C   UNL     1       3.525   5.636  17.666  0.00  0.00    +0.000 A 
ATOM     27  C   UNL     1       4.278   6.763  17.271  0.00  0.00    +0.000 A 
ATOM     28  C   UNL     1       5.431   6.635  16.488  0.00  0.00    +0.000 A 
ATOM     29  C   UNL     1       5.894   5.379  16.119  0.00  0.00    +0.000 A 
ATOM     30  C   UNL     1       5.171   4.249  16.478  0.00  0.00    +0.000 A 
ATOM     31  C   UNL     1       3.968   4.375  17.199  0.00  0.00    +0.000 A 
BRANCH  31  32
ATOM     32  N   UNL     1       3.170   3.144  17.340  0.00  0.00    +0.000 N 
ATOM     33  O   UNL     1       2.062   3.090  16.795  0.00  0.00    +0.000 OA
ATOM     34  O   UNL     1       3.642   2.222  18.015  0.00  0.00    +0.000 OA
ENDBRANCH  31  32
ENDBRANCH  25  26
ENDBRANCH  23  25
ENDBRANCH  22  23
ENDBRANCH  21  22
ENDBRANCH   2  21
TORSDOF 11
ENDMDL
MODEL 5
REMARK VINA RESULT:      -7.1      6.706     10.820
REMARK  Name = 
REMARK  15 active torsions:
REMARK  status: ('A' for Active; 'I' for Inactive)
REMARK    1  A    between atoms: C_1  and  C_2
REMARK    2  A    between atoms: C_2  and  O_3
REMARK    3  A    between atoms: O_3  and  C_4
REMARK    4  A    between atoms: C_4  and  C_6
REMARK    5  A    between atoms: C_7  and  N_8
REMARK    6  A    between atoms: C_9  and  C_11
REMARK    7  A    between atoms: C_11  and  O_12
REMARK    8  A    between atoms: O_12  and  C_13
REMARK    9  A    between atoms: C_13  and  C_15
REMARK   10  A    between atoms: C_15  and  C_16
REMARK   11  A    between atoms: C_21  and  N_22
REMARK   12  A    between atoms: C_26  and  C_27
REMARK   13  A    between atoms: N_29  and  C_30
REMARK   14  A    between atoms: N_29  and  C_31
REMARK   15  A    between atoms: C_32  and  C_33
REMARK                            x       y       z     vdW  Elec       q    Type
REMARK                         _______ _______ _______ _____ _____    ______ ____
ROOT
ATOM      1  N   UNL     1       6.123   7.357  17.306  0.00  0.00    +0.000 N 
ATOM      2  C   UNL     1       7.405   7.388  17.823  0.00  0.00    +0.000 C 
ATOM      3  O   UNL     1       7.902   6.517  18.535  0.00  0.00    +0.000 OA
ATOM      4  H   UNL     1       5.973   7.931  16.481  0.00  0.00    +0.000 HD
ENDROOT
BRANCH   1   6
ATOM      5  C   UNL     1       5.327   5.013  16.734  0.00  0.00    +0.000 A 
ATOM      6  C   UNL     1       5.349   6.215  17.411  0.00  0.00    +0.000 A 
ATOM      7  S   UNL     1       4.257   6.275  18.703  0.00  0.00    +0.000 S 
ATOM      8  C   UNL     1       3.551   4.763  18.337  0.00  0.00    +0.000 A 
ATOM      9  C   UNL     1       4.247   4.165  17.277  0.00  0.00    +0.000 A 
ATOM     10  C   UNL     1       4.004   2.766  16.768  0.00  0.00    +0.000 C 
BRANCH   8  11
ATOM     11  C   UNL     1       2.534   4.126  19.191  0.00  0.00    +0.000 C 
ATOM     12  O   UNL     1       1.356   4.494  19.081  0.00  0.00    +0.000 OA
ATOM     13  N   UNL     1       2.813   3.141  20.164  0.00  0.00    +0.000 N 
ATOM     14  C   UNL     1       4.060   2.443  20.439  0.00  0.00    +0.000 C 
ATOM     15  C   UNL     1       1.710   2.706  21.027  0.00  0.00    +0.000 C 
ENDBRANCH   8  11
BRANCH   5  16
ATOM     16  C   UNL     1       6.289   4.568  15.708  0.00  0.00    +0.000 C 
ATOM     17  O   UNL     1       7.466   4.331  15.961  0.00  0.00    +0.000 OA
BRANCH  16  18
ATOM     18  O   UNL     1       5.783   4.544  14.440  0.00  0.00    +0.000 OA
BRANCH  18  20
ATOM     19  C   UNL     1       6.070   3.257  12.423  0.00  0.00    +0.000 C 
ATOM     20  C   UNL     1       6.708   4.249  13.380  0.00  0.00    +0.000 C 
ENDBRANCH  18  20
ENDBRANCH  16  18
ENDBRANCH   5  16
ENDBRANCH   1   6
BRANCH   2  21
ATOM     21  C   UNL     1       8.194   8.667  17.462  0.00  0.00    +0.000 C 
BRANCH  21  22
ATOM     22  O   UNL     1       8.687   9.491  18.523  0.00  0.00    +0.000 OA
BRANCH  22  23
ATOM     23  C   UNL     1       8.842  10.816  18.250  0.00  0.00    +0.000 C 
ATOM     24  O   UNL     1       8.132  11.463  17.499  0.00  0.00    +0.000 OA
BRANCH  23  25
ATOM     25  C   UNL     1      10.038  11.384  19.017  0.00  0.00    +0.000 C 
BRANCH  25  26
ATOM     26  C   UNL     1      10.663  12.620  18.383  0.00  0.00    +0.000 A 
ATOM     27  C   UNL     1      11.684  12.420  17.430  0.00  0.00    +0.000 A 
ATOM     28  C   UNL     1      12.305  13.496  16.786  0.00  0.00    +0.000 A 
ATOM     29  C   UNL     1      11.892  14.799  17.036  0.00  0.00    +0.000 A 
ATOM     30  C   UNL     1      10.899  15.033  17.977  0.00  0.00    +0.000 A 
ATOM     31  C   UNL     1      10.323  13.961  18.686  0.00  0.00    +0.000 A 
BRANCH  31  32
ATOM     32  N   UNL     1       9.443  14.330  19.809  0.00  0.00    +0.000 N 
ATOM     33  O   UNL     1       9.665  13.842  20.922  0.00  0.00    +0.000 OA
ATOM     34  O   UNL     1       8.506  15.104  19.579  0.00  0.00    +0.000 OA
ENDBRANCH  31  32
ENDBRANCH  25  26
ENDBRANCH  23  25
ENDBRANCH  22  23
ENDBRANCH  21  22
ENDBRANCH   2  21
TORSDOF 11
ENDMDL
MODEL 6
REMARK VINA RESULT:      -7.1      2.250      2.895
REMARK  Name = 
REMARK  15 active torsions:
REMARK  status: ('A' for Active; 'I' for Inactive)
REMARK    1  A    between atoms: C_1  and  C_2
REMARK    2  A    between atoms: C_2  and  O_3
REMARK    3  A    between atoms: O_3  and  C_4
REMARK    4  A    between atoms: C_4  and  C_6
REMARK    5  A    between atoms: C_7  and  N_8
REMARK    6  A    between atoms: C_9  and  C_11
REMARK    7  A    between atoms: C_11  and  O_12
REMARK    8  A    between atoms: O_12  and  C_13
REMARK    9  A    between atoms: C_13  and  C_15
REMARK   10  A    between atoms: C_15  and  C_16
REMARK   11  A    between atoms: C_21  and  N_22
REMARK   12  A    between atoms: C_26  and  C_27
REMARK   13  A    between atoms: N_29  and  C_30
REMARK   14  A    between atoms: N_29  and  C_31
REMARK   15  A    between atoms: C_32  and  C_33
REMARK                            x       y       z     vdW  Elec       q    Type
REMARK                         _______ _______ _______ _____ _____    ______ ____
ROOT
ATOM      1  N   UNL     1      -0.021  11.169  18.146  0.00  0.00    +0.000 N 
ATOM      2  C   UNL     1       0.718  10.199  18.797  0.00  0.00    +0.000 C 
ATOM      3  O   UNL     1       0.526   9.817  19.950  0.00  0.00    +0.000 OA
ATOM      4  H   UNL     1       0.008  11.131  17.131  0.00  0.00    +0.000 HD
ENDROOT
BRANCH   1   6
ATOM      5  C   UNL     1      -2.526  11.446  18.475  0.00  0.00    +0.000 A 
ATOM      6  C   UNL     1      -1.184  11.663  18.711  0.00  0.00    +0.000 A 
ATOM      7  S   UNL     1      -0.894  12.686  20.028  0.00  0.00    +0.000 S 
ATOM      8  C   UNL     1      -2.546  13.051  20.265  0.00  0.00    +0.000 A 
ATOM      9  C   UNL     1      -3.326  12.285  19.388  0.00  0.00    +0.000 A 
ATOM     10  C   UNL     1      -4.834  12.231  19.400  0.00  0.00    +0.000 C 
BRANCH   8  11
ATOM     11  C   UNL     1      -3.032  13.864  21.394  0.00  0.00    +0.000 C 
ATOM     12  O   UNL     1      -3.396  15.027  21.171  0.00  0.00    +0.000 OA
ATOM     13  N   UNL     1      -3.081  13.419  22.734  0.00  0.00    +0.000 N 
ATOM     14  C   UNL     1      -2.829  12.092  23.276  0.00  0.00    +0.000 C 
ATOM     15  C   UNL     1      -3.461  14.395  23.760  0.00  0.00    +0.000 C 
ENDBRANCH   8  11
BRANCH   5  16
ATOM     16  C   UNL     1      -3.102  10.452  17.548  0.00  0.00    +0.000 C 
ATOM     17  O   UNL     1      -3.311   9.287  17.870  0.00  0.00    +0.000 OA
BRANCH  16  18
ATOM     18  O   UNL     1      -3.284  10.915  16.276  0.00  0.00    +0.000 OA
BRANCH  18  20
ATOM     19  C   UNL     1      -3.671  10.065  14.054  0.00  0.00    +0.000 C 
ATOM     20  C   UNL     1      -2.696  10.142  15.216  0.00  0.00    +0.000 C 
ENDBRANCH  18  20
ENDBRANCH  16  18
ENDBRANCH   5  16
ENDBRANCH   1   6
BRANCH   2  21
ATOM     21  C   UNL     1       1.880   9.628  17.952  0.00  0.00    +0.000 C 
BRANCH  21  22
ATOM     22  O   UNL     1       1.834   8.250  17.566  0.00  0.00    +0.000 OA
BRANCH  22  23
ATOM     23  C   UNL     1       2.591   7.384  18.294  0.00  0.00    +0.000 C 
ATOM     24  O   UNL     1       2.615   7.328  19.511  0.00  0.00    +0.000 OA
BRANCH  23  25
ATOM     25  C   UNL     1       3.414   6.485  17.368  0.00  0.00    +0.000 C 
BRANCH  25  26
ATOM     26  C   UNL     1       4.856   6.278  17.811  0.00  0.00    +0.000 A 
ATOM     27  C   UNL     1       5.845   7.091  17.219  0.00  0.00    +0.000 A 
ATOM     28  C   UNL     1       7.194   6.980  17.576  0.00  0.00    +0.000 A 
ATOM     29  C   UNL     1       7.589   6.091  18.567  0.00  0.00    +0.000 A 
ATOM     30  C   UNL     1       6.644   5.265  19.161  0.00  0.00    +0.000 A 
ATOM     31  C   UNL     1       5.297   5.316  18.753  0.00  0.00    +0.000 A 
BRANCH  31  32
ATOM     32  N   UNL     1       4.423   4.256  19.284  0.00  0.00    +0.000 N 
ATOM     33  O   UNL     1       4.433   3.148  18.736  0.00  0.00    +0.000 OA
ATOM     34  O   UNL     1       3.702   4.530  20.251  0.00  0.00    +0.000 OA
ENDBRANCH  31  32
ENDBRANCH  25  26
ENDBRANCH  23  25
ENDBRANCH  22  23
ENDBRANCH  21  22
ENDBRANCH   2  21
TORSDOF 11
ENDMDL
MODEL 7
REMARK VINA RESULT:      -7.0      3.056      9.654
REMARK  Name = 
REMARK  15 active torsions:
REMARK  status: ('A' for Active; 'I' for Inactive)
REMARK    1  A    between atoms: C_1  and  C_2
REMARK    2  A    between atoms: C_2  and  O_3
REMARK    3  A    between atoms: O_3  and  C_4
REMARK    4  A    between atoms: C_4  and  C_6
REMARK    5  A    between atoms: C_7  and  N_8
REMARK    6  A    between atoms: C_9  and  C_11
REMARK    7  A    between atoms: C_11  and  O_12
REMARK    8  A    between atoms: O_12  and  C_13
REMARK    9  A    between atoms: C_13  and  C_15
REMARK   10  A    between atoms: C_15  and  C_16
REMARK   11  A    between atoms: C_21  and  N_22
REMARK   12  A    between atoms: C_26  and  C_27
REMARK   13  A    between atoms: N_29  and  C_30
REMARK   14  A    between atoms: N_29  and  C_31
REMARK   15  A    between atoms: C_32  and  C_33
REMARK                            x       y       z     vdW  Elec       q    Type
REMARK                         _______ _______ _______ _____ _____    ______ ____
ROOT
ATOM      1  N   UNL     1       2.076   7.416  18.567  0.00  0.00    +0.000 N 
ATOM      2  C   UNL     1       1.884   7.592  19.925  0.00  0.00    +0.000 C 
ATOM      3  O   UNL     1       2.282   6.828  20.801  0.00  0.00    +0.000 OA
ATOM      4  H   UNL     1       2.018   8.261  18.006  0.00  0.00    +0.000 HD
ENDROOT
BRANCH   1   6
ATOM      5  C   UNL     1       2.821   5.049  18.017  0.00  0.00    +0.000 A 
ATOM      6  C   UNL     1       2.919   6.423  18.099  0.00  0.00    +0.000 A 
ATOM      7  S   UNL     1       4.334   7.035  17.402  0.00  0.00    +0.000 S 
ATOM      8  C   UNL     1       4.999   5.491  17.100  0.00  0.00    +0.000 A 
ATOM      9  C   UNL     1       4.065   4.503  17.440  0.00  0.00    +0.000 A 
ATOM     10  C   UNL     1       4.239   3.027  17.181  0.00  0.00    +0.000 C 
BRANCH   8  11
ATOM     11  C   UNL     1       6.261   5.292  16.365  0.00  0.00    +0.000 C 
ATOM     12  O   UNL     1       7.328   5.500  16.958  0.00  0.00    +0.000 OA
ATOM     13  N   UNL     1       6.342   4.912  15.007  0.00  0.00    +0.000 N 
ATOM     14  C   UNL     1       5.281   4.499  14.099  0.00  0.00    +0.000 C 
ATOM     15  C   UNL     1       7.669   4.891  14.385  0.00  0.00    +0.000 C 
ENDBRANCH   8  11
BRANCH   5  16
ATOM     16  C   UNL     1       1.632   4.236  18.336  0.00  0.00    +0.000 C 
ATOM     17  O   UNL     1       0.851   3.836  17.478  0.00  0.00    +0.000 OA
BRANCH  16  18
ATOM     18  O   UNL     1       1.421   4.055  19.673  0.00  0.00    +0.000 OA
BRANCH  18  20
ATOM     19  C   UNL     1       2.259   2.844  21.581  0.00  0.00    +0.000 C 
ATOM     20  C   UNL     1       1.654   2.735  20.192  0.00  0.00    +0.000 C 
ENDBRANCH  18  20
ENDBRANCH  16  18
ENDBRANCH   5  16
ENDBRANCH   1   6
BRANCH   2  21
ATOM     21  C   UNL     1       1.063   8.853  20.281  0.00  0.00    +0.000 C 
BRANCH  21  22
ATOM     22  O   UNL     1       0.200   8.810  21.422  0.00  0.00    +0.000 OA
BRANCH  22  23
ATOM     23  C   UNL     1       0.317   9.829  22.318  0.00  0.00    +0.000 C 
ATOM     24  O   UNL     1       0.510   9.691  23.514  0.00  0.00    +0.000 OA
BRANCH  23  25
ATOM     25  C   UNL     1       0.167  11.179  21.613  0.00  0.00    +0.000 C 
BRANCH  25  26
ATOM     26  C   UNL     1      -1.239  11.762  21.661  0.00  0.00    +0.000 A 
ATOM     27  C   UNL     1      -1.866  11.853  22.922  0.00  0.00    +0.000 A 
ATOM     28  C   UNL     1      -3.151  12.388  23.064  0.00  0.00    +0.000 A 
ATOM     29  C   UNL     1      -3.829  12.892  21.961  0.00  0.00    +0.000 A 
ATOM     30  C   UNL     1      -3.248  12.806  20.703  0.00  0.00    +0.000 A 
ATOM     31  C   UNL     1      -1.987  12.199  20.541  0.00  0.00    +0.000 A 
BRANCH  31  32
ATOM     32  N   UNL     1      -1.560  11.963  19.151  0.00  0.00    +0.000 N 
ATOM     33  O   UNL     1      -1.005  12.881  18.537  0.00  0.00    +0.000 OA
ATOM     34  O   UNL     1      -1.792  10.854  18.654  0.00  0.00    +0.000 OA
ENDBRANCH  31  32
ENDBRANCH  25  26
ENDBRANCH  23  25
ENDBRANCH  22  23
ENDBRANCH  21  22
ENDBRANCH   2  21
TORSDOF 11
ENDMDL
MODEL 8
REMARK VINA RESULT:      -7.0      6.700     10.847
REMARK  Name = 
REMARK  15 active torsions:
REMARK  status: ('A' for Active; 'I' for Inactive)
REMARK    1  A    between atoms: C_1  and  C_2
REMARK    2  A    between atoms: C_2  and  O_3
REMARK    3  A    between atoms: O_3  and  C_4
REMARK    4  A    between atoms: C_4  and  C_6
REMARK    5  A    between atoms: C_7  and  N_8
REMARK    6  A    between atoms: C_9  and  C_11
REMARK    7  A    between atoms: C_11  and  O_12
REMARK    8  A    between atoms: O_12  and  C_13
REMARK    9  A    between atoms: C_13  and  C_15
REMARK   10  A    between atoms: C_15  and  C_16
REMARK   11  A    between atoms: C_21  and  N_22
REMARK   12  A    between atoms: C_26  and  C_27
REMARK   13  A    between atoms: N_29  and  C_30
REMARK   14  A    between atoms: N_29  and  C_31
REMARK   15  A    between atoms: C_32  and  C_33
REMARK                            x       y       z     vdW  Elec       q    Type
REMARK                         _______ _______ _______ _____ _____    ______ ____
ROOT
ATOM      1  N   UNL     1       6.371   7.847  17.116  0.00  0.00    +0.000 N 
ATOM      2  C   UNL     1       7.579   7.900  17.786  0.00  0.00    +0.000 C 
ATOM      3  O   UNL     1       8.017   7.022  18.527  0.00  0.00    +0.000 OA
ATOM      4  H   UNL     1       6.302   8.443  16.296  0.00  0.00    +0.000 HD
ENDROOT
BRANCH   1   6
ATOM      5  C   UNL     1       5.847   5.423  16.558  0.00  0.00    +0.000 A 
ATOM      6  C   UNL     1       5.631   6.677  17.092  0.00  0.00    +0.000 A 
ATOM      7  S   UNL     1       4.195   6.788  17.981  0.00  0.00    +0.000 S 
ATOM      8  C   UNL     1       3.673   5.215  17.565  0.00  0.00    +0.000 A 
ATOM      9  C   UNL     1       4.675   4.568  16.829  0.00  0.00    +0.000 A 
ATOM     10  C   UNL     1       4.634   3.120  16.407  0.00  0.00    +0.000 C 
BRANCH   8  11
ATOM     11  C   UNL     1       2.459   4.599  18.130  0.00  0.00    +0.000 C 
ATOM     12  O   UNL     1       1.372   4.828  17.583  0.00  0.00    +0.000 OA
ATOM     13  N   UNL     1       2.441   3.786  19.285  0.00  0.00    +0.000 N 
ATOM     14  C   UNL     1       3.554   3.261  20.062  0.00  0.00    +0.000 C 
ATOM     15  C   UNL     1       1.134   3.362  19.797  0.00  0.00    +0.000 C 
ENDBRANCH   8  11
BRANCH   5  16
ATOM     16  C   UNL     1       7.088   4.946  15.920  0.00  0.00    +0.000 C 
ATOM     17  O   UNL     1       7.827   4.117  16.441  0.00  0.00    +0.000 OA
BRANCH  16  18
ATOM     18  O   UNL     1       7.394   5.582  14.750  0.00  0.00    +0.000 OA
BRANCH  18  20
ATOM     19  C   UNL     1       6.270   3.972  13.352  0.00  0.00    +0.000 C 
ATOM     20  C   UNL     1       7.551   4.753  13.585  0.00  0.00    +0.000 C 
ENDBRANCH  18  20
ENDBRANCH  16  18
ENDBRANCH   5  16
ENDBRANCH   1   6
BRANCH   2  21
ATOM     21  C   UNL     1       8.360   9.215  17.562  0.00  0.00    +0.000 C 
BRANCH  21  22
ATOM     22  O   UNL     1       8.332  10.213  18.588  0.00  0.00    +0.000 OA
BRANCH  22  23
ATOM     23  C   UNL     1       9.419  11.027  18.682  0.00  0.00    +0.000 C 
ATOM     24  O   UNL     1      10.543  10.662  18.984  0.00  0.00    +0.000 OA
BRANCH  23  25
ATOM     25  C   UNL     1       9.035  12.472  18.358  0.00  0.00    +0.000 C 
BRANCH  25  26
ATOM     26  C   UNL     1       9.655  13.511  19.284  0.00  0.00    +0.000 A 
ATOM     27  C   UNL     1       9.169  13.580  20.606  0.00  0.00    +0.000 A 
ATOM     28  C   UNL     1       9.689  14.493  21.531  0.00  0.00    +0.000 A 
ATOM     29  C   UNL     1      10.740  15.329  21.178  0.00  0.00    +0.000 A 
ATOM     30  C   UNL     1      11.233  15.298  19.880  0.00  0.00    +0.000 A 
ATOM     31  C   UNL     1      10.664  14.437  18.923  0.00  0.00    +0.000 A 
BRANCH  31  32
ATOM     32  N   UNL     1      11.109  14.635  17.532  0.00  0.00    +0.000 N 
ATOM     33  O   UNL     1      11.901  13.823  17.042  0.00  0.00    +0.000 OA
ATOM     34  O   UNL     1      10.679  15.621  16.922  0.00  0.00    +0.000 OA
ENDBRANCH  31  32
ENDBRANCH  25  26
ENDBRANCH  23  25
ENDBRANCH  22  23
ENDBRANCH  21  22
ENDBRANCH   2  21
TORSDOF 11
ENDMDL
MODEL 9
REMARK VINA RESULT:      -6.9      1.888      2.847
REMARK  Name = 
REMARK  15 active torsions:
REMARK  status: ('A' for Active; 'I' for Inactive)
REMARK    1  A    between atoms: C_1  and  C_2
REMARK    2  A    between atoms: C_2  and  O_3
REMARK    3  A    between atoms: O_3  and  C_4
REMARK    4  A    between atoms: C_4  and  C_6
REMARK    5  A    between atoms: C_7  and  N_8
REMARK    6  A    between atoms: C_9  and  C_11
REMARK    7  A    between atoms: C_11  and  O_12
REMARK    8  A    between atoms: O_12  and  C_13
REMARK    9  A    between atoms: C_13  and  C_15
REMARK   10  A    between atoms: C_15  and  C_16
REMARK   11  A    between atoms: C_21  and  N_22
REMARK   12  A    between atoms: C_26  and  C_27
REMARK   13  A    between atoms: N_29  and  C_30
REMARK   14  A    between atoms: N_29  and  C_31
REMARK   15  A    between atoms: C_32  and  C_33
REMARK                            x       y       z     vdW  Elec       q    Type
REMARK                         _______ _______ _______ _____ _____    ______ ____
ROOT
ATOM      1  N   UNL     1       1.156   8.986  19.297  0.00  0.00    +0.000 N 
ATOM      2  C   UNL     1       2.046   9.032  18.240  0.00  0.00    +0.000 C 
ATOM      3  O   UNL     1       2.115   9.939  17.413  0.00  0.00    +0.000 OA
ATOM      4  H   UNL     1       1.434   8.392  20.074  0.00  0.00    +0.000 HD
ENDROOT
BRANCH   1   6
ATOM      5  C   UNL     1      -0.768  10.630  19.071  0.00  0.00    +0.000 A 
ATOM      6  C   UNL     1       0.379  10.087  19.611  0.00  0.00    +0.000 A 
ATOM      7  S   UNL     1       0.903  10.886  21.008  0.00  0.00    +0.000 S 
ATOM      8  C   UNL     1      -0.268  12.124  20.887  0.00  0.00    +0.000 A 
ATOM      9  C   UNL     1      -1.135  11.846  19.822  0.00  0.00    +0.000 A 
ATOM     10  C   UNL     1      -2.377  12.638  19.494  0.00  0.00    +0.000 C 
BRANCH   8  11
ATOM     11  C   UNL     1      -0.444  13.163  21.917  0.00  0.00    +0.000 C 
ATOM     12  O   UNL     1       0.299  14.154  21.890  0.00  0.00    +0.000 OA
ATOM     13  N   UNL     1      -1.386  13.093  22.968  0.00  0.00    +0.000 N 
ATOM     14  C   UNL     1      -2.449  12.124  23.191  0.00  0.00    +0.000 C 
ATOM     15  C   UNL     1      -1.343  14.143  23.990  0.00  0.00    +0.000 C 
ENDBRANCH   8  11
BRANCH   5  16
ATOM     16  C   UNL     1      -1.588  10.047  17.991  0.00  0.00    +0.000 C 
ATOM     17  O   UNL     1      -1.103   9.603  16.956  0.00  0.00    +0.000 OA
BRANCH  16  18
ATOM     18  O   UNL     1      -2.934  10.140  18.201  0.00  0.00    +0.000 OA
BRANCH  18  20
ATOM     19  C   UNL     1      -4.219  11.333  16.547  0.00  0.00    +0.000 C 
ATOM     20  C   UNL     1      -3.781   9.969  17.051  0.00  0.00    +0.000 C 
ENDBRANCH  18  20
ENDBRANCH  16  18
ENDBRANCH   5  16
ENDBRANCH   1   6
BRANCH   2  21
ATOM     21  C   UNL     1       2.962   7.792  18.140  0.00  0.00    +0.000 C 
BRANCH  21  22
ATOM     22  O   UNL     1       2.376   6.532  17.795  0.00  0.00    +0.000 OA
BRANCH  22  23
ATOM     23  C   UNL     1       2.737   5.460  18.553  0.00  0.00    +0.000 C 
ATOM     24  O   UNL     1       2.739   5.433  19.772  0.00  0.00    +0.000 OA
BRANCH  23  25
ATOM     25  C   UNL     1       3.147   4.287  17.659  0.00  0.00    +0.000 C 
BRANCH  25  26
ATOM     26  C   UNL     1       4.522   4.433  17.020  0.00  0.00    +0.000 A 
ATOM     27  C   UNL     1       4.589   4.442  15.611  0.00  0.00    +0.000 A 
ATOM     28  C   UNL     1       5.807   4.586  14.938  0.00  0.00    +0.000 A 
ATOM     29  C   UNL     1       6.986   4.774  15.648  0.00  0.00    +0.000 A 
ATOM     30  C   UNL     1       6.958   4.756  17.036  0.00  0.00    +0.000 A 
ATOM     31  C   UNL     1       5.748   4.534  17.721  0.00  0.00    +0.000 A 
BRANCH  31  32
ATOM     32  N   UNL     1       5.860   4.317  19.174  0.00  0.00    +0.000 N 
ATOM     33  O   UNL     1       6.425   5.176  19.860  0.00  0.00    +0.000 OA
ATOM     34  O   UNL     1       5.395   3.270  19.641  0.00  0.00    +0.000 OA
ENDBRANCH  31  32
ENDBRANCH  25  26
ENDBRANCH  23  25
ENDBRANCH  22  23
ENDBRANCH  21  22
ENDBRANCH   2  21
TORSDOF 11
ENDMDL
