MODEL 1
REMARK VINA RESULT:      -7.3      0.000      0.000
REMARK  Name = 
REMARK  5 active torsions:
REMARK  status: ('A' for Active; 'I' for Inactive)
REMARK    1  A    between atoms: C_1  and  C_2
REMARK    2  A    between atoms: C_9  and  C_10
REMARK    3  A    between atoms: C_18  and  C_19
REMARK    4  A    between atoms: C_19  and  C_20
REMARK    5  A    between atoms: C_19  and  C_21
REMARK                            x       y       z     vdW  Elec       q    Type
REMARK                         _______ _______ _______ _____ _____    ______ ____
ROOT
ATOM      1  C   UNL     1       6.107   2.652  11.269  0.00  0.00    +0.000 C 
ATOM      2  C   UNL     1       6.342   3.506  12.478  0.00  0.00    +0.000 A 
ATOM      3  C   UNL     1       7.510   4.259  12.600  0.00  0.00    +0.000 A 
ATOM      4  C   UNL     1       7.704   5.057  13.725  0.00  0.00    +0.000 A 
ATOM      5  C   UNL     1       6.760   5.096  14.759  0.00  0.00    +0.000 A 
ATOM      6  C   UNL     1       5.589   4.350  14.646  0.00  0.00    +0.000 A 
ATOM      7  C   UNL     1       5.384   3.555  13.505  0.00  0.00    +0.000 A 
ATOM      8  S   UNL     1       4.344   4.355  15.922  0.00  0.00    +0.000 S 
ATOM      9  C   UNL     1       5.025   5.377  17.182  0.00  0.00    +0.000 C 
ATOM     10  C   UNL     1       6.263   5.952  17.043  0.00  0.00    +0.000 C 
ATOM     11  N   UNL     1       7.001   5.922  15.858  0.00  0.00    +0.000 N 
ATOM     12  H   UNL     1       7.947   6.280  15.905  0.00  0.00    +0.000 HD
ENDROOT
BRANCH   9  13
ATOM     13  C   UNL     1       4.249   5.393  18.505  0.00  0.00    +0.000 C 
ATOM     14  O   UNL     1       4.019   6.493  19.023  0.00  0.00    +0.000 OA
ATOM     15  N   UNL     1       3.770   4.261  19.162  0.00  0.00    +0.000 N 
ATOM     16  C   UNL     1       3.929   2.838  18.832  0.00  0.00    +0.000 C 
ATOM     17  C   UNL     1       2.640   2.032  19.096  0.00  0.00    +0.000 C 
ATOM     18  O   UNL     1       2.093   2.267  20.399  0.00  0.00    +0.000 OA
ATOM     19  C   UNL     1       1.838   3.666  20.588  0.00  0.00    +0.000 C 
ATOM     20  C   UNL     1       3.143   4.453  20.484  0.00  0.00    +0.000 C 
ENDBRANCH   9  13
BRANCH  10  21
ATOM     21  C   UNL     1       7.088   6.673  18.140  0.00  0.00    +0.000 C 
ATOM     22  C   UNL     1       7.929   5.792  19.058  0.00  0.00    +0.000 C 
ATOM     23  C   UNL     1       7.781   7.941  17.623  0.00  0.00    +0.000 C 
ENDBRANCH  10  21
TORSDOF 2
ENDMDL
MODEL 2
REMARK VINA RESULT:      -7.1      3.507      7.561
REMARK  Name = 
REMARK  5 active torsions:
REMARK  status: ('A' for Active; 'I' for Inactive)
REMARK    1  A    between atoms: C_1  and  C_2
REMARK    2  A    between atoms: C_9  and  C_10
REMARK    3  A    between atoms: C_18  and  C_19
REMARK    4  A    between atoms: C_19  and  C_20
REMARK    5  A    between atoms: C_19  and  C_21
REMARK                            x       y       z     vdW  Elec       q    Type
REMARK                         _______ _______ _______ _____ _____    ______ ____
ROOT
ATOM      1  C   UNL     1       0.860  11.519  20.639  0.00  0.00    +0.000 C 
ATOM      2  C   UNL     1       1.003  10.028  20.618  0.00  0.00    +0.000 A 
ATOM      3  C   UNL     1       0.503   9.250  21.661  0.00  0.00    +0.000 A 
ATOM      4  C   UNL     1       0.634   7.863  21.615  0.00  0.00    +0.000 A 
ATOM      5  C   UNL     1       1.291   7.232  20.552  0.00  0.00    +0.000 A 
ATOM      6  C   UNL     1       1.794   7.999  19.504  0.00  0.00    +0.000 A 
ATOM      7  C   UNL     1       1.649   9.396  19.540  0.00  0.00    +0.000 A 
ATOM      8  S   UNL     1       2.637   7.260  18.118  0.00  0.00    +0.000 S 
ATOM      9  C   UNL     1       2.683   5.545  18.508  0.00  0.00    +0.000 C 
ATOM     10  C   UNL     1       2.145   5.064  19.675  0.00  0.00    +0.000 C 
ATOM     11  N   UNL     1       1.384   5.839  20.553  0.00  0.00    +0.000 N 
ATOM     12  H   UNL     1       1.135   5.409  21.435  0.00  0.00    +0.000 HD
ENDROOT
BRANCH   9  13
ATOM     13  C   UNL     1       3.545   4.683  17.578  0.00  0.00    +0.000 C 
ATOM     14  O   UNL     1       2.965   3.872  16.845  0.00  0.00    +0.000 OA
ATOM     15  N   UNL     1       4.934   4.756  17.483  0.00  0.00    +0.000 N 
ATOM     16  C   UNL     1       5.893   5.565  18.248  0.00  0.00    +0.000 C 
ATOM     17  C   UNL     1       7.030   6.111  17.361  0.00  0.00    +0.000 C 
ATOM     18  O   UNL     1       7.642   5.097  16.553  0.00  0.00    +0.000 OA
ATOM     19  C   UNL     1       6.658   4.450  15.735  0.00  0.00    +0.000 C 
ATOM     20  C   UNL     1       5.612   3.771  16.618  0.00  0.00    +0.000 C 
ENDBRANCH   9  13
BRANCH  10  21
ATOM     21  C   UNL     1       2.310   3.639  20.263  0.00  0.00    +0.000 C 
ATOM     22  C   UNL     1       2.311   3.518  21.784  0.00  0.00    +0.000 C 
ATOM     23  C   UNL     1       1.473   2.590  19.517  0.00  0.00    +0.000 C 
ENDBRANCH  10  21
TORSDOF 2
ENDMDL
MODEL 3
REMARK VINA RESULT:      -7.1      1.646      2.481
REMARK  Name = 
REMARK  5 active torsions:
REMARK  status: ('A' for Active; 'I' for Inactive)
REMARK    1  A    between atoms: C_1  and  C_2
REMARK    2  A    between atoms: C_9  and  C_10
REMARK    3  A    between atoms: C_18  and  C_19
REMARK    4  A    between atoms: C_19  and  C_20
REMARK    5  A    between atoms: C_19  and  C_21
REMARK                            x       y       z     vdW  Elec       q    Type
REMARK                         _______ _______ _______ _____ _____    ______ ____
ROOT
ATOM      1  C   UNL     1       5.904   2.529  11.425  0.00  0.00    +0.000 C 
ATOM      2  C   UNL     1       6.180   3.429  12.591  0.00  0.00    +0.000 A 
ATOM      3  C   UNL     1       7.367   4.156  12.664  0.00  0.00    +0.000 A 
ATOM      4  C   UNL     1       7.599   4.998  13.750  0.00  0.00    +0.000 A 
ATOM      5  C   UNL     1       6.672   5.105  14.794  0.00  0.00    +0.000 A 
ATOM      6  C   UNL     1       5.482   4.384  14.732  0.00  0.00    +0.000 A 
ATOM      7  C   UNL     1       5.239   3.547  13.630  0.00  0.00    +0.000 A 
ATOM      8  S   UNL     1       4.257   4.477  16.024  0.00  0.00    +0.000 S 
ATOM      9  C   UNL     1       4.982   5.535  17.228  0.00  0.00    +0.000 C 
ATOM     10  C   UNL     1       6.233   6.072  17.046  0.00  0.00    +0.000 C 
ATOM     11  N   UNL     1       6.951   5.971  15.853  0.00  0.00    +0.000 N 
ATOM     12  H   UNL     1       7.906   6.307  15.870  0.00  0.00    +0.000 HD
ENDROOT
BRANCH   9  13
ATOM     13  C   UNL     1       4.229   5.628  18.560  0.00  0.00    +0.000 C 
ATOM     14  O   UNL     1       4.648   4.951  19.507  0.00  0.00    +0.000 OA
ATOM     15  N   UNL     1       3.114   6.433  18.790  0.00  0.00    +0.000 N 
ATOM     16  C   UNL     1       2.361   7.293  17.866  0.00  0.00    +0.000 C 
ATOM     17  C   UNL     1       1.925   8.616  18.529  0.00  0.00    +0.000 C 
ATOM     18  O   UNL     1       1.280   8.420  19.793  0.00  0.00    +0.000 OA
ATOM     19  C   UNL     1       2.138   7.692  20.683  0.00  0.00    +0.000 C 
ATOM     20  C   UNL     1       2.444   6.313  20.100  0.00  0.00    +0.000 C 
ENDBRANCH   9  13
BRANCH  10  21
ATOM     21  C   UNL     1       7.092   6.818  18.099  0.00  0.00    +0.000 C 
ATOM     22  C   UNL     1       7.931   5.957  19.038  0.00  0.00    +0.000 C 
ATOM     23  C   UNL     1       7.802   8.049  17.517  0.00  0.00    +0.000 C 
ENDBRANCH  10  21
TORSDOF 2
ENDMDL
MODEL 4
REMARK VINA RESULT:      -7.0      1.361      1.915
REMARK  Name = 
REMARK  5 active torsions:
REMARK  status: ('A' for Active; 'I' for Inactive)
REMARK    1  A    between atoms: C_1  and  C_2
REMARK    2  A    between atoms: C_9  and  C_10
REMARK    3  A    between atoms: C_18  and  C_19
REMARK    4  A    between atoms: C_19  and  C_20
REMARK    5  A    between atoms: C_19  and  C_21
REMARK                            x       y       z     vdW  Elec       q    Type
REMARK                         _______ _______ _______ _____ _____    ______ ____
ROOT
ATOM      1  C   UNL     1       6.687   2.784  11.023  0.00  0.00    +0.000 C 
ATOM      2  C   UNL     1       6.785   3.594  12.280  0.00  0.00    +0.000 A 
ATOM      3  C   UNL     1       7.745   4.598  12.406  0.00  0.00    +0.000 A 
ATOM      4  C   UNL     1       7.812   5.350  13.577  0.00  0.00    +0.000 A 
ATOM      5  C   UNL     1       6.950   5.096  14.651  0.00  0.00    +0.000 A 
ATOM      6  C   UNL     1       5.986   4.097  14.536  0.00  0.00    +0.000 A 
ATOM      7  C   UNL     1       5.907   3.348  13.350  0.00  0.00    +0.000 A 
ATOM      8  S   UNL     1       4.855   3.725  15.862  0.00  0.00    +0.000 S 
ATOM      9  C   UNL     1       5.348   4.801  17.163  0.00  0.00    +0.000 C 
ATOM     10  C   UNL     1       6.403   5.667  17.012  0.00  0.00    +0.000 C 
ATOM     11  N   UNL     1       7.054   5.887  15.796  0.00  0.00    +0.000 N 
ATOM     12  H   UNL     1       7.888   6.460  15.828  0.00  0.00    +0.000 HD
ENDROOT
BRANCH   9  13
ATOM     13  C   UNL     1       4.673   4.550  18.516  0.00  0.00    +0.000 C 
ATOM     14  O   UNL     1       5.203   3.734  19.281  0.00  0.00    +0.000 OA
ATOM     15  N   UNL     1       3.512   5.183  18.958  0.00  0.00    +0.000 N 
ATOM     16  C   UNL     1       2.636   6.141  18.269  0.00  0.00    +0.000 C 
ATOM     17  C   UNL     1       2.135   7.254  19.212  0.00  0.00    +0.000 C 
ATOM     18  O   UNL     1       1.588   6.744  20.434  0.00  0.00    +0.000 OA
ATOM     19  C   UNL     1       2.555   5.932  21.113  0.00  0.00    +0.000 C 
ATOM     20  C   UNL     1       2.936   4.736  20.242  0.00  0.00    +0.000 C 
ENDBRANCH   9  13
BRANCH  10  21
ATOM     21  C   UNL     1       7.097   6.497  18.122  0.00  0.00    +0.000 C 
ATOM     22  C   UNL     1       7.988   5.733  19.097  0.00  0.00    +0.000 C 
ATOM     23  C   UNL     1       7.673   7.821  17.598  0.00  0.00    +0.000 C 
ENDBRANCH  10  21
TORSDOF 2
ENDMDL
MODEL 5
REMARK VINA RESULT:      -7.0      3.395      5.518
REMARK  Name = 
REMARK  5 active torsions:
REMARK  status: ('A' for Active; 'I' for Inactive)
REMARK    1  A    between atoms: C_1  and  C_2
REMARK    2  A    between atoms: C_9  and  C_10
REMARK    3  A    between atoms: C_18  and  C_19
REMARK    4  A    between atoms: C_19  and  C_20
REMARK    5  A    between atoms: C_19  and  C_21
REMARK                            x       y       z     vdW  Elec       q    Type
REMARK                         _______ _______ _______ _____ _____    ______ ____
ROOT
ATOM      1  C   UNL     1       6.814   5.080  14.062  0.00  0.00    +0.000 C 
ATOM      2  C   UNL     1       5.924   4.863  15.247  0.00  0.00    +0.000 A 
ATOM      3  C   UNL     1       5.634   3.574  15.694  0.00  0.00    +0.000 A 
ATOM      4  C   UNL     1       4.815   3.395  16.807  0.00  0.00    +0.000 A 
ATOM      5  C   UNL     1       4.246   4.488  17.472  0.00  0.00    +0.000 A 
ATOM      6  C   UNL     1       4.529   5.779  17.036  0.00  0.00    +0.000 A 
ATOM      7  C   UNL     1       5.368   5.964  15.923  0.00  0.00    +0.000 A 
ATOM      8  S   UNL     1       3.842   7.215  17.838  0.00  0.00    +0.000 S 
ATOM      9  C   UNL     1       2.800   6.550  19.090  0.00  0.00    +0.000 C 
ATOM     10  C   UNL     1       2.663   5.195  19.259  0.00  0.00    +0.000 C 
ATOM     11  N   UNL     1       3.441   4.250  18.588  0.00  0.00    +0.000 N 
ATOM     12  H   UNL     1       3.176   3.279  18.705  0.00  0.00    +0.000 HD
ENDROOT
BRANCH   9  13
ATOM     13  C   UNL     1       1.909   7.567  19.812  0.00  0.00    +0.000 C 
ATOM     14  O   UNL     1       1.545   7.298  20.963  0.00  0.00    +0.000 OA
ATOM     15  N   UNL     1       1.490   8.783  19.274  0.00  0.00    +0.000 N 
ATOM     16  C   UNL     1       1.707   9.350  17.936  0.00  0.00    +0.000 C 
ATOM     17  C   UNL     1       1.981  10.868  17.985  0.00  0.00    +0.000 C 
ATOM     18  O   UNL     1       1.017  11.583  18.768  0.00  0.00    +0.000 OA
ATOM     19  C   UNL     1       0.968  11.056  20.101  0.00  0.00    +0.000 C 
ATOM     20  C   UNL     1       0.540   9.589  20.066  0.00  0.00    +0.000 C 
ENDBRANCH   9  13
BRANCH  10  21
ATOM     21  C   UNL     1       1.622   4.464  20.145  0.00  0.00    +0.000 C 
ATOM     22  C   UNL     1       0.691   3.479  19.444  0.00  0.00    +0.000 C 
ATOM     23  C   UNL     1       2.215   3.980  21.477  0.00  0.00    +0.000 C 
ENDBRANCH  10  21
TORSDOF 2
ENDMDL
MODEL 6
REMARK VINA RESULT:      -6.7      5.705      8.028
REMARK  Name = 
REMARK  5 active torsions:
REMARK  status: ('A' for Active; 'I' for Inactive)
REMARK    1  A    between atoms: C_1  and  C_2
REMARK    2  A    between atoms: C_9  and  C_10
REMARK    3  A    between atoms: C_18  and  C_19
REMARK    4  A    between atoms: C_19  and  C_20
REMARK    5  A    between atoms: C_19  and  C_21
REMARK                            x       y       z     vdW  Elec       q    Type
REMARK                         _______ _______ _______ _____ _____    ______ ____
ROOT
ATOM      1  C   UNL     1       4.400   4.071  16.857  0.00  0.00    +0.000 C 
ATOM      2  C   UNL     1       3.772   5.001  17.849  0.00  0.00    +0.000 A 
ATOM      3  C   UNL     1       3.711   4.663  19.201  0.00  0.00    +0.000 A 
ATOM      4  C   UNL     1       3.136   5.548  20.111  0.00  0.00    +0.000 A 
ATOM      5  C   UNL     1       2.583   6.764  19.689  0.00  0.00    +0.000 A 
ATOM      6  C   UNL     1       2.639   7.112  18.342  0.00  0.00    +0.000 A 
ATOM      7  C   UNL     1       3.233   6.228  17.424  0.00  0.00    +0.000 A 
ATOM      8  S   UNL     1       1.959   8.645  17.737  0.00  0.00    +0.000 S 
ATOM      9  C   UNL     1       1.244   9.389  19.162  0.00  0.00    +0.000 C 
ATOM     10  C   UNL     1       1.288   8.773  20.388  0.00  0.00    +0.000 C 
ATOM     11  N   UNL     1       2.028   7.617  20.645  0.00  0.00    +0.000 N 
ATOM     12  H   UNL     1       1.896   7.188  21.553  0.00  0.00    +0.000 HD
ENDROOT
BRANCH   9  13
ATOM     13  C   UNL     1       0.396  10.638  18.895  0.00  0.00    +0.000 C 
ATOM     14  O   UNL     1      -0.834  10.504  18.874  0.00  0.00    +0.000 OA
ATOM     15  N   UNL     1       0.906  11.919  18.690  0.00  0.00    +0.000 N 
ATOM     16  C   UNL     1       2.298  12.380  18.603  0.00  0.00    +0.000 C 
ATOM     17  C   UNL     1       2.505  13.739  19.303  0.00  0.00    +0.000 C 
ATOM     18  O   UNL     1       1.543  14.724  18.904  0.00  0.00    +0.000 OA
ATOM     19  C   UNL     1       0.213  14.249  19.152  0.00  0.00    +0.000 C 
ATOM     20  C   UNL     1      -0.051  12.986  18.334  0.00  0.00    +0.000 C 
ENDBRANCH   9  13
BRANCH  10  21
ATOM     21  C   UNL     1       0.515   9.180  21.668  0.00  0.00    +0.000 C 
ATOM     22  C   UNL     1      -0.829   8.499  21.905  0.00  0.00    +0.000 C 
ATOM     23  C   UNL     1       1.426   9.294  22.898  0.00  0.00    +0.000 C 
ENDBRANCH  10  21
TORSDOF 2
ENDMDL
MODEL 7
REMARK VINA RESULT:      -6.5      5.489      7.540
REMARK  Name = 
REMARK  5 active torsions:
REMARK  status: ('A' for Active; 'I' for Inactive)
REMARK    1  A    between atoms: C_1  and  C_2
REMARK    2  A    between atoms: C_9  and  C_10
REMARK    3  A    between atoms: C_18  and  C_19
REMARK    4  A    between atoms: C_19  and  C_20
REMARK    5  A    between atoms: C_19  and  C_21
REMARK                            x       y       z     vdW  Elec       q    Type
REMARK                         _______ _______ _______ _____ _____    ______ ____
ROOT
ATOM      1  C   UNL     1       4.275   3.512  17.083  0.00  0.00    +0.000 C 
ATOM      2  C   UNL     1       3.684   4.509  18.033  0.00  0.00    +0.000 A 
ATOM      3  C   UNL     1       3.483   4.182  19.374  0.00  0.00    +0.000 A 
ATOM      4  C   UNL     1       2.945   5.128  20.244  0.00  0.00    +0.000 A 
ATOM      5  C   UNL     1       2.569   6.399  19.792  0.00  0.00    +0.000 A 
ATOM      6  C   UNL     1       2.766   6.737  18.455  0.00  0.00    +0.000 A 
ATOM      7  C   UNL     1       3.323   5.790  17.578  0.00  0.00    +0.000 A 
ATOM      8  S   UNL     1       2.314   8.337  17.813  0.00  0.00    +0.000 S 
ATOM      9  C   UNL     1       1.583   9.160  19.186  0.00  0.00    +0.000 C 
ATOM     10  C   UNL     1       1.463   8.543  20.406  0.00  0.00    +0.000 C 
ATOM     11  N   UNL     1       2.044   7.310  20.710  0.00  0.00    +0.000 N 
ATOM     12  H   UNL     1       1.795   6.900  21.602  0.00  0.00    +0.000 HD
ENDROOT
BRANCH   9  13
ATOM     13  C   UNL     1       0.906  10.497  18.866  0.00  0.00    +0.000 C 
ATOM     14  O   UNL     1       1.612  11.513  18.858  0.00  0.00    +0.000 OA
ATOM     15  N   UNL     1      -0.447  10.654  18.566  0.00  0.00    +0.000 N 
ATOM     16  C   UNL     1      -1.533   9.665  18.550  0.00  0.00    +0.000 C 
ATOM     17  C   UNL     1      -2.506   9.888  17.374  0.00  0.00    +0.000 C 
ATOM     18  O   UNL     1      -2.957  11.245  17.274  0.00  0.00    +0.000 OA
ATOM     19  C   UNL     1      -1.838  12.134  17.153  0.00  0.00    +0.000 C 
ATOM     20  C   UNL     1      -0.953  12.030  18.395  0.00  0.00    +0.000 C 
ENDBRANCH   9  13
BRANCH  10  21
ATOM     21  C   UNL     1       0.646   9.038  21.628  0.00  0.00    +0.000 C 
ATOM     22  C   UNL     1      -0.695   8.356  21.880  0.00  0.00    +0.000 C 
ATOM     23  C   UNL     1       1.518   9.263  22.871  0.00  0.00    +0.000 C 
ENDBRANCH  10  21
TORSDOF 2
ENDMDL
MODEL 8
REMARK VINA RESULT:      -6.3     11.233     12.962
REMARK  Name = 
REMARK  5 active torsions:
REMARK  status: ('A' for Active; 'I' for Inactive)
REMARK    1  A    between atoms: C_1  and  C_2
REMARK    2  A    between atoms: C_9  and  C_10
REMARK    3  A    between atoms: C_18  and  C_19
REMARK    4  A    between atoms: C_19  and  C_20
REMARK    5  A    between atoms: C_19  and  C_21
REMARK                            x       y       z     vdW  Elec       q    Type
REMARK                         _______ _______ _______ _____ _____    ______ ____
ROOT
ATOM      1  C   UNL     1      -3.343   9.956  15.131  0.00  0.00    +0.000 C 
ATOM      2  C   UNL     1      -2.918  10.423  16.490  0.00  0.00    +0.000 A 
ATOM      3  C   UNL     1      -1.648  10.123  16.981  0.00  0.00    +0.000 A 
ATOM      4  C   UNL     1      -1.268  10.579  18.241  0.00  0.00    +0.000 A 
ATOM      5  C   UNL     1      -2.151  11.310  19.046  0.00  0.00    +0.000 A 
ATOM      6  C   UNL     1      -3.422  11.616  18.565  0.00  0.00    +0.000 A 
ATOM      7  C   UNL     1      -3.803  11.171  17.288  0.00  0.00    +0.000 A 
ATOM      8  S   UNL     1      -4.594  12.546  19.533  0.00  0.00    +0.000 S 
ATOM      9  C   UNL     1      -3.770  12.816  21.064  0.00  0.00    +0.000 C 
ATOM     10  C   UNL     1      -2.505  12.333  21.288  0.00  0.00    +0.000 C 
ATOM     11  N   UNL     1      -1.713  11.750  20.296  0.00  0.00    +0.000 N 
ATOM     12  H   UNL     1      -0.844  11.329  20.600  0.00  0.00    +0.000 HD
ENDROOT
BRANCH   9  13
ATOM     13  C   UNL     1      -4.633  13.419  22.178  0.00  0.00    +0.000 C 
ATOM     14  O   UNL     1      -5.305  12.643  22.869  0.00  0.00    +0.000 OA
ATOM     15  N   UNL     1      -4.707  14.778  22.482  0.00  0.00    +0.000 N 
ATOM     16  C   UNL     1      -4.083  15.930  21.818  0.00  0.00    +0.000 C 
ATOM     17  C   UNL     1      -3.587  16.985  22.828  0.00  0.00    +0.000 C 
ATOM     18  O   UNL     1      -4.584  17.343  23.794  0.00  0.00    +0.000 OA
ATOM     19  C   UNL     1      -5.039  16.177  24.495  0.00  0.00    +0.000 C 
ATOM     20  C   UNL     1      -5.677  15.195  23.513  0.00  0.00    +0.000 C 
ENDBRANCH   9  13
BRANCH  10  21
ATOM     21  C   UNL     1      -1.748  12.284  22.640  0.00  0.00    +0.000 C 
ATOM     22  C   UNL     1      -0.957  11.015  22.940  0.00  0.00    +0.000 C 
ATOM     23  C   UNL     1      -1.032  13.603  22.965  0.00  0.00    +0.000 C 
ENDBRANCH  10  21
TORSDOF 2
ENDMDL
MODEL 9
REMARK VINA RESULT:      -6.3     11.510     13.441
REMARK  Name = 
REMARK  5 active torsions:
REMARK  status: ('A' for Active; 'I' for Inactive)
REMARK    1  A    between atoms: C_1  and  C_2
REMARK    2  A    between atoms: C_9  and  C_10
REMARK    3  A    between atoms: C_18  and  C_19
REMARK    4  A    between atoms: C_19  and  C_20
REMARK    5  A    between atoms: C_19  and  C_21
REMARK                            x       y       z     vdW  Elec       q    Type
REMARK                         _______ _______ _______ _____ _____    ______ ____
ROOT
ATOM      1  C   UNL     1       0.948   9.710  18.101  0.00  0.00    +0.000 C 
ATOM      2  C   UNL     1      -0.463  10.203  18.209  0.00  0.00    +0.000 A 
ATOM      3  C   UNL     1      -1.422   9.823  17.270  0.00  0.00    +0.000 A 
ATOM      4  C   UNL     1      -2.732  10.281  17.396  0.00  0.00    +0.000 A 
ATOM      5  C   UNL     1      -3.102  11.146  18.434  0.00  0.00    +0.000 A 
ATOM      6  C   UNL     1      -2.152  11.531  19.377  0.00  0.00    +0.000 A 
ATOM      7  C   UNL     1      -0.834  11.058  19.262  0.00  0.00    +0.000 A 
ATOM      8  S   UNL     1      -2.555  12.626  20.724  0.00  0.00    +0.000 S 
ATOM      9  C   UNL     1      -4.240  13.046  20.448  0.00  0.00    +0.000 C 
ATOM     10  C   UNL     1      -4.932  12.551  19.370  0.00  0.00    +0.000 C 
ATOM     11  N   UNL     1      -4.430  11.566  18.517  0.00  0.00    +0.000 N 
ATOM     12  H   UNL     1      -4.981  11.359  17.692  0.00  0.00    +0.000 HD
ENDROOT
BRANCH   9  13
ATOM     13  C   UNL     1      -4.798  14.154  21.349  0.00  0.00    +0.000 C 
ATOM     14  O   UNL     1      -4.470  15.320  21.097  0.00  0.00    +0.000 OA
ATOM     15  N   UNL     1      -5.661  13.948  22.424  0.00  0.00    +0.000 N 
ATOM     16  C   UNL     1      -6.177  12.696  22.996  0.00  0.00    +0.000 C 
ATOM     17  C   UNL     1      -7.657  12.815  23.415  0.00  0.00    +0.000 C 
ATOM     18  O   UNL     1      -7.917  13.971  24.222  0.00  0.00    +0.000 OA
ATOM     19  C   UNL     1      -7.511  15.161  23.531  0.00  0.00    +0.000 C 
ATOM     20  C   UNL     1      -6.009  15.117  23.255  0.00  0.00    +0.000 C 
ENDBRANCH   9  13
BRANCH  10  21
ATOM     21  C   UNL     1      -6.326  13.003  18.865  0.00  0.00    +0.000 C 
ATOM     22  C   UNL     1      -6.455  13.298  17.374  0.00  0.00    +0.000 C 
ATOM     23  C   UNL     1      -7.472  12.187  19.480  0.00  0.00    +0.000 C 
ENDBRANCH  10  21
TORSDOF 2
ENDMDL
