MODEL 1
REMARK VINA RESULT:      -8.1      0.000      0.000
REMARK  Name = 
REMARK  9 active torsions:
REMARK  status: ('A' for Active; 'I' for Inactive)
REMARK    1  A    between atoms: C_1  and  C_2
REMARK    2  A    between atoms: C_2  and  O_3
REMARK    3  A    between atoms: O_3  and  C_4
REMARK    4  A    between atoms: C_8  and  C_9
REMARK    5  A    between atoms: C_11  and  C_12
REMARK    6  A    between atoms: C_12  and  N_13
REMARK    7  A    between atoms: C_15  and  C_16
REMARK    8  A    between atoms: C_16  and  C_17
REMARK    9  A    between atoms: C_17  and  N_18
REMARK                            x       y       z     vdW  Elec       q    Type
REMARK                         _______ _______ _______ _____ _____    ______ ____
ROOT
ATOM      1  C   UNL     1       3.891   7.324  17.229  0.00  0.00    +0.000 C 
ENDROOT
BRANCH   1   2
ATOM      2  N   UNL     1       4.113   5.896  17.553  0.00  0.00    +0.000 N 
ATOM      3  C   UNL     1       5.408   5.411  17.800  0.00  0.00    +0.000 A 
ATOM      4  C   UNL     1       5.327   4.184  17.170  0.00  0.00    +0.000 A 
ATOM      5  C   UNL     1       4.124   3.662  17.690  0.00  0.00    +0.000 A 
ATOM      6  C   UNL     1       3.643   2.347  17.817  0.00  0.00    +0.000 A 
ATOM      7  C   UNL     1       2.295   2.133  18.051  0.00  0.00    +0.000 A 
ATOM      8  C   UNL     1       1.424   3.223  18.047  0.00  0.00    +0.000 A 
ATOM      9  C   UNL     1       1.873   4.558  17.864  0.00  0.00    +0.000 A 
ATOM     10  C   UNL     1       3.259   4.786  17.730  0.00  0.00    +0.000 A 
BRANCH   4  11
ATOM     11  C   UNL     1       5.797   3.823  15.795  0.00  0.00    +0.000 C 
BRANCH  11  12
ATOM     12  C   UNL     1       6.015   5.027  14.896  0.00  0.00    +0.000 C 
BRANCH  12  13
ATOM     13  N   UNL     1       7.447   5.281  14.740  0.00  0.00    +0.000 NA
ATOM     14  H   UNL     1       7.908   4.435  14.405  0.00  0.00    +0.000 HD
ATOM     15  H   UNL     1       7.846   5.492  15.652  0.00  0.00    +0.000 HD
ENDBRANCH  12  13
ENDBRANCH  11  12
ENDBRANCH   4  11
ENDBRANCH   1   2
BRANCH   1  18
ATOM     16  C   UNL     1       1.126   9.323  18.636  0.00  0.00    +0.000 A 
ATOM     17  N   UNL     1       1.948   9.061  17.614  0.00  0.00    +0.000 NA
ATOM     18  C   UNL     1       2.785   8.009  18.058  0.00  0.00    +0.000 A 
ATOM     19  C   UNL     1       2.406   7.707  19.350  0.00  0.00    +0.000 A 
ATOM     20  O   UNL     1       1.369   8.507  19.718  0.00  0.00    +0.000 OA
BRANCH  16  25
ATOM     21  C   UNL     1      -2.079  11.360  18.156  0.00  0.00    +0.000 A 
ATOM     22  C   UNL     1      -1.970  12.310  19.173  0.00  0.00    +0.000 A 
ATOM     23  C   UNL     1      -0.887  12.266  20.044  0.00  0.00    +0.000 A 
ATOM     24  C   UNL     1       0.104  11.286  19.875  0.00  0.00    +0.000 A 
ATOM     25  C   UNL     1       0.040  10.319  18.842  0.00  0.00    +0.000 A 
ATOM     26  C   UNL     1      -1.089  10.375  17.992  0.00  0.00    +0.000 A 
BRANCH  21  27
ATOM     27  O   UNL     1      -3.164  11.540  17.334  0.00  0.00    +0.000 OA
BRANCH  27  29
ATOM     28  C   UNL     1      -3.221  10.710  15.088  0.00  0.00    +0.000 C 
ATOM     29  C   UNL     1      -3.535  10.412  16.545  0.00  0.00    +0.000 C 
ENDBRANCH  27  29
ENDBRANCH  21  27
ENDBRANCH  16  25
ENDBRANCH   1  18
TORSDOF 8
ENDMDL
MODEL 2
REMARK VINA RESULT:      -7.9      4.187      8.221
REMARK  Name = 
REMARK  9 active torsions:
REMARK  status: ('A' for Active; 'I' for Inactive)
REMARK    1  A    between atoms: C_1  and  C_2
REMARK    2  A    between atoms: C_2  and  O_3
REMARK    3  A    between atoms: O_3  and  C_4
REMARK    4  A    between atoms: C_8  and  C_9
REMARK    5  A    between atoms: C_11  and  C_12
REMARK    6  A    between atoms: C_12  and  N_13
REMARK    7  A    between atoms: C_15  and  C_16
REMARK    8  A    between atoms: C_16  and  C_17
REMARK    9  A    between atoms: C_17  and  N_18
REMARK                            x       y       z     vdW  Elec       q    Type
REMARK                         _______ _______ _______ _____ _____    ______ ____
ROOT
ATOM      1  C   UNL     1       5.568   5.563  19.312  0.00  0.00    +0.000 C 
ENDROOT
BRANCH   1   2
ATOM      2  N   UNL     1       4.106   5.332  19.336  0.00  0.00    +0.000 N 
ATOM      3  C   UNL     1       3.228   6.237  18.717  0.00  0.00    +0.000 A 
ATOM      4  C   UNL     1       2.198   6.237  19.638  0.00  0.00    +0.000 A 
ATOM      5  C   UNL     1       1.977   4.857  19.836  0.00  0.00    +0.000 A 
ATOM      6  C   UNL     1       0.859   4.138  20.293  0.00  0.00    +0.000 A 
ATOM      7  C   UNL     1       1.016   2.827  20.713  0.00  0.00    +0.000 A 
ATOM      8  C   UNL     1       2.300   2.285  20.776  0.00  0.00    +0.000 A 
ATOM      9  C   UNL     1       3.455   3.009  20.375  0.00  0.00    +0.000 A 
ATOM     10  C   UNL     1       3.283   4.306  19.849  0.00  0.00    +0.000 A 
BRANCH   4  11
ATOM     11  C   UNL     1       1.941   7.227  20.732  0.00  0.00    +0.000 C 
BRANCH  11  12
ATOM     12  C   UNL     1       1.467   8.577  20.226  0.00  0.00    +0.000 C 
BRANCH  12  13
ATOM     13  N   UNL     1       0.313   9.025  21.004  0.00  0.00    +0.000 NA
ATOM     14  H   UNL     1       0.621   9.682  21.722  0.00  0.00    +0.000 HD
ATOM     15  H   UNL     1      -0.089   8.226  21.489  0.00  0.00    +0.000 HD
ENDBRANCH  12  13
ENDBRANCH  11  12
ENDBRANCH   4  11
ENDBRANCH   1   2
BRANCH   1  18
ATOM     16  C   UNL     1       6.546   5.274  15.765  0.00  0.00    +0.000 A 
ATOM     17  N   UNL     1       5.753   4.891  16.771  0.00  0.00    +0.000 NA
ATOM     18  C   UNL     1       6.188   5.626  17.900  0.00  0.00    +0.000 A 
ATOM     19  C   UNL     1       7.242   6.415  17.488  0.00  0.00    +0.000 A 
ATOM     20  O   UNL     1       7.469   6.215  16.162  0.00  0.00    +0.000 OA
BRANCH  16  25
ATOM     21  C   UNL     1       5.884   3.529  12.423  0.00  0.00    +0.000 A 
ATOM     22  C   UNL     1       6.923   4.021  11.631  0.00  0.00    +0.000 A 
ATOM     23  C   UNL     1       7.811   4.952  12.160  0.00  0.00    +0.000 A 
ATOM     24  C   UNL     1       7.673   5.366  13.495  0.00  0.00    +0.000 A 
ATOM     25  C   UNL     1       6.646   4.873  14.335  0.00  0.00    +0.000 A 
ATOM     26  C   UNL     1       5.743   3.950  13.757  0.00  0.00    +0.000 A 
BRANCH  21  27
ATOM     27  O   UNL     1       5.108   2.581  11.803  0.00  0.00    +0.000 OA
BRANCH  27  29
ATOM     28  C   UNL     1       3.754   3.836  10.276  0.00  0.00    +0.000 C 
ATOM     29  C   UNL     1       3.764   2.969  11.525  0.00  0.00    +0.000 C 
ENDBRANCH  27  29
ENDBRANCH  21  27
ENDBRANCH  16  25
ENDBRANCH   1  18
TORSDOF 8
ENDMDL
MODEL 3
REMARK VINA RESULT:      -7.9      1.201      2.376
REMARK  Name = 
REMARK  9 active torsions:
REMARK  status: ('A' for Active; 'I' for Inactive)
REMARK    1  A    between atoms: C_1  and  C_2
REMARK    2  A    between atoms: C_2  and  O_3
REMARK    3  A    between atoms: O_3  and  C_4
REMARK    4  A    between atoms: C_8  and  C_9
REMARK    5  A    between atoms: C_11  and  C_12
REMARK    6  A    between atoms: C_12  and  N_13
REMARK    7  A    between atoms: C_15  and  C_16
REMARK    8  A    between atoms: C_16  and  C_17
REMARK    9  A    between atoms: C_17  and  N_18
REMARK                            x       y       z     vdW  Elec       q    Type
REMARK                         _______ _______ _______ _____ _____    ______ ____
ROOT
ATOM      1  C   UNL     1       3.795   7.406  17.251  0.00  0.00    +0.000 C 
ENDROOT
BRANCH   1   2
ATOM      2  N   UNL     1       4.031   5.982  17.584  0.00  0.00    +0.000 N 
ATOM      3  C   UNL     1       5.329   5.514  17.846  0.00  0.00    +0.000 A 
ATOM      4  C   UNL     1       5.270   4.284  17.221  0.00  0.00    +0.000 A 
ATOM      5  C   UNL     1       4.068   3.749  17.730  0.00  0.00    +0.000 A 
ATOM      6  C   UNL     1       3.603   2.429  17.857  0.00  0.00    +0.000 A 
ATOM      7  C   UNL     1       2.255   2.199  18.079  0.00  0.00    +0.000 A 
ATOM      8  C   UNL     1       1.371   3.278  18.061  0.00  0.00    +0.000 A 
ATOM      9  C   UNL     1       1.805   4.618  17.877  0.00  0.00    +0.000 A 
ATOM     10  C   UNL     1       3.190   4.862  17.756  0.00  0.00    +0.000 A 
BRANCH   4  11
ATOM     11  C   UNL     1       5.759   3.924  15.851  0.00  0.00    +0.000 C 
BRANCH  11  12
ATOM     12  C   UNL     1       6.043   5.130  14.974  0.00  0.00    +0.000 C 
BRANCH  12  13
ATOM     13  N   UNL     1       7.480   5.243  14.732  0.00  0.00    +0.000 NA
ATOM     14  H   UNL     1       7.726   4.718  13.893  0.00  0.00    +0.000 HD
ATOM     15  H   UNL     1       7.981   4.813  15.506  0.00  0.00    +0.000 HD
ENDBRANCH  12  13
ENDBRANCH  11  12
ENDBRANCH   4  11
ENDBRANCH   1   2
BRANCH   1  18
ATOM     16  C   UNL     1       0.901   9.294  18.547  0.00  0.00    +0.000 A 
ATOM     17  N   UNL     1       1.721   9.008  17.532  0.00  0.00    +0.000 NA
ATOM     18  C   UNL     1       2.652   8.073  18.045  0.00  0.00    +0.000 A 
ATOM     19  C   UNL     1       2.324   7.861  19.369  0.00  0.00    +0.000 A 
ATOM     20  O   UNL     1       1.232   8.604  19.691  0.00  0.00    +0.000 OA
BRANCH  16  25
ATOM     21  C   UNL     1      -1.559  11.845  19.994  0.00  0.00    +0.000 A 
ATOM     22  C   UNL     1      -2.552  11.876  19.012  0.00  0.00    +0.000 A 
ATOM     23  C   UNL     1      -2.406  11.109  17.862  0.00  0.00    +0.000 A 
ATOM     24  C   UNL     1      -1.278  10.288  17.710  0.00  0.00    +0.000 A 
ATOM     25  C   UNL     1      -0.261  10.214  18.692  0.00  0.00    +0.000 A 
ATOM     26  C   UNL     1      -0.427  11.028  19.837  0.00  0.00    +0.000 A 
BRANCH  21  27
ATOM     27  O   UNL     1      -1.843  12.606  21.102  0.00  0.00    +0.000 OA
BRANCH  27  29
ATOM     28  C   UNL     1      -2.664  12.083  23.291  0.00  0.00    +0.000 C 
ATOM     29  C   UNL     1      -1.468  12.036  22.354  0.00  0.00    +0.000 C 
ENDBRANCH  27  29
ENDBRANCH  21  27
ENDBRANCH  16  25
ENDBRANCH   1  18
TORSDOF 8
ENDMDL
MODEL 4
REMARK VINA RESULT:      -7.9      5.480      7.781
REMARK  Name = 
REMARK  9 active torsions:
REMARK  status: ('A' for Active; 'I' for Inactive)
REMARK    1  A    between atoms: C_1  and  C_2
REMARK    2  A    between atoms: C_2  and  O_3
REMARK    3  A    between atoms: O_3  and  C_4
REMARK    4  A    between atoms: C_8  and  C_9
REMARK    5  A    between atoms: C_11  and  C_12
REMARK    6  A    between atoms: C_12  and  N_13
REMARK    7  A    between atoms: C_15  and  C_16
REMARK    8  A    between atoms: C_16  and  C_17
REMARK    9  A    between atoms: C_17  and  N_18
REMARK                            x       y       z     vdW  Elec       q    Type
REMARK                         _______ _______ _______ _____ _____    ______ ____
ROOT
ATOM      1  C   UNL     1       7.627   5.317  18.585  0.00  0.00    +0.000 C 
ENDROOT
BRANCH   1   2
ATOM      2  N   UNL     1       6.360   4.757  18.062  0.00  0.00    +0.000 N 
ATOM      3  C   UNL     1       6.372   3.767  17.066  0.00  0.00    +0.000 A 
ATOM      4  C   UNL     1       5.296   4.182  16.305  0.00  0.00    +0.000 A 
ATOM      5  C   UNL     1       4.297   4.375  17.283  0.00  0.00    +0.000 A 
ATOM      6  C   UNL     1       2.894   4.386  17.208  0.00  0.00    +0.000 A 
ATOM      7  C   UNL     1       2.159   4.929  18.248  0.00  0.00    +0.000 A 
ATOM      8  C   UNL     1       2.831   5.554  19.300  0.00  0.00    +0.000 A 
ATOM      9  C   UNL     1       4.249   5.609  19.374  0.00  0.00    +0.000 A 
ATOM     10  C   UNL     1       4.997   4.963  18.367  0.00  0.00    +0.000 A 
BRANCH   4  11
ATOM     11  C   UNL     1       5.317   4.998  15.049  0.00  0.00    +0.000 C 
BRANCH  11  12
ATOM     12  C   UNL     1       6.439   4.618  14.100  0.00  0.00    +0.000 C 
BRANCH  12  13
ATOM     13  N   UNL     1       7.598   5.481  14.325  0.00  0.00    +0.000 NA
ATOM     14  H   UNL     1       7.333   6.253  14.937  0.00  0.00    +0.000 HD
ATOM     15  H   UNL     1       7.881   5.892  13.438  0.00  0.00    +0.000 HD
ENDBRANCH  12  13
ENDBRANCH  11  12
ENDBRANCH   4  11
ENDBRANCH   1   2
BRANCH   1  18
ATOM     16  C   UNL     1       8.535   8.894  18.501  0.00  0.00    +0.000 A 
ATOM     17  N   UNL     1       8.649   7.695  19.081  0.00  0.00    +0.000 NA
ATOM     18  C   UNL     1       7.818   6.828  18.332  0.00  0.00    +0.000 A 
ATOM     19  C   UNL     1       7.241   7.583  17.332  0.00  0.00    +0.000 A 
ATOM     20  O   UNL     1       7.686   8.866  17.418  0.00  0.00    +0.000 OA
BRANCH  16  25
ATOM     21  C   UNL     1       9.946  12.426  18.072  0.00  0.00    +0.000 A 
ATOM     22  C   UNL     1      10.327  12.743  19.377  0.00  0.00    +0.000 A 
ATOM     23  C   UNL     1      10.087  11.838  20.404  0.00  0.00    +0.000 A 
ATOM     24  C   UNL     1       9.491  10.599  20.116  0.00  0.00    +0.000 A 
ATOM     25  C   UNL     1       9.111  10.233  18.803  0.00  0.00    +0.000 A 
ATOM     26  C   UNL     1       9.343  11.189  17.786  0.00  0.00    +0.000 A 
BRANCH  21  27
ATOM     27  O   UNL     1      10.282  13.380  17.143  0.00  0.00    +0.000 OA
BRANCH  27  29
ATOM     28  C   UNL     1      11.299  15.547  17.077  0.00  0.00    +0.000 C 
ATOM     29  C   UNL     1      11.505  14.073  17.383  0.00  0.00    +0.000 C 
ENDBRANCH  27  29
ENDBRANCH  21  27
ENDBRANCH  16  25
ENDBRANCH   1  18
TORSDOF 8
ENDMDL
MODEL 5
REMARK VINA RESULT:      -7.8      2.368      8.753
REMARK  Name = 
REMARK  9 active torsions:
REMARK  status: ('A' for Active; 'I' for Inactive)
REMARK    1  A    between atoms: C_1  and  C_2
REMARK    2  A    between atoms: C_2  and  O_3
REMARK    3  A    between atoms: O_3  and  C_4
REMARK    4  A    between atoms: C_8  and  C_9
REMARK    5  A    between atoms: C_11  and  C_12
REMARK    6  A    between atoms: C_12  and  N_13
REMARK    7  A    between atoms: C_15  and  C_16
REMARK    8  A    between atoms: C_16  and  C_17
REMARK    9  A    between atoms: C_17  and  N_18
REMARK                            x       y       z     vdW  Elec       q    Type
REMARK                         _______ _______ _______ _____ _____    ______ ____
ROOT
ATOM      1  C   UNL     1       0.249  11.030  18.759  0.00  0.00    +0.000 C 
ENDROOT
BRANCH   1   2
ATOM      2  N   UNL     1      -1.213  10.877  18.572  0.00  0.00    +0.000 N 
ATOM      3  C   UNL     1      -1.729   9.816  17.811  0.00  0.00    +0.000 A 
ATOM      4  C   UNL     1      -2.761  10.468  17.163  0.00  0.00    +0.000 A 
ATOM      5  C   UNL     1      -3.409  11.129  18.228  0.00  0.00    +0.000 A 
ATOM      6  C   UNL     1      -4.719  11.616  18.378  0.00  0.00    +0.000 A 
ATOM      7  C   UNL     1      -5.000  12.519  19.389  0.00  0.00    +0.000 A 
ATOM      8  C   UNL     1      -3.953  13.012  20.169  0.00  0.00    +0.000 A 
ATOM      9  C   UNL     1      -2.609  12.581  20.002  0.00  0.00    +0.000 A 
ATOM     10  C   UNL     1      -2.341  11.583  19.042  0.00  0.00    +0.000 A 
BRANCH   4  11
ATOM     11  C   UNL     1      -2.762  11.043  15.780  0.00  0.00    +0.000 C 
BRANCH  11  12
ATOM     12  C   UNL     1      -3.556  10.218  14.783  0.00  0.00    +0.000 C 
BRANCH  12  13
ATOM     13  N   UNL     1      -2.839  10.147  13.511  0.00  0.00    +0.000 NA
ATOM     14  H   UNL     1      -3.372   9.578  12.852  0.00  0.00    +0.000 HD
ATOM     15  H   UNL     1      -1.951   9.674  13.657  0.00  0.00    +0.000 HD
ENDBRANCH  12  13
ENDBRANCH  11  12
ENDBRANCH   4  11
ENDBRANCH   1   2
BRANCH   1  18
ATOM     16  C   UNL     1       2.219   7.922  18.467  0.00  0.00    +0.000 A 
ATOM     17  N   UNL     1       1.653   8.981  17.879  0.00  0.00    +0.000 NA
ATOM     18  C   UNL     1       1.021   9.703  18.919  0.00  0.00    +0.000 A 
ATOM     19  C   UNL     1       1.248   9.009  20.090  0.00  0.00    +0.000 A 
ATOM     20  O   UNL     1       2.001   7.907  19.826  0.00  0.00    +0.000 OA
BRANCH  16  25
ATOM     21  C   UNL     1       3.395   4.344  17.784  0.00  0.00    +0.000 A 
ATOM     22  C   UNL     1       4.571   4.562  17.063  0.00  0.00    +0.000 A 
ATOM     23  C   UNL     1       4.962   5.860  16.757  0.00  0.00    +0.000 A 
ATOM     24  C   UNL     1       4.187   6.944  17.201  0.00  0.00    +0.000 A 
ATOM     25  C   UNL     1       2.999   6.765  17.951  0.00  0.00    +0.000 A 
ATOM     26  C   UNL     1       2.616   5.430  18.221  0.00  0.00    +0.000 A 
BRANCH  21  27
ATOM     27  O   UNL     1       3.146   3.024  18.065  0.00  0.00    +0.000 OA
BRANCH  27  29
ATOM     28  C   UNL     1       0.981   2.246  18.734  0.00  0.00    +0.000 C 
ATOM     29  C   UNL     1       2.325   2.779  19.205  0.00  0.00    +0.000 C 
ENDBRANCH  27  29
ENDBRANCH  21  27
ENDBRANCH  16  25
ENDBRANCH   1  18
TORSDOF 8
ENDMDL
MODEL 6
REMARK VINA RESULT:      -7.8      1.618      3.037
REMARK  Name = 
REMARK  9 active torsions:
REMARK  status: ('A' for Active; 'I' for Inactive)
REMARK    1  A    between atoms: C_1  and  C_2
REMARK    2  A    between atoms: C_2  and  O_3
REMARK    3  A    between atoms: O_3  and  C_4
REMARK    4  A    between atoms: C_8  and  C_9
REMARK    5  A    between atoms: C_11  and  C_12
REMARK    6  A    between atoms: C_12  and  N_13
REMARK    7  A    between atoms: C_15  and  C_16
REMARK    8  A    between atoms: C_16  and  C_17
REMARK    9  A    between atoms: C_17  and  N_18
REMARK                            x       y       z     vdW  Elec       q    Type
REMARK                         _______ _______ _______ _____ _____    ______ ____
ROOT
ATOM      1  C   UNL     1       3.112   6.034  19.566  0.00  0.00    +0.000 C 
ENDROOT
BRANCH   1   2
ATOM      2  N   UNL     1       3.542   5.338  18.330  0.00  0.00    +0.000 N 
ATOM      3  C   UNL     1       2.638   4.546  17.604  0.00  0.00    +0.000 A 
ATOM      4  C   UNL     1       3.472   3.506  17.242  0.00  0.00    +0.000 A 
ATOM      5  C   UNL     1       4.591   4.190  16.722  0.00  0.00    +0.000 A 
ATOM      6  C   UNL     1       5.601   3.800  15.826  0.00  0.00    +0.000 A 
ATOM      7  C   UNL     1       6.766   4.546  15.743  0.00  0.00    +0.000 A 
ATOM      8  C   UNL     1       6.957   5.605  16.632  0.00  0.00    +0.000 A 
ATOM      9  C   UNL     1       5.977   5.986  17.588  0.00  0.00    +0.000 A 
ATOM     10  C   UNL     1       4.749   5.292  17.601  0.00  0.00    +0.000 A 
BRANCH   4  11
ATOM     11  C   UNL     1       3.619   2.171  17.904  0.00  0.00    +0.000 C 
BRANCH  11  12
ATOM     12  C   UNL     1       3.653   2.249  19.420  0.00  0.00    +0.000 C 
BRANCH  12  13
ATOM     13  N   UNL     1       5.035   2.356  19.884  0.00  0.00    +0.000 NA
ATOM     14  H   UNL     1       5.047   2.428  20.902  0.00  0.00    +0.000 HD
ATOM     15  H   UNL     1       5.439   3.218  19.524  0.00  0.00    +0.000 HD
ENDBRANCH  12  13
ENDBRANCH  11  12
ENDBRANCH   4  11
ENDBRANCH   1   2
BRANCH   1  18
ATOM     16  C   UNL     1       1.108   9.132  19.651  0.00  0.00    +0.000 A 
ATOM     17  N   UNL     1       1.502   8.004  20.250  0.00  0.00    +0.000 NA
ATOM     18  C   UNL     1       2.368   7.365  19.331  0.00  0.00    +0.000 A 
ATOM     19  C   UNL     1       2.432   8.168  18.211  0.00  0.00    +0.000 A 
ATOM     20  O   UNL     1       1.664   9.275  18.399  0.00  0.00    +0.000 OA
BRANCH  16  25
ATOM     21  C   UNL     1      -1.740  11.689  19.591  0.00  0.00    +0.000 A 
ATOM     22  C   UNL     1      -1.498  12.415  20.759  0.00  0.00    +0.000 A 
ATOM     23  C   UNL     1      -0.445  12.052  21.590  0.00  0.00    +0.000 A 
ATOM     24  C   UNL     1       0.386  10.977  21.234  0.00  0.00    +0.000 A 
ATOM     25  C   UNL     1       0.186  10.230  20.048  0.00  0.00    +0.000 A 
ATOM     26  C   UNL     1      -0.912  10.609  19.239  0.00  0.00    +0.000 A 
BRANCH  21  27
ATOM     27  O   UNL     1      -2.775  12.176  18.832  0.00  0.00    +0.000 OA
BRANCH  27  29
ATOM     28  C   UNL     1      -3.868  11.377  16.855  0.00  0.00    +0.000 C 
ATOM     29  C   UNL     1      -3.704  11.204  18.357  0.00  0.00    +0.000 C 
ENDBRANCH  27  29
ENDBRANCH  21  27
ENDBRANCH  16  25
ENDBRANCH   1  18
TORSDOF 8
ENDMDL
MODEL 7
REMARK VINA RESULT:      -7.7      2.804      3.920
REMARK  Name = 
REMARK  9 active torsions:
REMARK  status: ('A' for Active; 'I' for Inactive)
REMARK    1  A    between atoms: C_1  and  C_2
REMARK    2  A    between atoms: C_2  and  O_3
REMARK    3  A    between atoms: O_3  and  C_4
REMARK    4  A    between atoms: C_8  and  C_9
REMARK    5  A    between atoms: C_11  and  C_12
REMARK    6  A    between atoms: C_12  and  N_13
REMARK    7  A    between atoms: C_15  and  C_16
REMARK    8  A    between atoms: C_16  and  C_17
REMARK    9  A    between atoms: C_17  and  N_18
REMARK                            x       y       z     vdW  Elec       q    Type
REMARK                         _______ _______ _______ _____ _____    ______ ____
ROOT
ATOM      1  C   UNL     1       2.789   5.671  19.922  0.00  0.00    +0.000 C 
ENDROOT
BRANCH   1   2
ATOM      2  N   UNL     1       3.170   5.183  18.576  0.00  0.00    +0.000 N 
ATOM      3  C   UNL     1       2.300   4.361  17.841  0.00  0.00    +0.000 A 
ATOM      4  C   UNL     1       3.214   3.491  17.279  0.00  0.00    +0.000 A 
ATOM      5  C   UNL     1       4.178   4.375  16.750  0.00  0.00    +0.000 A 
ATOM      6  C   UNL     1       5.129   4.229  15.725  0.00  0.00    +0.000 A 
ATOM      7  C   UNL     1       6.176   5.131  15.632  0.00  0.00    +0.000 A 
ATOM      8  C   UNL     1       6.327   6.101  16.625  0.00  0.00    +0.000 A 
ATOM      9  C   UNL     1       5.414   6.235  17.705  0.00  0.00    +0.000 A 
ATOM     10  C   UNL     1       4.289   5.383  17.741  0.00  0.00    +0.000 A 
BRANCH   4  11
ATOM     11  C   UNL     1       3.595   2.123  17.754  0.00  0.00    +0.000 C 
BRANCH  11  12
ATOM     12  C   UNL     1       3.618   1.993  19.266  0.00  0.00    +0.000 C 
BRANCH  12  13
ATOM     13  N   UNL     1       4.937   2.362  19.779  0.00  0.00    +0.000 NA
ATOM     14  H   UNL     1       5.120   1.851  20.643  0.00  0.00    +0.000 HD
ATOM     15  H   UNL     1       4.935   3.351  20.016  0.00  0.00    +0.000 HD
ENDBRANCH  12  13
ENDBRANCH  11  12
ENDBRANCH   4  11
ENDBRANCH   1   2
BRANCH   1  18
ATOM     16  C   UNL     1       1.078   8.864  20.629  0.00  0.00    +0.000 A 
ATOM     17  N   UNL     1       1.484   7.663  21.052  0.00  0.00    +0.000 NA
ATOM     18  C   UNL     1       2.119   7.062  19.939  0.00  0.00    +0.000 A 
ATOM     19  C   UNL     1       2.044   7.961  18.895  0.00  0.00    +0.000 A 
ATOM     20  O   UNL     1       1.409   9.090  19.313  0.00  0.00    +0.000 OA
BRANCH  16  25
ATOM     21  C   UNL     1      -0.275  12.352  21.442  0.00  0.00    +0.000 A 
ATOM     22  C   UNL     1      -1.010  12.111  22.604  0.00  0.00    +0.000 A 
ATOM     23  C   UNL     1      -1.109  10.816  23.101  0.00  0.00    +0.000 A 
ATOM     24  C   UNL     1      -0.443   9.766  22.447  0.00  0.00    +0.000 A 
ATOM     25  C   UNL     1       0.329   9.974  21.279  0.00  0.00    +0.000 A 
ATOM     26  C   UNL     1       0.385  11.298  20.784  0.00  0.00    +0.000 A 
BRANCH  21  27
ATOM     27  O   UNL     1      -0.212  13.675  21.082  0.00  0.00    +0.000 OA
BRANCH  27  29
ATOM     28  C   UNL     1       0.449  14.540  18.948  0.00  0.00    +0.000 C 
ATOM     29  C   UNL     1       0.924  14.052  20.307  0.00  0.00    +0.000 C 
ENDBRANCH  27  29
ENDBRANCH  21  27
ENDBRANCH  16  25
ENDBRANCH   1  18
TORSDOF 8
ENDMDL
MODEL 8
REMARK VINA RESULT:      -7.7      1.833      3.002
REMARK  Name = 
REMARK  9 active torsions:
REMARK  status: ('A' for Active; 'I' for Inactive)
REMARK    1  A    between atoms: C_1  and  C_2
REMARK    2  A    between atoms: C_2  and  O_3
REMARK    3  A    between atoms: O_3  and  C_4
REMARK    4  A    between atoms: C_8  and  C_9
REMARK    5  A    between atoms: C_11  and  C_12
REMARK    6  A    between atoms: C_12  and  N_13
REMARK    7  A    between atoms: C_15  and  C_16
REMARK    8  A    between atoms: C_16  and  C_17
REMARK    9  A    between atoms: C_17  and  N_18
REMARK                            x       y       z     vdW  Elec       q    Type
REMARK                         _______ _______ _______ _____ _____    ______ ____
ROOT
ATOM      1  C   UNL     1       3.161   7.467  17.459  0.00  0.00    +0.000 C 
ENDROOT
BRANCH   1   2
ATOM      2  N   UNL     1       3.590   6.080  17.755  0.00  0.00    +0.000 N 
ATOM      3  C   UNL     1       4.946   5.779  17.962  0.00  0.00    +0.000 A 
ATOM      4  C   UNL     1       5.020   4.561  17.314  0.00  0.00    +0.000 A 
ATOM      5  C   UNL     1       3.916   3.869  17.855  0.00  0.00    +0.000 A 
ATOM      6  C   UNL     1       3.628   2.498  17.972  0.00  0.00    +0.000 A 
ATOM      7  C   UNL     1       2.330   2.093  18.238  0.00  0.00    +0.000 A 
ATOM      8  C   UNL     1       1.315   3.051  18.273  0.00  0.00    +0.000 A 
ATOM      9  C   UNL     1       1.568   4.438  18.100  0.00  0.00    +0.000 A 
ATOM     10  C   UNL     1       2.905   4.859  17.935  0.00  0.00    +0.000 A 
BRANCH   4  11
ATOM     11  C   UNL     1       5.498   4.287  15.921  0.00  0.00    +0.000 C 
BRANCH  11  12
ATOM     12  C   UNL     1       7.008   4.346  15.778  0.00  0.00    +0.000 C 
BRANCH  12  13
ATOM     13  N   UNL     1       7.406   5.632  15.208  0.00  0.00    +0.000 NA
ATOM     14  H   UNL     1       8.131   5.484  14.506  0.00  0.00    +0.000 HD
ATOM     15  H   UNL     1       7.819   6.205  15.940  0.00  0.00    +0.000 HD
ENDBRANCH  12  13
ENDBRANCH  11  12
ENDBRANCH   4  11
ENDBRANCH   1   2
BRANCH   1  18
ATOM     16  C   UNL     1       0.875   9.460  19.563  0.00  0.00    +0.000 A 
ATOM     17  N   UNL     1       1.487   9.277  18.388  0.00  0.00    +0.000 NA
ATOM     18  C   UNL     1       2.280   8.115  18.548  0.00  0.00    +0.000 A 
ATOM     19  C   UNL     1       2.092   7.671  19.840  0.00  0.00    +0.000 A 
ATOM     20  O   UNL     1       1.213   8.490  20.479  0.00  0.00    +0.000 OA
BRANCH  16  25
ATOM     21  C   UNL     1      -0.924  11.896  21.904  0.00  0.00    +0.000 A 
ATOM     22  C   UNL     1      -1.934  12.393  21.079  0.00  0.00    +0.000 A 
ATOM     23  C   UNL     1      -2.009  11.979  19.754  0.00  0.00    +0.000 A 
ATOM     24  C   UNL     1      -1.085  11.041  19.264  0.00  0.00    +0.000 A 
ATOM     25  C   UNL     1      -0.060  10.498  20.076  0.00  0.00    +0.000 A 
ATOM     26  C   UNL     1       0.004  10.962  21.411  0.00  0.00    +0.000 A 
BRANCH  21  27
ATOM     27  O   UNL     1      -0.988  12.343  23.201  0.00  0.00    +0.000 OA
BRANCH  27  29
ATOM     28  C   UNL     1      -1.306  14.553  24.067  0.00  0.00    +0.000 C 
ATOM     29  C   UNL     1      -1.981  13.332  23.464  0.00  0.00    +0.000 C 
ENDBRANCH  27  29
ENDBRANCH  21  27
ENDBRANCH  16  25
ENDBRANCH   1  18
TORSDOF 8
ENDMDL
MODEL 9
REMARK VINA RESULT:      -7.7      2.129      3.881
REMARK  Name = 
REMARK  9 active torsions:
REMARK  status: ('A' for Active; 'I' for Inactive)
REMARK    1  A    between atoms: C_1  and  C_2
REMARK    2  A    between atoms: C_2  and  O_3
REMARK    3  A    between atoms: O_3  and  C_4
REMARK    4  A    between atoms: C_8  and  C_9
REMARK    5  A    between atoms: C_11  and  C_12
REMARK    6  A    between atoms: C_12  and  N_13
REMARK    7  A    between atoms: C_15  and  C_16
REMARK    8  A    between atoms: C_16  and  C_17
REMARK    9  A    between atoms: C_17  and  N_18
REMARK                            x       y       z     vdW  Elec       q    Type
REMARK                         _______ _______ _______ _____ _____    ______ ____
ROOT
ATOM      1  C   UNL     1       2.984   6.157  19.357  0.00  0.00    +0.000 C 
ENDROOT
BRANCH   1   2
ATOM      2  N   UNL     1       3.453   5.388  18.181  0.00  0.00    +0.000 N 
ATOM      3  C   UNL     1       2.581   4.527  17.496  0.00  0.00    +0.000 A 
ATOM      4  C   UNL     1       3.444   3.483  17.222  0.00  0.00    +0.000 A 
ATOM      5  C   UNL     1       4.558   4.155  16.676  0.00  0.00    +0.000 A 
ATOM      6  C   UNL     1       5.594   3.728  15.827  0.00  0.00    +0.000 A 
ATOM      7  C   UNL     1       6.743   4.493  15.714  0.00  0.00    +0.000 A 
ATOM      8  C   UNL     1       6.894   5.615  16.530  0.00  0.00    +0.000 A 
ATOM      9  C   UNL     1       5.888   6.037  17.440  0.00  0.00    +0.000 A 
ATOM     10  C   UNL     1       4.675   5.319  17.478  0.00  0.00    +0.000 A 
BRANCH   4  11
ATOM     11  C   UNL     1       3.607   2.201  17.978  0.00  0.00    +0.000 C 
BRANCH  11  12
ATOM     12  C   UNL     1       3.695   2.393  19.481  0.00  0.00    +0.000 C 
BRANCH  12  13
ATOM     13  N   UNL     1       5.096   2.470  19.893  0.00  0.00    +0.000 NA
ATOM     14  H   UNL     1       5.349   3.445  20.056  0.00  0.00    +0.000 HD
ATOM     15  H   UNL     1       5.683   2.137  19.132  0.00  0.00    +0.000 HD
ENDBRANCH  12  13
ENDBRANCH  11  12
ENDBRANCH   4  11
ENDBRANCH   1   2
BRANCH   1  18
ATOM     16  C   UNL     1       1.267   9.421  19.211  0.00  0.00    +0.000 A 
ATOM     17  N   UNL     1       1.559   8.308  19.892  0.00  0.00    +0.000 NA
ATOM     18  C   UNL     1       2.362   7.530  19.024  0.00  0.00    +0.000 A 
ATOM     19  C   UNL     1       2.497   8.241  17.850  0.00  0.00    +0.000 A 
ATOM     20  O   UNL     1       1.831   9.423  17.955  0.00  0.00    +0.000 OA
BRANCH  16  25
ATOM     21  C   UNL     1      -0.303  12.363  21.090  0.00  0.00    +0.000 A 
ATOM     22  C   UNL     1      -1.217  12.847  20.152  0.00  0.00    +0.000 A 
ATOM     23  C   UNL     1      -1.295  12.255  18.897  0.00  0.00    +0.000 A 
ATOM     24  C   UNL     1      -0.476  11.156  18.592  0.00  0.00    +0.000 A 
ATOM     25  C   UNL     1       0.448  10.623  19.524  0.00  0.00    +0.000 A 
ATOM     26  C   UNL     1       0.522  11.267  20.781  0.00  0.00    +0.000 A 
BRANCH  21  27
ATOM     27  O   UNL     1      -0.357  12.999  22.306  0.00  0.00    +0.000 OA
BRANCH  27  29
ATOM     28  C   UNL     1      -2.093  11.683  23.302  0.00  0.00    +0.000 C 
ATOM     29  C   UNL     1      -1.649  13.081  22.902  0.00  0.00    +0.000 C 
ENDBRANCH  27  29
ENDBRANCH  21  27
ENDBRANCH  16  25
ENDBRANCH   1  18
TORSDOF 8
ENDMDL
