MODEL 1
REMARK VINA RESULT:      -8.3      0.000      0.000
REMARK  Name = 
REMARK  5 active torsions:
REMARK  status: ('A' for Active; 'I' for Inactive)
REMARK    1  A    between atoms: C_1  and  C_2
REMARK    2  A    between atoms: C_10  and  C_11
REMARK    3  A    between atoms: C_11  and  C_12
REMARK    4  A    between atoms: C_11  and  C_21
REMARK    5  A    between atoms: C_22  and  C_23
REMARK                            x       y       z     vdW  Elec       q    Type
REMARK                         _______ _______ _______ _____ _____    ______ ____
ROOT
ATOM      1  C   UNL     1      -0.716  11.261  20.513  0.00  0.00    +0.000 C 
ENDROOT
BRANCH   1  11
ATOM      2  C   UNL     1       2.127  12.994  20.305  0.00  0.00    +0.000 C 
ATOM      3  C   UNL     1       0.935  13.207  21.170  0.00  0.00    +0.000 A 
ATOM      4  N   UNL     1       0.872  14.276  22.025  0.00  0.00    +0.000 N 
ATOM      5  C   UNL     1      -0.339  14.323  22.667  0.00  0.00    +0.000 A 
ATOM      6  C   UNL     1      -0.849  15.285  23.548  0.00  0.00    +0.000 A 
ATOM      7  C   UNL     1      -2.150  15.105  24.025  0.00  0.00    +0.000 A 
ATOM      8  C   UNL     1      -2.897  13.992  23.651  0.00  0.00    +0.000 A 
ATOM      9  C   UNL     1      -2.363  13.030  22.786  0.00  0.00    +0.000 A 
ATOM     10  C   UNL     1      -1.058  13.201  22.268  0.00  0.00    +0.000 A 
ATOM     11  C   UNL     1      -0.253  12.480  21.311  0.00  0.00    +0.000 A 
ATOM     12  H   UNL     1       1.596  14.972  22.131  0.00  0.00    +0.000 HD
ENDBRANCH   1  11
BRANCH   1  13
ATOM     13  C   UNL     1       0.116   9.973  20.683  0.00  0.00    +0.000 A 
ATOM     14  C   UNL     1       0.347   9.314  21.897  0.00  0.00    +0.000 A 
ATOM     15  C   UNL     1      -0.168   9.532  23.277  0.00  0.00    +0.000 C 
ATOM     16  N   UNL     1       1.236   8.293  21.674  0.00  0.00    +0.000 N 
ATOM     17  C   UNL     1       1.613   8.250  20.361  0.00  0.00    +0.000 A 
ATOM     18  C   UNL     1       2.540   7.406  19.731  0.00  0.00    +0.000 A 
ATOM     19  C   UNL     1       2.734   7.553  18.357  0.00  0.00    +0.000 A 
ATOM     20  C   UNL     1       2.018   8.502  17.645  0.00  0.00    +0.000 A 
ATOM     21  C   UNL     1       1.118   9.351  18.300  0.00  0.00    +0.000 A 
ATOM     22  C   UNL     1       0.899   9.249  19.694  0.00  0.00    +0.000 A 
ATOM     23  H   UNL     1       1.590   7.668  22.385  0.00  0.00    +0.000 HD
ENDBRANCH   1  13
BRANCH   1  24
ATOM     24  C   UNL     1      -1.037  11.668  19.075  0.00  0.00    +0.000 A 
ATOM     25  C   UNL     1      -0.626  12.788  18.373  0.00  0.00    +0.000 A 
ATOM     26  N   UNL     1      -1.175  12.748  17.121  0.00  0.00    +0.000 N 
ATOM     27  C   UNL     1      -2.006  11.663  16.997  0.00  0.00    +0.000 A 
ATOM     28  C   UNL     1      -2.834  11.272  15.933  0.00  0.00    +0.000 A 
ATOM     29  C   UNL     1      -3.603  10.116  16.100  0.00  0.00    +0.000 A 
ATOM     30  C   UNL     1      -3.519   9.359  17.264  0.00  0.00    +0.000 A 
ATOM     31  C   UNL     1      -2.666   9.750  18.300  0.00  0.00    +0.000 A 
ATOM     32  C   UNL     1      -1.910  10.937  18.184  0.00  0.00    +0.000 A 
ATOM     33  H   UNL     1      -1.030  13.440  16.400  0.00  0.00    +0.000 HD
ENDBRANCH   1  24
TORSDOF 3
ENDMDL
MODEL 2
REMARK VINA RESULT:      -8.2      1.801      6.254
REMARK  Name = 
REMARK  5 active torsions:
REMARK  status: ('A' for Active; 'I' for Inactive)
REMARK    1  A    between atoms: C_1  and  C_2
REMARK    2  A    between atoms: C_10  and  C_11
REMARK    3  A    between atoms: C_11  and  C_12
REMARK    4  A    between atoms: C_11  and  C_21
REMARK    5  A    between atoms: C_22  and  C_23
REMARK                            x       y       z     vdW  Elec       q    Type
REMARK                         _______ _______ _______ _____ _____    ______ ____
ROOT
ATOM      1  C   UNL     1      -0.068  12.008  20.127  0.00  0.00    +0.000 C 
ENDROOT
BRANCH   1  11
ATOM      2  C   UNL     1      -0.563  10.370  22.991  0.00  0.00    +0.000 C 
ATOM      3  C   UNL     1       0.184   9.964  21.771  0.00  0.00    +0.000 A 
ATOM      4  N   UNL     1       0.767   8.726  21.687  0.00  0.00    +0.000 N 
ATOM      5  C   UNL     1       1.336   8.531  20.454  0.00  0.00    +0.000 A 
ATOM      6  C   UNL     1       1.951   7.392  19.921  0.00  0.00    +0.000 A 
ATOM      7  C   UNL     1       2.408   7.457  18.602  0.00  0.00    +0.000 A 
ATOM      8  C   UNL     1       2.273   8.625  17.859  0.00  0.00    +0.000 A 
ATOM      9  C   UNL     1       1.673   9.761  18.415  0.00  0.00    +0.000 A 
ATOM     10  C   UNL     1       1.179   9.715  19.739  0.00  0.00    +0.000 A 
ATOM     11  C   UNL     1       0.444  10.638  20.572  0.00  0.00    +0.000 A 
ATOM     12  H   UNL     1       0.737   8.024  22.413  0.00  0.00    +0.000 HD
ENDBRANCH   1  11
BRANCH   1  13
ATOM     13  C   UNL     1      -1.491  12.048  19.535  0.00  0.00    +0.000 A 
ATOM     14  C   UNL     1      -2.570  12.765  20.070  0.00  0.00    +0.000 A 
ATOM     15  C   UNL     1      -2.680  13.725  21.203  0.00  0.00    +0.000 C 
ATOM     16  N   UNL     1      -3.697  12.451  19.353  0.00  0.00    +0.000 N 
ATOM     17  C   UNL     1      -3.415  11.548  18.367  0.00  0.00    +0.000 A 
ATOM     18  C   UNL     1      -4.283  10.928  17.456  0.00  0.00    +0.000 A 
ATOM     19  C   UNL     1      -3.737  10.047  16.523  0.00  0.00    +0.000 A 
ATOM     20  C   UNL     1      -2.372   9.808  16.499  0.00  0.00    +0.000 A 
ATOM     21  C   UNL     1      -1.528  10.417  17.436  0.00  0.00    +0.000 A 
ATOM     22  C   UNL     1      -2.038  11.307  18.410  0.00  0.00    +0.000 A 
ATOM     23  H   UNL     1      -4.621  12.815  19.540  0.00  0.00    +0.000 HD
ENDBRANCH   1  13
BRANCH   1  24
ATOM     24  C   UNL     1       1.013  12.736  19.328  0.00  0.00    +0.000 A 
ATOM     25  C   UNL     1       1.184  12.809  17.956  0.00  0.00    +0.000 A 
ATOM     26  N   UNL     1       2.299  13.554  17.691  0.00  0.00    +0.000 N 
ATOM     27  C   UNL     1       2.922  13.916  18.859  0.00  0.00    +0.000 A 
ATOM     28  C   UNL     1       4.128  14.604  19.068  0.00  0.00    +0.000 A 
ATOM     29  C   UNL     1       4.536  14.811  20.390  0.00  0.00    +0.000 A 
ATOM     30  C   UNL     1       3.753  14.386  21.459  0.00  0.00    +0.000 A 
ATOM     31  C   UNL     1       2.541  13.729  21.229  0.00  0.00    +0.000 A 
ATOM     32  C   UNL     1       2.121  13.462  19.907  0.00  0.00    +0.000 A 
ATOM     33  H   UNL     1       2.648  13.771  16.768  0.00  0.00    +0.000 HD
ENDBRANCH   1  24
TORSDOF 3
ENDMDL
MODEL 3
REMARK VINA RESULT:      -7.9      1.955      5.935
REMARK  Name = 
REMARK  5 active torsions:
REMARK  status: ('A' for Active; 'I' for Inactive)
REMARK    1  A    between atoms: C_1  and  C_2
REMARK    2  A    between atoms: C_10  and  C_11
REMARK    3  A    between atoms: C_11  and  C_12
REMARK    4  A    between atoms: C_11  and  C_21
REMARK    5  A    between atoms: C_22  and  C_23
REMARK                            x       y       z     vdW  Elec       q    Type
REMARK                         _______ _______ _______ _____ _____    ______ ____
ROOT
ATOM      1  C   UNL     1      -0.324  12.142  20.458  0.00  0.00    +0.000 C 
ENDROOT
BRANCH   1  11
ATOM      2  C   UNL     1      -0.661  10.237  23.176  0.00  0.00    +0.000 C 
ATOM      3  C   UNL     1       0.063   9.973  21.904  0.00  0.00    +0.000 A 
ATOM      4  N   UNL     1       0.694   8.774  21.693  0.00  0.00    +0.000 N 
ATOM      5  C   UNL     1       1.231   8.714  20.432  0.00  0.00    +0.000 A 
ATOM      6  C   UNL     1       1.876   7.655  19.782  0.00  0.00    +0.000 A 
ATOM      7  C   UNL     1       2.287   7.856  18.463  0.00  0.00    +0.000 A 
ATOM      8  C   UNL     1       2.081   9.079  17.831  0.00  0.00    +0.000 A 
ATOM      9  C   UNL     1       1.453  10.134  18.504  0.00  0.00    +0.000 A 
ATOM     10  C   UNL     1       1.003   9.949  19.832  0.00  0.00    +0.000 A 
ATOM     11  C   UNL     1       0.258  10.762  20.764  0.00  0.00    +0.000 A 
ATOM     12  H   UNL     1       0.715   8.011  22.354  0.00  0.00    +0.000 HD
ENDBRANCH   1  11
BRANCH   1  13
ATOM     13  C   UNL     1      -1.690  12.167  19.743  0.00  0.00    +0.000 A 
ATOM     14  C   UNL     1      -2.838  12.817  20.214  0.00  0.00    +0.000 A 
ATOM     15  C   UNL     1      -3.084  13.711  21.380  0.00  0.00    +0.000 C 
ATOM     16  N   UNL     1      -3.885  12.505  19.384  0.00  0.00    +0.000 N 
ATOM     17  C   UNL     1      -3.483  11.666  18.383  0.00  0.00    +0.000 A 
ATOM     18  C   UNL     1      -4.244  11.067  17.367  0.00  0.00    +0.000 A 
ATOM     19  C   UNL     1      -3.584  10.256  16.444  0.00  0.00    +0.000 A 
ATOM     20  C   UNL     1      -2.214  10.064  16.531  0.00  0.00    +0.000 A 
ATOM     21  C   UNL     1      -1.480  10.650  17.570  0.00  0.00    +0.000 A 
ATOM     22  C   UNL     1      -2.108  11.469  18.537  0.00  0.00    +0.000 A 
ATOM     23  H   UNL     1      -4.835  12.827  19.505  0.00  0.00    +0.000 HD
ENDBRANCH   1  13
BRANCH   1  24
ATOM     24  C   UNL     1       0.758  13.047  19.870  0.00  0.00    +0.000 A 
ATOM     25  C   UNL     1       2.125  12.838  19.796  0.00  0.00    +0.000 A 
ATOM     26  N   UNL     1       2.704  13.927  19.206  0.00  0.00    +0.000 N 
ATOM     27  C   UNL     1       1.762  14.893  18.955  0.00  0.00    +0.000 A 
ATOM     28  C   UNL     1       1.910  16.192  18.442  0.00  0.00    +0.000 A 
ATOM     29  C   UNL     1       0.758  16.976  18.318  0.00  0.00    +0.000 A 
ATOM     30  C   UNL     1      -0.494  16.470  18.652  0.00  0.00    +0.000 A 
ATOM     31  C   UNL     1      -0.623  15.163  19.132  0.00  0.00    +0.000 A 
ATOM     32  C   UNL     1       0.524  14.361  19.315  0.00  0.00    +0.000 A 
ATOM     33  H   UNL     1       3.692  14.032  19.021  0.00  0.00    +0.000 HD
ENDBRANCH   1  24
TORSDOF 3
ENDMDL
MODEL 4
REMARK VINA RESULT:      -7.9      1.878      6.192
REMARK  Name = 
REMARK  5 active torsions:
REMARK  status: ('A' for Active; 'I' for Inactive)
REMARK    1  A    between atoms: C_1  and  C_2
REMARK    2  A    between atoms: C_10  and  C_11
REMARK    3  A    between atoms: C_11  and  C_12
REMARK    4  A    between atoms: C_11  and  C_21
REMARK    5  A    between atoms: C_22  and  C_23
REMARK                            x       y       z     vdW  Elec       q    Type
REMARK                         _______ _______ _______ _____ _____    ______ ____
ROOT
ATOM      1  C   UNL     1       0.237  11.807  20.080  0.00  0.00    +0.000 C 
ENDROOT
BRANCH   1  11
ATOM      2  C   UNL     1       1.730   9.517  18.169  0.00  0.00    +0.000 C 
ATOM      3  C   UNL     1       0.342  10.048  18.121  0.00  0.00    +0.000 A 
ATOM      4  N   UNL     1      -0.563   9.562  17.213  0.00  0.00    +0.000 N 
ATOM      5  C   UNL     1      -1.797  10.134  17.392  0.00  0.00    +0.000 A 
ATOM      6  C   UNL     1      -3.011   9.866  16.748  0.00  0.00    +0.000 A 
ATOM      7  C   UNL     1      -4.140  10.575  17.166  0.00  0.00    +0.000 A 
ATOM      8  C   UNL     1      -4.047  11.532  18.173  0.00  0.00    +0.000 A 
ATOM      9  C   UNL     1      -2.820  11.801  18.791  0.00  0.00    +0.000 A 
ATOM     10  C   UNL     1      -1.667  11.080  18.405  0.00  0.00    +0.000 A 
ATOM     11  C   UNL     1      -0.303  11.033  18.878  0.00  0.00    +0.000 A 
ATOM     12  H   UNL     1      -0.368   8.838  16.537  0.00  0.00    +0.000 HD
ENDBRANCH   1  11
BRANCH   1  13
ATOM     13  C   UNL     1      -0.538  11.647  21.404  0.00  0.00    +0.000 A 
ATOM     14  C   UNL     1      -0.414  10.568  22.289  0.00  0.00    +0.000 A 
ATOM     15  C   UNL     1       0.495   9.389  22.319  0.00  0.00    +0.000 C 
ATOM     16  N   UNL     1      -1.354  10.708  23.279  0.00  0.00    +0.000 N 
ATOM     17  C   UNL     1      -2.106  11.833  23.084  0.00  0.00    +0.000 A 
ATOM     18  C   UNL     1      -3.198  12.309  23.824  0.00  0.00    +0.000 A 
ATOM     19  C   UNL     1      -3.789  13.509  23.426  0.00  0.00    +0.000 A 
ATOM     20  C   UNL     1      -3.294  14.207  22.336  0.00  0.00    +0.000 A 
ATOM     21  C   UNL     1      -2.219  13.698  21.596  0.00  0.00    +0.000 A 
ATOM     22  C   UNL     1      -1.598  12.479  21.953  0.00  0.00    +0.000 A 
ATOM     23  H   UNL     1      -1.495  10.058  24.038  0.00  0.00    +0.000 HD
ENDBRANCH   1  13
BRANCH   1  24
ATOM     24  C   UNL     1       0.577  13.240  19.670  0.00  0.00    +0.000 A 
ATOM     25  C   UNL     1      -0.092  14.079  18.795  0.00  0.00    +0.000 A 
ATOM     26  N   UNL     1       0.586  15.264  18.718  0.00  0.00    +0.000 N 
ATOM     27  C   UNL     1       1.736  15.207  19.464  0.00  0.00    +0.000 A 
ATOM     28  C   UNL     1       2.768  16.147  19.612  0.00  0.00    +0.000 A 
ATOM     29  C   UNL     1       3.849  15.801  20.429  0.00  0.00    +0.000 A 
ATOM     30  C   UNL     1       3.880  14.585  21.103  0.00  0.00    +0.000 A 
ATOM     31  C   UNL     1       2.827  13.675  20.966  0.00  0.00    +0.000 A 
ATOM     32  C   UNL     1       1.742  13.972  20.112  0.00  0.00    +0.000 A 
ATOM     33  H   UNL     1       0.308  16.057  18.157  0.00  0.00    +0.000 HD
ENDBRANCH   1  24
TORSDOF 3
ENDMDL
MODEL 5
REMARK VINA RESULT:      -7.9      0.755      2.344
REMARK  Name = 
REMARK  5 active torsions:
REMARK  status: ('A' for Active; 'I' for Inactive)
REMARK    1  A    between atoms: C_1  and  C_2
REMARK    2  A    between atoms: C_10  and  C_11
REMARK    3  A    between atoms: C_11  and  C_12
REMARK    4  A    between atoms: C_11  and  C_21
REMARK    5  A    between atoms: C_22  and  C_23
REMARK                            x       y       z     vdW  Elec       q    Type
REMARK                         _______ _______ _______ _____ _____    ______ ____
ROOT
ATOM      1  C   UNL     1      -0.860  11.386  20.395  0.00  0.00    +0.000 C 
ENDROOT
BRANCH   1  11
ATOM      2  C   UNL     1      -2.301  13.081  22.881  0.00  0.00    +0.000 C 
ATOM      3  C   UNL     1      -0.998  13.302  22.199  0.00  0.00    +0.000 A 
ATOM      4  N   UNL     1      -0.159  14.309  22.602  0.00  0.00    +0.000 N 
ATOM      5  C   UNL     1       1.014  14.286  21.891  0.00  0.00    +0.000 A 
ATOM      6  C   UNL     1       2.165  15.071  22.037  0.00  0.00    +0.000 A 
ATOM      7  C   UNL     1       3.248  14.799  21.196  0.00  0.00    +0.000 A 
ATOM      8  C   UNL     1       3.168  13.797  20.233  0.00  0.00    +0.000 A 
ATOM      9  C   UNL     1       2.001  13.037  20.089  0.00  0.00    +0.000 A 
ATOM     10  C   UNL     1       0.900  13.273  20.943  0.00  0.00    +0.000 A 
ATOM     11  C   UNL     1      -0.383  12.638  21.131  0.00  0.00    +0.000 A 
ATOM     12  H   UNL     1      -0.350  14.950  23.358  0.00  0.00    +0.000 HD
ENDBRANCH   1  11
BRANCH   1  13
ATOM     13  C   UNL     1      -0.038  10.101  20.624  0.00  0.00    +0.000 A 
ATOM     14  C   UNL     1       0.144   9.466  21.860  0.00  0.00    +0.000 A 
ATOM     15  C   UNL     1      -0.426   9.713  23.214  0.00  0.00    +0.000 C 
ATOM     16  N   UNL     1       1.038   8.439  21.693  0.00  0.00    +0.000 N 
ATOM     17  C   UNL     1       1.467   8.370  20.397  0.00  0.00    +0.000 A 
ATOM     18  C   UNL     1       2.416   7.511  19.821  0.00  0.00    +0.000 A 
ATOM     19  C   UNL     1       2.664   7.630  18.453  0.00  0.00    +0.000 A 
ATOM     20  C   UNL     1       1.978   8.565  17.694  0.00  0.00    +0.000 A 
ATOM     21  C   UNL     1       1.056   9.429  18.296  0.00  0.00    +0.000 A 
ATOM     22  C   UNL     1       0.781   9.356  19.682  0.00  0.00    +0.000 A 
ATOM     23  H   UNL     1       1.362   7.829  22.429  0.00  0.00    +0.000 HD
ENDBRANCH   1  13
BRANCH   1  24
ATOM     24  C   UNL     1      -1.184  11.726  18.941  0.00  0.00    +0.000 A 
ATOM     25  C   UNL     1      -0.784  12.818  18.190  0.00  0.00    +0.000 A 
ATOM     26  N   UNL     1      -1.331  12.717  16.941  0.00  0.00    +0.000 N 
ATOM     27  C   UNL     1      -2.151  11.619  16.865  0.00  0.00    +0.000 A 
ATOM     28  C   UNL     1      -2.974  11.172  15.818  0.00  0.00    +0.000 A 
ATOM     29  C   UNL     1      -3.731  10.017  16.036  0.00  0.00    +0.000 A 
ATOM     30  C   UNL     1      -3.640   9.313  17.232  0.00  0.00    +0.000 A 
ATOM     31  C   UNL     1      -2.792   9.758  18.251  0.00  0.00    +0.000 A 
ATOM     32  C   UNL     1      -2.048  10.947  18.083  0.00  0.00    +0.000 A 
ATOM     33  H   UNL     1      -1.193  13.378  16.190  0.00  0.00    +0.000 HD
ENDBRANCH   1  24
TORSDOF 3
ENDMDL
MODEL 6
REMARK VINA RESULT:      -7.9      0.676      6.246
REMARK  Name = 
REMARK  5 active torsions:
REMARK  status: ('A' for Active; 'I' for Inactive)
REMARK    1  A    between atoms: C_1  and  C_2
REMARK    2  A    between atoms: C_10  and  C_11
REMARK    3  A    between atoms: C_11  and  C_12
REMARK    4  A    between atoms: C_11  and  C_21
REMARK    5  A    between atoms: C_22  and  C_23
REMARK                            x       y       z     vdW  Elec       q    Type
REMARK                         _______ _______ _______ _____ _____    ______ ____
ROOT
ATOM      1  C   UNL     1      -1.005  11.117  20.492  0.00  0.00    +0.000 C 
ENDROOT
BRANCH   1  11
ATOM      2  C   UNL     1      -0.273   9.555  23.347  0.00  0.00    +0.000 C 
ATOM      3  C   UNL     1       0.294   9.376  21.984  0.00  0.00    +0.000 A 
ATOM      4  N   UNL     1       1.245   8.419  21.741  0.00  0.00    +0.000 N 
ATOM      5  C   UNL     1       1.572   8.376  20.410  0.00  0.00    +0.000 A 
ATOM      6  C   UNL     1       2.423   7.500  19.724  0.00  0.00    +0.000 A 
ATOM      7  C   UNL     1       2.538   7.656  18.341  0.00  0.00    +0.000 A 
ATOM      8  C   UNL     1       1.845   8.664  17.677  0.00  0.00    +0.000 A 
ATOM      9  C   UNL     1       1.014   9.543  18.382  0.00  0.00    +0.000 A 
ATOM     10  C   UNL     1       0.860   9.392  19.780  0.00  0.00    +0.000 A 
ATOM     11  C   UNL     1       0.040  10.039  20.777  0.00  0.00    +0.000 A 
ATOM     12  H   UNL     1       1.619   7.789  22.436  0.00  0.00    +0.000 HD
ENDBRANCH   1  11
BRANCH   1  13
ATOM     13  C   UNL     1      -1.247  11.463  19.009  0.00  0.00    +0.000 A 
ATOM     14  C   UNL     1      -0.728  12.581  18.344  0.00  0.00    +0.000 A 
ATOM     15  C   UNL     1       0.228  13.646  18.756  0.00  0.00    +0.000 C 
ATOM     16  N   UNL     1      -1.266  12.624  17.082  0.00  0.00    +0.000 N 
ATOM     17  C   UNL     1      -2.130  11.584  16.882  0.00  0.00    +0.000 A 
ATOM     18  C   UNL     1      -2.926  11.294  15.764  0.00  0.00    +0.000 A 
ATOM     19  C   UNL     1      -3.717  10.145  15.802  0.00  0.00    +0.000 A 
ATOM     20  C   UNL     1      -3.700   9.317  16.913  0.00  0.00    +0.000 A 
ATOM     21  C   UNL     1      -2.917   9.641  18.028  0.00  0.00    +0.000 A 
ATOM     22  C   UNL     1      -2.110  10.803  18.042  0.00  0.00    +0.000 A 
ATOM     23  H   UNL     1      -1.075  13.341  16.396  0.00  0.00    +0.000 HD
ENDBRANCH   1  13
BRANCH   1  24
ATOM     24  C   UNL     1      -0.802  12.304  21.433  0.00  0.00    +0.000 A 
ATOM     25  C   UNL     1       0.326  13.085  21.622  0.00  0.00    +0.000 A 
ATOM     26  N   UNL     1       0.056  14.022  22.581  0.00  0.00    +0.000 N 
ATOM     27  C   UNL     1      -1.204  13.835  23.092  0.00  0.00    +0.000 A 
ATOM     28  C   UNL     1      -1.865  14.499  24.137  0.00  0.00    +0.000 A 
ATOM     29  C   UNL     1      -3.156  14.070  24.464  0.00  0.00    +0.000 A 
ATOM     30  C   UNL     1      -3.776  13.050  23.750  0.00  0.00    +0.000 A 
ATOM     31  C   UNL     1      -3.111  12.422  22.693  0.00  0.00    +0.000 A 
ATOM     32  C   UNL     1      -1.789  12.798  22.366  0.00  0.00    +0.000 A 
ATOM     33  H   UNL     1       0.704  14.726  22.904  0.00  0.00    +0.000 HD
ENDBRANCH   1  24
TORSDOF 3
ENDMDL
MODEL 7
REMARK VINA RESULT:      -7.8      1.079      5.078
REMARK  Name = 
REMARK  5 active torsions:
REMARK  status: ('A' for Active; 'I' for Inactive)
REMARK    1  A    between atoms: C_1  and  C_2
REMARK    2  A    between atoms: C_10  and  C_11
REMARK    3  A    between atoms: C_11  and  C_12
REMARK    4  A    between atoms: C_11  and  C_21
REMARK    5  A    between atoms: C_22  and  C_23
REMARK                            x       y       z     vdW  Elec       q    Type
REMARK                         _______ _______ _______ _____ _____    ______ ____
ROOT
ATOM      1  C   UNL     1       0.048  11.545  20.640  0.00  0.00    +0.000 C 
ENDROOT
BRANCH   1  11
ATOM      2  C   UNL     1       0.869  14.083  18.636  0.00  0.00    +0.000 C 
ATOM      3  C   UNL     1      -0.150  13.014  18.461  0.00  0.00    +0.000 A 
ATOM      4  N   UNL     1      -0.900  12.943  17.315  0.00  0.00    +0.000 N 
ATOM      5  C   UNL     1      -1.720  11.843  17.330  0.00  0.00    +0.000 A 
ATOM      6  C   UNL     1      -2.576  11.350  16.338  0.00  0.00    +0.000 A 
ATOM      7  C   UNL     1      -3.269  10.167  16.606  0.00  0.00    +0.000 A 
ATOM      8  C   UNL     1      -3.126   9.520  17.830  0.00  0.00    +0.000 A 
ATOM      9  C   UNL     1      -2.281  10.039  18.818  0.00  0.00    +0.000 A 
ATOM     10  C   UNL     1      -1.548  11.221  18.564  0.00  0.00    +0.000 A 
ATOM     11  C   UNL     1      -0.547  11.962  19.295  0.00  0.00    +0.000 A 
ATOM     12  H   UNL     1      -0.823  13.580  16.536  0.00  0.00    +0.000 HD
ENDBRANCH   1  11
BRANCH   1  13
ATOM     13  C   UNL     1       0.569  10.097  20.739  0.00  0.00    +0.000 A 
ATOM     14  C   UNL     1       0.627   9.336  21.914  0.00  0.00    +0.000 A 
ATOM     15  C   UNL     1       0.148   9.587  23.302  0.00  0.00    +0.000 C 
ATOM     16  N   UNL     1       1.269   8.156  21.637  0.00  0.00    +0.000 N 
ATOM     17  C   UNL     1       1.651   8.103  20.325  0.00  0.00    +0.000 A 
ATOM     18  C   UNL     1       2.377   7.110  19.652  0.00  0.00    +0.000 A 
ATOM     19  C   UNL     1       2.624   7.285  18.290  0.00  0.00    +0.000 A 
ATOM     20  C   UNL     1       2.149   8.408  17.630  0.00  0.00    +0.000 A 
ATOM     21  C   UNL     1       1.450   9.399  18.329  0.00  0.00    +0.000 A 
ATOM     22  C   UNL     1       1.189   9.272  19.714  0.00  0.00    +0.000 A 
ATOM     23  H   UNL     1       1.463   7.430  22.312  0.00  0.00    +0.000 HD
ENDBRANCH   1  13
BRANCH   1  24
ATOM     24  C   UNL     1      -0.857  12.012  21.779  0.00  0.00    +0.000 A 
ATOM     25  C   UNL     1      -1.949  11.374  22.344  0.00  0.00    +0.000 A 
ATOM     26  N   UNL     1      -2.466  12.175  23.324  0.00  0.00    +0.000 N 
ATOM     27  C   UNL     1      -1.790  13.369  23.374  0.00  0.00    +0.000 A 
ATOM     28  C   UNL     1      -2.024  14.511  24.157  0.00  0.00    +0.000 A 
ATOM     29  C   UNL     1      -1.177  15.608  23.973  0.00  0.00    +0.000 A 
ATOM     30  C   UNL     1      -0.115  15.553  23.075  0.00  0.00    +0.000 A 
ATOM     31  C   UNL     1       0.118  14.395  22.327  0.00  0.00    +0.000 A 
ATOM     32  C   UNL     1      -0.746  13.286  22.453  0.00  0.00    +0.000 A 
ATOM     33  H   UNL     1      -3.263  11.946  23.902  0.00  0.00    +0.000 HD
ENDBRANCH   1  24
TORSDOF 3
ENDMDL
MODEL 8
REMARK VINA RESULT:      -7.7      1.521      3.063
REMARK  Name = 
REMARK  5 active torsions:
REMARK  status: ('A' for Active; 'I' for Inactive)
REMARK    1  A    between atoms: C_1  and  C_2
REMARK    2  A    between atoms: C_10  and  C_11
REMARK    3  A    between atoms: C_11  and  C_12
REMARK    4  A    between atoms: C_11  and  C_21
REMARK    5  A    between atoms: C_22  and  C_23
REMARK                            x       y       z     vdW  Elec       q    Type
REMARK                         _______ _______ _______ _____ _____    ______ ____
ROOT
ATOM      1  C   UNL     1      -0.756  10.834  20.086  0.00  0.00    +0.000 C 
ENDROOT
BRANCH   1  11
ATOM      2  C   UNL     1      -1.338  13.098  22.467  0.00  0.00    +0.000 C 
ATOM      3  C   UNL     1      -0.364  13.117  21.343  0.00  0.00    +0.000 A 
ATOM      4  N   UNL     1       0.508  14.163  21.190  0.00  0.00    +0.000 N 
ATOM      5  C   UNL     1       1.364  13.943  20.141  0.00  0.00    +0.000 A 
ATOM      6  C   UNL     1       2.451  14.705  19.696  0.00  0.00    +0.000 A 
ATOM      7  C   UNL     1       3.190  14.216  18.616  0.00  0.00    +0.000 A 
ATOM      8  C   UNL     1       2.835  13.022  17.994  0.00  0.00    +0.000 A 
ATOM      9  C   UNL     1       1.732  12.284  18.440  0.00  0.00    +0.000 A 
ATOM     10  C   UNL     1       0.983  12.743  19.547  0.00  0.00    +0.000 A 
ATOM     11  C   UNL     1      -0.121  12.207  20.308  0.00  0.00    +0.000 A 
ATOM     12  H   UNL     1       0.556  14.967  21.800  0.00  0.00    +0.000 HD
ENDBRANCH   1  11
BRANCH   1  13
ATOM     13  C   UNL     1       0.145   9.611  20.353  0.00  0.00    +0.000 A 
ATOM     14  C   UNL     1       0.341   9.007  21.603  0.00  0.00    +0.000 A 
ATOM     15  C   UNL     1      -0.274   9.235  22.940  0.00  0.00    +0.000 C 
ATOM     16  N   UNL     1       1.305   8.041  21.471  0.00  0.00    +0.000 N 
ATOM     17  C   UNL     1       1.767   7.982  20.186  0.00  0.00    +0.000 A 
ATOM     18  C   UNL     1       2.784   7.181  19.644  0.00  0.00    +0.000 A 
ATOM     19  C   UNL     1       3.055   7.296  18.281  0.00  0.00    +0.000 A 
ATOM     20  C   UNL     1       2.326   8.172  17.492  0.00  0.00    +0.000 A 
ATOM     21  C   UNL     1       1.333   8.981  18.060  0.00  0.00    +0.000 A 
ATOM     22  C   UNL     1       1.033   8.909  19.441  0.00  0.00    +0.000 A 
ATOM     23  H   UNL     1       1.653   7.464  22.224  0.00  0.00    +0.000 HD
ENDBRANCH   1  13
BRANCH   1  24
ATOM     24  C   UNL     1      -1.531  10.822  18.769  0.00  0.00    +0.000 A 
ATOM     25  C   UNL     1      -1.113  10.413  17.514  0.00  0.00    +0.000 A 
ATOM     26  N   UNL     1      -2.137  10.601  16.627  0.00  0.00    +0.000 N 
ATOM     27  C   UNL     1      -3.205  11.198  17.248  0.00  0.00    +0.000 A 
ATOM     28  C   UNL     1      -4.425  11.648  16.719  0.00  0.00    +0.000 A 
ATOM     29  C   UNL     1      -5.329  12.253  17.598  0.00  0.00    +0.000 A 
ATOM     30  C   UNL     1      -5.046  12.366  18.956  0.00  0.00    +0.000 A 
ATOM     31  C   UNL     1      -3.837  11.884  19.467  0.00  0.00    +0.000 A 
ATOM     32  C   UNL     1      -2.881  11.310  18.600  0.00  0.00    +0.000 A 
ATOM     33  H   UNL     1      -2.102  10.376  15.643  0.00  0.00    +0.000 HD
ENDBRANCH   1  24
TORSDOF 3
ENDMDL
MODEL 9
REMARK VINA RESULT:      -7.7      2.056      3.315
REMARK  Name = 
REMARK  5 active torsions:
REMARK  status: ('A' for Active; 'I' for Inactive)
REMARK    1  A    between atoms: C_1  and  C_2
REMARK    2  A    between atoms: C_10  and  C_11
REMARK    3  A    between atoms: C_11  and  C_12
REMARK    4  A    between atoms: C_11  and  C_21
REMARK    5  A    between atoms: C_22  and  C_23
REMARK                            x       y       z     vdW  Elec       q    Type
REMARK                         _______ _______ _______ _____ _____    ______ ____
ROOT
ATOM      1  C   UNL     1      -1.458  11.991  20.003  0.00  0.00    +0.000 C 
ENDROOT
BRANCH   1  11
ATOM      2  C   UNL     1      -2.207  14.904  21.447  0.00  0.00    +0.000 C 
ATOM      3  C   UNL     1      -1.051  14.528  20.590  0.00  0.00    +0.000 A 
ATOM      4  N   UNL     1      -0.056  15.432  20.320  0.00  0.00    +0.000 N 
ATOM      5  C   UNL     1       0.944  14.857  19.578  0.00  0.00    +0.000 A 
ATOM      6  C   UNL     1       2.171  15.391  19.162  0.00  0.00    +0.000 A 
ATOM      7  C   UNL     1       3.033  14.557  18.447  0.00  0.00    +0.000 A 
ATOM      8  C   UNL     1       2.668  13.249  18.142  0.00  0.00    +0.000 A 
ATOM      9  C   UNL     1       1.429  12.739  18.549  0.00  0.00    +0.000 A 
ATOM     10  C   UNL     1       0.548  13.553  19.296  0.00  0.00    +0.000 A 
ATOM     11  C   UNL     1      -0.727  13.332  19.938  0.00  0.00    +0.000 A 
ATOM     12  H   UNL     1      -0.031  16.381  20.665  0.00  0.00    +0.000 HD
ENDBRANCH   1  11
BRANCH   1  13
ATOM     13  C   UNL     1      -0.619  10.773  20.441  0.00  0.00    +0.000 A 
ATOM     14  C   UNL     1      -0.450  10.340  21.762  0.00  0.00    +0.000 A 
ATOM     15  C   UNL     1      -1.050  10.781  23.052  0.00  0.00    +0.000 C 
ATOM     16  N   UNL     1       0.465   9.318  21.771  0.00  0.00    +0.000 N 
ATOM     17  C   UNL     1       0.920   9.058  20.508  0.00  0.00    +0.000 A 
ATOM     18  C   UNL     1       1.894   8.140  20.087  0.00  0.00    +0.000 A 
ATOM     19  C   UNL     1       2.167   8.052  18.722  0.00  0.00    +0.000 A 
ATOM     20  C   UNL     1       1.481   8.845  17.817  0.00  0.00    +0.000 A 
ATOM     21  C   UNL     1       0.532   9.773  18.262  0.00  0.00    +0.000 A 
ATOM     22  C   UNL     1       0.232   9.908  19.638  0.00  0.00    +0.000 A 
ATOM     23  H   UNL     1       0.785   8.834  22.598  0.00  0.00    +0.000 HD
ENDBRANCH   1  13
BRANCH   1  24
ATOM     24  C   UNL     1      -2.314  11.801  18.751  0.00  0.00    +0.000 A 
ATOM     25  C   UNL     1      -1.912  11.592  17.442  0.00  0.00    +0.000 A 
ATOM     26  N   UNL     1      -3.024  11.498  16.652  0.00  0.00    +0.000 N 
ATOM     27  C   UNL     1      -4.159  11.717  17.392  0.00  0.00    +0.000 A 
ATOM     28  C   UNL     1      -5.501  11.799  16.991  0.00  0.00    +0.000 A 
ATOM     29  C   UNL     1      -6.458  12.063  17.976  0.00  0.00    +0.000 A 
ATOM     30  C   UNL     1      -6.095  12.199  19.312  0.00  0.00    +0.000 A 
ATOM     31  C   UNL     1      -4.755  12.084  19.695  0.00  0.00    +0.000 A 
ATOM     32  C   UNL     1      -3.758  11.865  18.720  0.00  0.00    +0.000 A 
ATOM     33  H   UNL     1      -3.016  11.337  15.654  0.00  0.00    +0.000 HD
ENDBRANCH   1  24
TORSDOF 3
ENDMDL
