MODEL 1
REMARK VINA RESULT:      -7.9      0.000      0.000
REMARK  Name = 
REMARK  9 active torsions:
REMARK  status: ('A' for Active; 'I' for Inactive)
REMARK    1  A    between atoms: C_1  and  O_2
REMARK    2  A    between atoms: O_2  and  C_3
REMARK    3  A    between atoms: C_3  and  C_4
REMARK    4  A    between atoms: C_4  and  N_5
REMARK    5  A    between atoms: N_5  and  C_6
REMARK    6  A    between atoms: N_5  and  C_14
REMARK    7  A    between atoms: C_6  and  C_7
REMARK    8  A    between atoms: C_14  and  C_15
REMARK    9  A    between atoms: N_17  and  C_18
REMARK                            x       y       z     vdW  Elec       q    Type
REMARK                         _______ _______ _______ _____ _____    ______ ____
ROOT
ATOM      1  C   UNL     1       4.909   5.520  18.088  0.00  0.00    +0.000 A 
ATOM      2  N   UNL     1       4.304   6.722  18.168  0.00  0.00    +0.000 NA
ATOM      3  N   UNL     1       3.039   6.483  18.597  0.00  0.00    +0.000 N 
ATOM      4  C   UNL     1       2.778   5.129  18.583  0.00  0.00    +0.000 A 
ATOM      5  C   UNL     1       3.950   4.486  18.236  0.00  0.00    +0.000 A 
ATOM      6  C   UNL     1       4.029   3.013  18.106  0.00  0.00    +0.000 C 
ATOM      7  C   UNL     1       2.648   2.444  17.775  0.00  0.00    +0.000 C 
ATOM      8  S   UNL     1       1.419   2.976  18.975  0.00  0.00    +0.000 S 
ATOM      9  O   UNL     1       0.111   2.601  18.484  0.00  0.00    +0.000 OA
ATOM     10  O   UNL     1       1.863   2.591  20.300  0.00  0.00    +0.000 OA
ATOM     11  O   UNL     1       1.582   4.599  18.817  0.00  0.00    +0.000 OA
ENDROOT
BRANCH   3  12
ATOM     12  C   UNL     1       2.190   7.520  19.051  0.00  0.00    +0.000 A 
ATOM     13  C   UNL     1       1.828   8.584  18.197  0.00  0.00    +0.000 A 
ATOM     14  C   UNL     1       0.965   9.591  18.638  0.00  0.00    +0.000 A 
ATOM     15  C   UNL     1       0.462   9.564  19.936  0.00  0.00    +0.000 A 
ATOM     16  C   UNL     1       0.825   8.526  20.794  0.00  0.00    +0.000 A 
ATOM     17  C   UNL     1       1.673   7.507  20.351  0.00  0.00    +0.000 A 
ATOM     18  F   UNL     1       2.029   6.568  21.238  0.00  0.00    +0.000 F 
ENDBRANCH   3  12
BRANCH   1  19
ATOM     19  C   UNL     1       6.415   5.438  17.838  0.00  0.00    +0.000 C 
BRANCH  19  20
ATOM     20  N   UNL     1       6.859   6.205  16.644  0.00  0.00    +0.000 NA
BRANCH  20  21
ATOM     21  C   UNL     1       7.597   7.440  17.033  0.00  0.00    +0.000 C 
BRANCH  21  22
ATOM     22  C   UNL     1       8.198   7.380  18.461  0.00  0.00    +0.000 C 
BRANCH  22  24
ATOM     23  C   UNL     1       8.460   9.645  17.924  0.00  0.00    +0.000 C 
ATOM     24  O   UNL     1       8.659   8.651  18.934  0.00  0.00    +0.000 OA
ENDBRANCH  22  24
ENDBRANCH  21  22
ENDBRANCH  20  21
BRANCH  20  25
ATOM     25  C   UNL     1       7.595   5.386  15.659  0.00  0.00    +0.000 C 
BRANCH  25  26
ATOM     26  C   UNL     1       6.829   4.794  14.491  0.00  0.00    +0.000 A 
ATOM     27  C   UNL     1       7.435   4.677  13.233  0.00  0.00    +0.000 A 
ATOM     28  C   UNL     1       6.801   4.020  12.178  0.00  0.00    +0.000 A 
ATOM     29  C   UNL     1       5.543   3.467  12.373  0.00  0.00    +0.000 A 
ATOM     30 CL   UNL     1       4.801   2.568  11.109  0.00  0.00    +0.000 Cl
ATOM     31  C   UNL     1       4.899   3.606  13.598  0.00  0.00    +0.000 A 
ATOM     32  C   UNL     1       5.539   4.267  14.651  0.00  0.00    +0.000 A 
ENDBRANCH  25  26
ENDBRANCH  20  25
ENDBRANCH  19  20
ENDBRANCH   1  19
TORSDOF 8
ENDMDL
MODEL 2
REMARK VINA RESULT:      -7.9      4.230      7.878
REMARK  Name = 
REMARK  9 active torsions:
REMARK  status: ('A' for Active; 'I' for Inactive)
REMARK    1  A    between atoms: C_1  and  O_2
REMARK    2  A    between atoms: O_2  and  C_3
REMARK    3  A    between atoms: C_3  and  C_4
REMARK    4  A    between atoms: C_4  and  N_5
REMARK    5  A    between atoms: N_5  and  C_6
REMARK    6  A    between atoms: N_5  and  C_14
REMARK    7  A    between atoms: C_6  and  C_7
REMARK    8  A    between atoms: C_14  and  C_15
REMARK    9  A    between atoms: N_17  and  C_18
REMARK                            x       y       z     vdW  Elec       q    Type
REMARK                         _______ _______ _______ _____ _____    ______ ____
ROOT
ATOM      1  C   UNL     1       2.631   7.691  18.133  0.00  0.00    +0.000 A 
ATOM      2  N   UNL     1       1.857   6.814  18.803  0.00  0.00    +0.000 NA
ATOM      3  N   UNL     1       2.529   5.635  18.801  0.00  0.00    +0.000 N 
ATOM      4  C   UNL     1       3.616   5.707  17.954  0.00  0.00    +0.000 A 
ATOM      5  C   UNL     1       3.693   7.006  17.491  0.00  0.00    +0.000 A 
ATOM      6  C   UNL     1       4.740   7.438  16.538  0.00  0.00    +0.000 C 
ATOM      7  C   UNL     1       5.228   6.241  15.719  0.00  0.00    +0.000 C 
ATOM      8  S   UNL     1       5.763   4.897  16.786  0.00  0.00    +0.000 S 
ATOM      9  O   UNL     1       5.990   3.727  15.966  0.00  0.00    +0.000 OA
ATOM     10  O   UNL     1       6.786   5.394  17.685  0.00  0.00    +0.000 OA
ATOM     11  O   UNL     1       4.382   4.668  17.637  0.00  0.00    +0.000 OA
ENDROOT
BRANCH   3  12
ATOM     12  C   UNL     1       2.154   4.553  19.632  0.00  0.00    +0.000 A 
ATOM     13  C   UNL     1       2.560   4.504  20.982  0.00  0.00    +0.000 A 
ATOM     14  C   UNL     1       2.162   3.449  21.809  0.00  0.00    +0.000 A 
ATOM     15  C   UNL     1       1.370   2.423  21.303  0.00  0.00    +0.000 A 
ATOM     16  C   UNL     1       0.975   2.453  19.965  0.00  0.00    +0.000 A 
ATOM     17  C   UNL     1       1.355   3.515  19.140  0.00  0.00    +0.000 A 
ATOM     18  F   UNL     1       0.992   3.459  17.852  0.00  0.00    +0.000 F 
ENDBRANCH   3  12
BRANCH   1  19
ATOM     19  C   UNL     1       2.273   9.178  18.129  0.00  0.00    +0.000 C 
BRANCH  19  20
ATOM     20  N   UNL     1       0.940   9.466  18.719  0.00  0.00    +0.000 NA
BRANCH  20  21
ATOM     21  C   UNL     1       1.000   9.506  20.208  0.00  0.00    +0.000 C 
BRANCH  21  22
ATOM     22  C   UNL     1       0.974  10.942  20.792  0.00  0.00    +0.000 C 
BRANCH  22  24
ATOM     23  C   UNL     1      -0.376   9.981  22.448  0.00  0.00    +0.000 C 
ATOM     24  O   UNL     1       0.609  10.983  22.177  0.00  0.00    +0.000 OA
ENDBRANCH  22  24
ENDBRANCH  21  22
ENDBRANCH  20  21
BRANCH  20  25
ATOM     25  C   UNL     1       0.286  10.659  18.142  0.00  0.00    +0.000 C 
BRANCH  25  26
ATOM     26  C   UNL     1      -1.229  10.696  18.077  0.00  0.00    +0.000 A 
ATOM     27  C   UNL     1      -1.949  11.611  18.858  0.00  0.00    +0.000 A 
ATOM     28  C   UNL     1      -3.330  11.755  18.721  0.00  0.00    +0.000 A 
ATOM     29  C   UNL     1      -4.012  10.978  17.795  0.00  0.00    +0.000 A 
ATOM     30 CL   UNL     1      -5.695  11.222  17.549  0.00  0.00    +0.000 Cl
ATOM     31  C   UNL     1      -3.329  10.030  17.038  0.00  0.00    +0.000 A 
ATOM     32  C   UNL     1      -1.945   9.890  17.181  0.00  0.00    +0.000 A 
ENDBRANCH  25  26
ENDBRANCH  20  25
ENDBRANCH  19  20
ENDBRANCH   1  19
TORSDOF 8
ENDMDL
MODEL 3
REMARK VINA RESULT:      -7.7      0.982      1.548
REMARK  Name = 
REMARK  9 active torsions:
REMARK  status: ('A' for Active; 'I' for Inactive)
REMARK    1  A    between atoms: C_1  and  O_2
REMARK    2  A    between atoms: O_2  and  C_3
REMARK    3  A    between atoms: C_3  and  C_4
REMARK    4  A    between atoms: C_4  and  N_5
REMARK    5  A    between atoms: N_5  and  C_6
REMARK    6  A    between atoms: N_5  and  C_14
REMARK    7  A    between atoms: C_6  and  C_7
REMARK    8  A    between atoms: C_14  and  C_15
REMARK    9  A    between atoms: N_17  and  C_18
REMARK                            x       y       z     vdW  Elec       q    Type
REMARK                         _______ _______ _______ _____ _____    ______ ____
ROOT
ATOM      1  C   UNL     1       4.816   5.515  18.813  0.00  0.00    +0.000 A 
ATOM      2  N   UNL     1       4.184   6.704  18.883  0.00  0.00    +0.000 NA
ATOM      3  N   UNL     1       2.909   6.436  19.261  0.00  0.00    +0.000 N 
ATOM      4  C   UNL     1       2.676   5.077  19.223  0.00  0.00    +0.000 A 
ATOM      5  C   UNL     1       3.872   4.461  18.914  0.00  0.00    +0.000 A 
ATOM      6  C   UNL     1       3.986   2.992  18.771  0.00  0.00    +0.000 C 
ATOM      7  C   UNL     1       2.630   2.400  18.382  0.00  0.00    +0.000 C 
ATOM      8  S   UNL     1       1.346   2.895  19.539  0.00  0.00    +0.000 S 
ATOM      9  O   UNL     1       0.065   2.500  18.994  0.00  0.00    +0.000 OA
ATOM     10  O   UNL     1       1.746   2.503  20.876  0.00  0.00    +0.000 OA
ATOM     11  O   UNL     1       1.482   4.522  19.405  0.00  0.00    +0.000 OA
ENDROOT
BRANCH   3  12
ATOM     12  C   UNL     1       2.022   7.451  19.693  0.00  0.00    +0.000 A 
ATOM     13  C   UNL     1       1.479   7.431  20.995  0.00  0.00    +0.000 A 
ATOM     14  C   UNL     1       0.628   8.452  21.429  0.00  0.00    +0.000 A 
ATOM     15  C   UNL     1       0.293   9.496  20.571  0.00  0.00    +0.000 A 
ATOM     16  C   UNL     1       0.811   9.518  19.277  0.00  0.00    +0.000 A 
ATOM     17  C   UNL     1       1.678   8.510  18.845  0.00  0.00    +0.000 A 
ATOM     18  F   UNL     1       2.099   8.557  17.575  0.00  0.00    +0.000 F 
ENDBRANCH   3  12
BRANCH   1  19
ATOM     19  C   UNL     1       6.332   5.466  18.621  0.00  0.00    +0.000 C 
BRANCH  19  20
ATOM     20  N   UNL     1       6.778   5.992  17.305  0.00  0.00    +0.000 NA
BRANCH  20  21
ATOM     21  C   UNL     1       7.536   7.266  17.455  0.00  0.00    +0.000 C 
BRANCH  21  22
ATOM     22  C   UNL     1       8.327   7.364  18.785  0.00  0.00    +0.000 C 
BRANCH  22  24
ATOM     23  C   UNL     1       8.347   9.593  18.063  0.00  0.00    +0.000 C 
ATOM     24  O   UNL     1       8.857   8.672  19.033  0.00  0.00    +0.000 OA
ENDBRANCH  22  24
ENDBRANCH  21  22
ENDBRANCH  20  21
BRANCH  20  25
ATOM     25  C   UNL     1       7.496   4.994  16.485  0.00  0.00    +0.000 C 
BRANCH  25  26
ATOM     26  C   UNL     1       6.828   4.474  15.226  0.00  0.00    +0.000 A 
ATOM     27  C   UNL     1       5.603   3.797  15.303  0.00  0.00    +0.000 A 
ATOM     28  C   UNL     1       4.905   3.424  14.154  0.00  0.00    +0.000 A 
ATOM     29  C   UNL     1       5.428   3.728  12.905  0.00  0.00    +0.000 A 
ATOM     30 CL   UNL     1       4.525   3.363  11.489  0.00  0.00    +0.000 Cl
ATOM     31  C   UNL     1       6.663   4.360  12.799  0.00  0.00    +0.000 A 
ATOM     32  C   UNL     1       7.359   4.729  13.954  0.00  0.00    +0.000 A 
ENDBRANCH  25  26
ENDBRANCH  20  25
ENDBRANCH  19  20
ENDBRANCH   1  19
TORSDOF 8
ENDMDL
MODEL 4
REMARK VINA RESULT:      -7.7      4.008      7.825
REMARK  Name = 
REMARK  9 active torsions:
REMARK  status: ('A' for Active; 'I' for Inactive)
REMARK    1  A    between atoms: C_1  and  O_2
REMARK    2  A    between atoms: O_2  and  C_3
REMARK    3  A    between atoms: C_3  and  C_4
REMARK    4  A    between atoms: C_4  and  N_5
REMARK    5  A    between atoms: N_5  and  C_6
REMARK    6  A    between atoms: N_5  and  C_14
REMARK    7  A    between atoms: C_6  and  C_7
REMARK    8  A    between atoms: C_14  and  C_15
REMARK    9  A    between atoms: N_17  and  C_18
REMARK                            x       y       z     vdW  Elec       q    Type
REMARK                         _______ _______ _______ _____ _____    ______ ____
ROOT
ATOM      1  C   UNL     1       2.706   7.658  17.952  0.00  0.00    +0.000 A 
ATOM      2  N   UNL     1       1.837   6.661  18.214  0.00  0.00    +0.000 NA
ATOM      3  N   UNL     1       2.587   5.549  18.425  0.00  0.00    +0.000 N 
ATOM      4  C   UNL     1       3.903   5.791  18.089  0.00  0.00    +0.000 A 
ATOM      5  C   UNL     1       4.006   7.127  17.757  0.00  0.00    +0.000 A 
ATOM      6  C   UNL     1       5.286   7.732  17.325  0.00  0.00    +0.000 C 
ATOM      7  C   UNL     1       6.190   6.659  16.713  0.00  0.00    +0.000 C 
ATOM      8  S   UNL     1       6.414   5.277  17.841  0.00  0.00    +0.000 S 
ATOM      9  O   UNL     1       7.077   4.209  17.125  0.00  0.00    +0.000 OA
ATOM     10  O   UNL     1       6.937   5.779  19.096  0.00  0.00    +0.000 OA
ATOM     11  O   UNL     1       4.846   4.855  18.056  0.00  0.00    +0.000 OA
ENDROOT
BRANCH   3  12
ATOM     12  C   UNL     1       2.042   4.369  18.984  0.00  0.00    +0.000 A 
ATOM     13  C   UNL     1       1.662   3.288  18.160  0.00  0.00    +0.000 A 
ATOM     14  C   UNL     1       1.152   2.111  18.717  0.00  0.00    +0.000 A 
ATOM     15  C   UNL     1       0.999   1.999  20.096  0.00  0.00    +0.000 A 
ATOM     16  C   UNL     1       1.357   3.066  20.919  0.00  0.00    +0.000 A 
ATOM     17  C   UNL     1       1.884   4.237  20.368  0.00  0.00    +0.000 A 
ATOM     18  F   UNL     1       2.157   5.248  21.204  0.00  0.00    +0.000 F 
ENDBRANCH   3  12
BRANCH   1  19
ATOM     19  C   UNL     1       2.210   9.103  17.876  0.00  0.00    +0.000 C 
BRANCH  19  20
ATOM     20  N   UNL     1       1.139   9.412  18.859  0.00  0.00    +0.000 NA
BRANCH  20  21
ATOM     21  C   UNL     1       1.621   9.249  20.260  0.00  0.00    +0.000 C 
BRANCH  21  22
ATOM     22  C   UNL     1       0.700   8.359  21.133  0.00  0.00    +0.000 C 
BRANCH  22  24
ATOM     23  C   UNL     1      -0.000   9.549  23.026  0.00  0.00    +0.000 C 
ATOM     24  O   UNL     1      -0.385   9.080  21.729  0.00  0.00    +0.000 OA
ENDBRANCH  22  24
ENDBRANCH  21  22
ENDBRANCH  20  21
BRANCH  20  25
ATOM     25  C   UNL     1       0.488  10.719  18.628  0.00  0.00    +0.000 C 
BRANCH  25  26
ATOM     26  C   UNL     1      -1.009  10.749  18.387  0.00  0.00    +0.000 A 
ATOM     27  C   UNL     1      -1.821  11.653  19.086  0.00  0.00    +0.000 A 
ATOM     28  C   UNL     1      -3.177  11.792  18.791  0.00  0.00    +0.000 A 
ATOM     29  C   UNL     1      -3.741  11.023  17.783  0.00  0.00    +0.000 A 
ATOM     30 CL   UNL     1      -5.386  11.262  17.345  0.00  0.00    +0.000 Cl
ATOM     31  C   UNL     1      -2.970  10.086  17.102  0.00  0.00    +0.000 A 
ATOM     32  C   UNL     1      -1.612   9.950  17.404  0.00  0.00    +0.000 A 
ENDBRANCH  25  26
ENDBRANCH  20  25
ENDBRANCH  19  20
ENDBRANCH   1  19
TORSDOF 8
ENDMDL
MODEL 5
REMARK VINA RESULT:      -7.5      4.119      7.838
REMARK  Name = 
REMARK  9 active torsions:
REMARK  status: ('A' for Active; 'I' for Inactive)
REMARK    1  A    between atoms: C_1  and  O_2
REMARK    2  A    between atoms: O_2  and  C_3
REMARK    3  A    between atoms: C_3  and  C_4
REMARK    4  A    between atoms: C_4  and  N_5
REMARK    5  A    between atoms: N_5  and  C_6
REMARK    6  A    between atoms: N_5  and  C_14
REMARK    7  A    between atoms: C_6  and  C_7
REMARK    8  A    between atoms: C_14  and  C_15
REMARK    9  A    between atoms: N_17  and  C_18
REMARK                            x       y       z     vdW  Elec       q    Type
REMARK                         _______ _______ _______ _____ _____    ______ ____
ROOT
ATOM      1  C   UNL     1       3.219   7.387  17.869  0.00  0.00    +0.000 A 
ATOM      2  N   UNL     1       2.407   6.333  18.088  0.00  0.00    +0.000 NA
ATOM      3  N   UNL     1       3.219   5.271  18.322  0.00  0.00    +0.000 N 
ATOM      4  C   UNL     1       4.529   5.601  18.042  0.00  0.00    +0.000 A 
ATOM      5  C   UNL     1       4.558   6.944  17.725  0.00  0.00    +0.000 A 
ATOM      6  C   UNL     1       5.812   7.636  17.350  0.00  0.00    +0.000 C 
ATOM      7  C   UNL     1       6.809   6.630  16.770  0.00  0.00    +0.000 C 
ATOM      8  S   UNL     1       7.077   5.254  17.895  0.00  0.00    +0.000 S 
ATOM      9  O   UNL     1       7.837   4.239  17.200  0.00  0.00    +0.000 OA
ATOM     10  O   UNL     1       7.514   5.777  19.175  0.00  0.00    +0.000 OA
ATOM     11  O   UNL     1       5.532   4.729  18.042  0.00  0.00    +0.000 OA
ENDROOT
BRANCH   3  12
ATOM     12  C   UNL     1       2.730   4.052  18.849  0.00  0.00    +0.000 A 
ATOM     13  C   UNL     1       2.605   3.866  20.242  0.00  0.00    +0.000 A 
ATOM     14  C   UNL     1       2.093   2.671  20.759  0.00  0.00    +0.000 A 
ATOM     15  C   UNL     1       1.715   1.643  19.901  0.00  0.00    +0.000 A 
ATOM     16  C   UNL     1       1.849   1.810  18.523  0.00  0.00    +0.000 A 
ATOM     17  C   UNL     1       2.342   3.008  18.001  0.00  0.00    +0.000 A 
ATOM     18  F   UNL     1       2.499   3.088  16.674  0.00  0.00    +0.000 F 
ENDBRANCH   3  12
BRANCH   1  19
ATOM     19  C   UNL     1       2.632   8.797  17.783  0.00  0.00    +0.000 C 
BRANCH  19  20
ATOM     20  N   UNL     1       1.448   8.999  18.658  0.00  0.00    +0.000 NA
BRANCH  20  21
ATOM     21  C   UNL     1       1.688   8.472  20.032  0.00  0.00    +0.000 C 
BRANCH  21  22
ATOM     22  C   UNL     1       1.098   9.369  21.151  0.00  0.00    +0.000 C 
BRANCH  22  24
ATOM     23  C   UNL     1      -0.422   9.574  22.923  0.00  0.00    +0.000 C 
ATOM     24  O   UNL     1      -0.075   8.815  21.760  0.00  0.00    +0.000 OA
ENDBRANCH  22  24
ENDBRANCH  21  22
ENDBRANCH  20  21
BRANCH  20  25
ATOM     25  C   UNL     1       0.948  10.390  18.659  0.00  0.00    +0.000 C 
BRANCH  25  26
ATOM     26  C   UNL     1      -0.516  10.633  18.342  0.00  0.00    +0.000 A 
ATOM     27  C   UNL     1      -1.196   9.794  17.449  0.00  0.00    +0.000 A 
ATOM     28  C   UNL     1      -2.570   9.916  17.239  0.00  0.00    +0.000 A 
ATOM     29  C   UNL     1      -3.285  10.886  17.928  0.00  0.00    +0.000 A 
ATOM     30 CL   UNL     1      -4.992  10.974  17.752  0.00  0.00    +0.000 Cl
ATOM     31  C   UNL     1      -2.628  11.761  18.788  0.00  0.00    +0.000 A 
ATOM     32  C   UNL     1      -1.251  11.636  18.992  0.00  0.00    +0.000 A 
ENDBRANCH  25  26
ENDBRANCH  20  25
ENDBRANCH  19  20
ENDBRANCH   1  19
TORSDOF 8
ENDMDL
MODEL 6
REMARK VINA RESULT:      -7.5      3.979      7.799
REMARK  Name = 
REMARK  9 active torsions:
REMARK  status: ('A' for Active; 'I' for Inactive)
REMARK    1  A    between atoms: C_1  and  O_2
REMARK    2  A    between atoms: O_2  and  C_3
REMARK    3  A    between atoms: C_3  and  C_4
REMARK    4  A    between atoms: C_4  and  N_5
REMARK    5  A    between atoms: N_5  and  C_6
REMARK    6  A    between atoms: N_5  and  C_14
REMARK    7  A    between atoms: C_6  and  C_7
REMARK    8  A    between atoms: C_14  and  C_15
REMARK    9  A    between atoms: N_17  and  C_18
REMARK                            x       y       z     vdW  Elec       q    Type
REMARK                         _______ _______ _______ _____ _____    ______ ____
ROOT
ATOM      1  C   UNL     1       2.643   7.615  17.967  0.00  0.00    +0.000 A 
ATOM      2  N   UNL     1       1.759   6.696  18.406  0.00  0.00    +0.000 NA
ATOM      3  N   UNL     1       2.411   5.506  18.392  0.00  0.00    +0.000 N 
ATOM      4  C   UNL     1       3.625   5.634  17.749  0.00  0.00    +0.000 A 
ATOM      5  C   UNL     1       3.791   6.970  17.442  0.00  0.00    +0.000 A 
ATOM      6  C   UNL     1       4.987   7.469  16.726  0.00  0.00    +0.000 C 
ATOM      7  C   UNL     1       5.593   6.347  15.879  0.00  0.00    +0.000 C 
ATOM      8  S   UNL     1       5.929   4.888  16.875  0.00  0.00    +0.000 S 
ATOM      9  O   UNL     1       6.278   3.802  15.986  0.00  0.00    +0.000 OA
ATOM     10  O   UNL     1       6.792   5.265  17.977  0.00  0.00    +0.000 OA
ATOM     11  O   UNL     1       4.423   4.612  17.457  0.00  0.00    +0.000 OA
ENDROOT
BRANCH   3  12
ATOM     12  C   UNL     1       1.891   4.356  19.032  0.00  0.00    +0.000 A 
ATOM     13  C   UNL     1       1.389   3.274  18.278  0.00  0.00    +0.000 A 
ATOM     14  C   UNL     1       0.904   2.126  18.912  0.00  0.00    +0.000 A 
ATOM     15  C   UNL     1       0.897   2.045  20.302  0.00  0.00    +0.000 A 
ATOM     16  C   UNL     1       1.376   3.114  21.058  0.00  0.00    +0.000 A 
ATOM     17  C   UNL     1       1.879   4.256  20.427  0.00  0.00    +0.000 A 
ATOM     18  F   UNL     1       2.273   5.271  21.207  0.00  0.00    +0.000 F 
ENDBRANCH   3  12
BRANCH   1  19
ATOM     19  C   UNL     1       2.305   9.104  18.059  0.00  0.00    +0.000 C 
BRANCH  19  20
ATOM     20  N   UNL     1       1.152   9.395  18.951  0.00  0.00    +0.000 NA
BRANCH  20  21
ATOM     21  C   UNL     1       1.472   9.089  20.374  0.00  0.00    +0.000 C 
BRANCH  21  22
ATOM     22  C   UNL     1       0.218   8.930  21.272  0.00  0.00    +0.000 C 
BRANCH  22  24
ATOM     23  C   UNL     1      -0.745  10.279  22.928  0.00  0.00    +0.000 C 
ATOM     24  O   UNL     1       0.390   9.477  22.585  0.00  0.00    +0.000 OA
ENDBRANCH  22  24
ENDBRANCH  21  22
ENDBRANCH  20  21
BRANCH  20  25
ATOM     25  C   UNL     1       0.595  10.751  18.770  0.00  0.00    +0.000 C 
BRANCH  25  26
ATOM     26  C   UNL     1      -0.877  10.891  18.433  0.00  0.00    +0.000 A 
ATOM     27  C   UNL     1      -1.485  10.005  17.532  0.00  0.00    +0.000 A 
ATOM     28  C   UNL     1      -2.861  10.029  17.304  0.00  0.00    +0.000 A 
ATOM     29  C   UNL     1      -3.652  10.948  17.981  0.00  0.00    +0.000 A 
ATOM     30 CL   UNL     1      -5.359  10.915  17.782  0.00  0.00    +0.000 Cl
ATOM     31  C   UNL     1      -3.070  11.868  18.848  0.00  0.00    +0.000 A 
ATOM     32  C   UNL     1      -1.690  11.840  19.070  0.00  0.00    +0.000 A 
ENDBRANCH  25  26
ENDBRANCH  20  25
ENDBRANCH  19  20
ENDBRANCH   1  19
TORSDOF 8
ENDMDL
MODEL 7
REMARK VINA RESULT:      -7.3      3.826      5.956
REMARK  Name = 
REMARK  9 active torsions:
REMARK  status: ('A' for Active; 'I' for Inactive)
REMARK    1  A    between atoms: C_1  and  O_2
REMARK    2  A    between atoms: O_2  and  C_3
REMARK    3  A    between atoms: C_3  and  C_4
REMARK    4  A    between atoms: C_4  and  N_5
REMARK    5  A    between atoms: N_5  and  C_6
REMARK    6  A    between atoms: N_5  and  C_14
REMARK    7  A    between atoms: C_6  and  C_7
REMARK    8  A    between atoms: C_14  and  C_15
REMARK    9  A    between atoms: N_17  and  C_18
REMARK                            x       y       z     vdW  Elec       q    Type
REMARK                         _______ _______ _______ _____ _____    ______ ____
ROOT
ATOM      1  C   UNL     1       1.663   8.982  18.697  0.00  0.00    +0.000 A 
ATOM      2  N   UNL     1       1.592  10.223  18.174  0.00  0.00    +0.000 NA
ATOM      3  N   UNL     1       1.169  11.034  19.176  0.00  0.00    +0.000 N 
ATOM      4  C   UNL     1       0.770  10.283  20.262  0.00  0.00    +0.000 A 
ATOM      5  C   UNL     1       1.051   8.961  19.976  0.00  0.00    +0.000 A 
ATOM      6  C   UNL     1       0.733   7.868  20.922  0.00  0.00    +0.000 C 
ATOM      7  C   UNL     1      -0.423   8.286  21.833  0.00  0.00    +0.000 C 
ATOM      8  S   UNL     1      -0.074   9.846  22.656  0.00  0.00    +0.000 S 
ATOM      9  O   UNL     1      -1.282  10.296  23.311  0.00  0.00    +0.000 OA
ATOM     10  O   UNL     1       1.174   9.721  23.383  0.00  0.00    +0.000 OA
ATOM     11  O   UNL     1       0.178  10.789  21.339  0.00  0.00    +0.000 OA
ENDROOT
BRANCH   3  12
ATOM     12  C   UNL     1       1.227  12.444  19.077  0.00  0.00    +0.000 A 
ATOM     13  C   UNL     1       2.457  13.127  19.196  0.00  0.00    +0.000 A 
ATOM     14  C   UNL     1       2.516  14.518  19.068  0.00  0.00    +0.000 A 
ATOM     15  C   UNL     1       1.355  15.250  18.837  0.00  0.00    +0.000 A 
ATOM     16  C   UNL     1       0.132  14.587  18.733  0.00  0.00    +0.000 A 
ATOM     17  C   UNL     1       0.071  13.196  18.841  0.00  0.00    +0.000 A 
ATOM     18  F   UNL     1      -1.139  12.622  18.788  0.00  0.00    +0.000 F 
ENDBRANCH   3  12
BRANCH   1  19
ATOM     19  C   UNL     1       2.312   7.852  17.897  0.00  0.00    +0.000 C 
BRANCH  19  20
ATOM     20  N   UNL     1       2.753   6.709  18.739  0.00  0.00    +0.000 NA
BRANCH  20  21
ATOM     21  C   UNL     1       1.959   5.481  18.453  0.00  0.00    +0.000 C 
BRANCH  21  22
ATOM     22  C   UNL     1       1.806   4.542  19.677  0.00  0.00    +0.000 C 
BRANCH  22  24
ATOM     23  C   UNL     1       1.815   2.710  18.217  0.00  0.00    +0.000 C 
ATOM     24  O   UNL     1       2.328   3.227  19.449  0.00  0.00    +0.000 OA
ENDBRANCH  22  24
ENDBRANCH  21  22
ENDBRANCH  20  21
BRANCH  20  25
ATOM     25  C   UNL     1       4.211   6.471  18.690  0.00  0.00    +0.000 C 
BRANCH  25  26
ATOM     26  C   UNL     1       4.797   5.820  17.452  0.00  0.00    +0.000 A 
ATOM     27  C   UNL     1       5.003   4.434  17.411  0.00  0.00    +0.000 A 
ATOM     28  C   UNL     1       5.418   3.794  16.243  0.00  0.00    +0.000 A 
ATOM     29  C   UNL     1       5.632   4.540  15.092  0.00  0.00    +0.000 A 
ATOM     30 CL   UNL     1       6.043   3.746  13.624  0.00  0.00    +0.000 Cl
ATOM     31  C   UNL     1       5.478   5.923  15.116  0.00  0.00    +0.000 A 
ATOM     32  C   UNL     1       5.064   6.558  16.290  0.00  0.00    +0.000 A 
ENDBRANCH  25  26
ENDBRANCH  20  25
ENDBRANCH  19  20
ENDBRANCH   1  19
TORSDOF 8
ENDMDL
MODEL 8
REMARK VINA RESULT:      -7.3      3.935      6.048
REMARK  Name = 
REMARK  9 active torsions:
REMARK  status: ('A' for Active; 'I' for Inactive)
REMARK    1  A    between atoms: C_1  and  O_2
REMARK    2  A    between atoms: O_2  and  C_3
REMARK    3  A    between atoms: C_3  and  C_4
REMARK    4  A    between atoms: C_4  and  N_5
REMARK    5  A    between atoms: N_5  and  C_6
REMARK    6  A    between atoms: N_5  and  C_14
REMARK    7  A    between atoms: C_6  and  C_7
REMARK    8  A    between atoms: C_14  and  C_15
REMARK    9  A    between atoms: N_17  and  C_18
REMARK                            x       y       z     vdW  Elec       q    Type
REMARK                         _______ _______ _______ _____ _____    ______ ____
ROOT
ATOM      1  C   UNL     1       1.631   8.988  18.814  0.00  0.00    +0.000 A 
ATOM      2  N   UNL     1       1.604  10.223  18.273  0.00  0.00    +0.000 NA
ATOM      3  N   UNL     1       1.176  11.058  19.252  0.00  0.00    +0.000 N 
ATOM      4  C   UNL     1       0.731  10.333  20.338  0.00  0.00    +0.000 A 
ATOM      5  C   UNL     1       0.986   9.001  20.077  0.00  0.00    +0.000 A 
ATOM      6  C   UNL     1       0.617   7.929  21.029  0.00  0.00    +0.000 C 
ATOM      7  C   UNL     1      -0.552   8.389  21.904  0.00  0.00    +0.000 C 
ATOM      8  S   UNL     1      -0.184   9.951  22.715  0.00  0.00    +0.000 S 
ATOM      9  O   UNL     1      -1.398  10.440  23.332  0.00  0.00    +0.000 OA
ATOM     10  O   UNL     1       1.041   9.805  23.476  0.00  0.00    +0.000 OA
ATOM     11  O   UNL     1       0.125  10.868  21.393  0.00  0.00    +0.000 OA
ENDROOT
BRANCH   3  12
ATOM     12  C   UNL     1       1.273  12.465  19.137  0.00  0.00    +0.000 A 
ATOM     13  C   UNL     1       2.505  13.124  19.336  0.00  0.00    +0.000 A 
ATOM     14  C   UNL     1       2.604  14.511  19.191  0.00  0.00    +0.000 A 
ATOM     15  C   UNL     1       1.479  15.263  18.863  0.00  0.00    +0.000 A 
ATOM     16  C   UNL     1       0.253  14.624  18.679  0.00  0.00    +0.000 A 
ATOM     17  C   UNL     1       0.153  13.236  18.804  0.00  0.00    +0.000 A 
ATOM     18  F   UNL     1      -1.061  12.687  18.671  0.00  0.00    +0.000 F 
ENDBRANCH   3  12
BRANCH   1  19
ATOM     19  C   UNL     1       2.272   7.831  18.047  0.00  0.00    +0.000 C 
BRANCH  19  20
ATOM     20  N   UNL     1       2.845   6.782  18.930  0.00  0.00    +0.000 NA
BRANCH  20  21
ATOM     21  C   UNL     1       2.010   5.547  18.923  0.00  0.00    +0.000 C 
BRANCH  21  22
ATOM     22  C   UNL     1       2.074   4.749  20.251  0.00  0.00    +0.000 C 
BRANCH  22  24
ATOM     23  C   UNL     1       1.423   2.822  21.415  0.00  0.00    +0.000 C 
ATOM     24  O   UNL     1       1.110   3.690  20.320  0.00  0.00    +0.000 OA
ENDBRANCH  22  24
ENDBRANCH  21  22
ENDBRANCH  20  21
BRANCH  20  25
ATOM     25  C   UNL     1       4.273   6.507  18.667  0.00  0.00    +0.000 C 
BRANCH  25  26
ATOM     26  C   UNL     1       4.649   5.796  17.381  0.00  0.00    +0.000 A 
ATOM     27  C   UNL     1       5.024   6.531  16.248  0.00  0.00    +0.000 A 
ATOM     28  C   UNL     1       5.499   5.903  15.097  0.00  0.00    +0.000 A 
ATOM     29  C   UNL     1       5.605   4.519  15.066  0.00  0.00    +0.000 A 
ATOM     30 CL   UNL     1       6.284   3.746  13.689  0.00  0.00    +0.000 Cl
ATOM     31  C   UNL     1       5.198   3.761  16.159  0.00  0.00    +0.000 A 
ATOM     32  C   UNL     1       4.722   4.397  17.310  0.00  0.00    +0.000 A 
ENDBRANCH  25  26
ENDBRANCH  20  25
ENDBRANCH  19  20
ENDBRANCH   1  19
TORSDOF 8
ENDMDL
MODEL 9
REMARK VINA RESULT:      -7.3      3.662      7.720
REMARK  Name = 
REMARK  9 active torsions:
REMARK  status: ('A' for Active; 'I' for Inactive)
REMARK    1  A    between atoms: C_1  and  O_2
REMARK    2  A    between atoms: O_2  and  C_3
REMARK    3  A    between atoms: C_3  and  C_4
REMARK    4  A    between atoms: C_4  and  N_5
REMARK    5  A    between atoms: N_5  and  C_6
REMARK    6  A    between atoms: N_5  and  C_14
REMARK    7  A    between atoms: C_6  and  C_7
REMARK    8  A    between atoms: C_14  and  C_15
REMARK    9  A    between atoms: N_17  and  C_18
REMARK                            x       y       z     vdW  Elec       q    Type
REMARK                         _______ _______ _______ _____ _____    ______ ____
ROOT
ATOM      1  C   UNL     1       2.726   6.881  19.687  0.00  0.00    +0.000 A 
ATOM      2  N   UNL     1       3.913   6.845  19.049  0.00  0.00    +0.000 NA
ATOM      3  N   UNL     1       4.006   5.614  18.487  0.00  0.00    +0.000 N 
ATOM      4  C   UNL     1       2.988   4.803  18.943  0.00  0.00    +0.000 A 
ATOM      5  C   UNL     1       2.164   5.580  19.734  0.00  0.00    +0.000 A 
ATOM      6  C   UNL     1       0.969   5.023  20.408  0.00  0.00    +0.000 C 
ATOM      7  C   UNL     1       1.150   3.520  20.633  0.00  0.00    +0.000 C 
ATOM      8  S   UNL     1       1.547   2.674  19.097  0.00  0.00    +0.000 S 
ATOM      9  O   UNL     1       1.929   1.315  19.412  0.00  0.00    +0.000 OA
ATOM     10  O   UNL     1       0.507   2.957  18.127  0.00  0.00    +0.000 OA
ATOM     11  O   UNL     1       2.896   3.504  18.679  0.00  0.00    +0.000 OA
ENDROOT
BRANCH   3  12
ATOM     12  C   UNL     1       4.992   5.300  17.522  0.00  0.00    +0.000 A 
ATOM     13  C   UNL     1       4.706   5.388  16.143  0.00  0.00    +0.000 A 
ATOM     14  C   UNL     1       5.690   5.107  15.190  0.00  0.00    +0.000 A 
ATOM     15  C   UNL     1       6.965   4.719  15.595  0.00  0.00    +0.000 A 
ATOM     16  C   UNL     1       7.254   4.613  16.955  0.00  0.00    +0.000 A 
ATOM     17  C   UNL     1       6.279   4.912  17.910  0.00  0.00    +0.000 A 
ATOM     18  F   UNL     1       6.600   4.738  19.199  0.00  0.00    +0.000 F 
ENDBRANCH   3  12
BRANCH   1  19
ATOM     19  C   UNL     1       2.201   8.201  20.252  0.00  0.00    +0.000 C 
BRANCH  19  20
ATOM     20  N   UNL     1       0.840   8.552  19.769  0.00  0.00    +0.000 NA
BRANCH  20  21
ATOM     21  C   UNL     1      -0.118   8.703  20.901  0.00  0.00    +0.000 C 
BRANCH  21  22
ATOM     22  C   UNL     1       0.548   9.177  22.218  0.00  0.00    +0.000 C 
BRANCH  22  24
ATOM     23  C   UNL     1      -1.034  10.704  23.029  0.00  0.00    +0.000 C 
ATOM     24  O   UNL     1       0.294  10.556  22.516  0.00  0.00    +0.000 OA
ENDBRANCH  22  24
ENDBRANCH  21  22
ENDBRANCH  20  21
BRANCH  20  25
ATOM     25  C   UNL     1       0.822   9.708  18.848  0.00  0.00    +0.000 C 
BRANCH  25  26
ATOM     26  C   UNL     1      -0.517  10.311  18.469  0.00  0.00    +0.000 A 
ATOM     27  C   UNL     1      -1.309   9.712  17.479  0.00  0.00    +0.000 A 
ATOM     28  C   UNL     1      -2.597  10.169  17.203  0.00  0.00    +0.000 A 
ATOM     29  C   UNL     1      -3.113  11.240  17.920  0.00  0.00    +0.000 A 
ATOM     30 CL   UNL     1      -4.736  11.742  17.656  0.00  0.00    +0.000 Cl
ATOM     31  C   UNL     1      -2.333  11.882  18.877  0.00  0.00    +0.000 A 
ATOM     32  C   UNL     1      -1.042  11.420  19.148  0.00  0.00    +0.000 A 
ENDBRANCH  25  26
ENDBRANCH  20  25
ENDBRANCH  19  20
ENDBRANCH   1  19
TORSDOF 8
ENDMDL
