MODEL 1
REMARK VINA RESULT:      -7.9      0.000      0.000
REMARK  Name = 
REMARK  4 active torsions:
REMARK  status: ('A' for Active; 'I' for Inactive)
REMARK    1  A    between atoms: C_1  and  C_2
REMARK    2  A    between atoms: C_2  and  C_3
REMARK    3  A    between atoms: C_14  and  C_16
REMARK    4  A    between atoms: C_16  and  C_17
REMARK                            x       y       z     vdW  Elec       q    Type
REMARK                         _______ _______ _______ _____ _____    ______ ____
ROOT
ATOM      1  C   UNL     1       4.838   3.108  19.688  0.00  0.00    +0.000 C 
ATOM      2  C   UNL     1       4.213   3.095  18.291  0.00  0.00    +0.000 C 
ATOM      3  C   UNL     1       3.967   1.653  17.754  0.00  0.00    +0.000 C 
ATOM      4  C   UNL     1       2.560   2.083  17.389  0.00  0.00    +0.000 C 
ATOM      5  N   UNL     1       2.713   3.149  18.384  0.00  0.00    +0.000 N 
ATOM      6  C   UNL     1       1.877   4.252  18.342  0.00  0.00    +0.000 C 
ATOM      7  O   UNL     1       0.999   4.379  17.488  0.00  0.00    +0.000 OA
ENDROOT
BRANCH   2   8
ATOM      8  C   UNL     1       4.919   4.151  17.323  0.00  0.00    +0.000 C 
ATOM      9  O   UNL     1       4.979   3.991  16.097  0.00  0.00    +0.000 OA
ATOM     10  N   UNL     1       5.396   5.352  17.886  0.00  0.00    +0.000 N 
ATOM     11  C   UNL     1       5.831   6.432  17.001  0.00  0.00    +0.000 C 
ATOM     12  C   UNL     1       7.351   6.582  17.034  0.00  0.00    +0.000 C 
ATOM     13  C   UNL     1       7.869   6.714  18.469  0.00  0.00    +0.000 C 
ATOM     14  C   UNL     1       7.327   5.591  19.357  0.00  0.00    +0.000 C 
ATOM     15  C   UNL     1       5.800   5.540  19.279  0.00  0.00    +0.000 C 
ENDBRANCH   2   8
BRANCH   6  16
ATOM     16  C   UNL     1       1.846   5.152  19.559  0.00  0.00    +0.000 C 
ATOM     17  C   UNL     1       1.137   4.766  20.844  0.00  0.00    +0.000 C 
ATOM     18  C   UNL     1       2.618   4.594  20.764  0.00  0.00    +0.000 C 
BRANCH  16  19
ATOM     19  C   UNL     1       2.011   6.641  19.228  0.00  0.00    +0.000 A 
ATOM     20  C   UNL     1       1.548   7.638  20.104  0.00  0.00    +0.000 A 
ATOM     21  C   UNL     1       1.504   8.983  19.726  0.00  0.00    +0.000 A 
ATOM     22  C   UNL     1       1.954   9.366  18.467  0.00  0.00    +0.000 A 
ATOM     23  C   UNL     1       2.480   8.409  17.604  0.00  0.00    +0.000 A 
ATOM     24  C   UNL     1       2.509   7.064  17.983  0.00  0.00    +0.000 A 
ENDBRANCH  16  19
ENDBRANCH   6  16
TORSDOF 3
ENDMDL
MODEL 2
REMARK VINA RESULT:      -7.8      2.559      6.273
REMARK  Name = 
REMARK  4 active torsions:
REMARK  status: ('A' for Active; 'I' for Inactive)
REMARK    1  A    between atoms: C_1  and  C_2
REMARK    2  A    between atoms: C_2  and  C_3
REMARK    3  A    between atoms: C_14  and  C_16
REMARK    4  A    between atoms: C_16  and  C_17
REMARK                            x       y       z     vdW  Elec       q    Type
REMARK                         _______ _______ _______ _____ _____    ______ ____
ROOT
ATOM      1  C   UNL     1       5.507   5.124  19.394  0.00  0.00    +0.000 C 
ATOM      2  C   UNL     1       4.356   5.554  18.482  0.00  0.00    +0.000 C 
ATOM      3  C   UNL     1       3.602   6.809  19.015  0.00  0.00    +0.000 C 
ATOM      4  C   UNL     1       3.723   7.409  17.628  0.00  0.00    +0.000 C 
ATOM      5  N   UNL     1       4.849   6.495  17.418  0.00  0.00    +0.000 N 
ATOM      6  C   UNL     1       5.271   6.209  16.130  0.00  0.00    +0.000 C 
ATOM      7  O   UNL     1       4.727   6.695  15.138  0.00  0.00    +0.000 OA
ENDROOT
BRANCH   2   8
ATOM      8  C   UNL     1       3.491   4.302  18.000  0.00  0.00    +0.000 C 
ATOM      9  O   UNL     1       3.367   4.000  16.807  0.00  0.00    +0.000 OA
ATOM     10  N   UNL     1       2.938   3.459  18.986  0.00  0.00    +0.000 N 
ATOM     11  C   UNL     1       2.345   2.184  18.583  0.00  0.00    +0.000 C 
ATOM     12  C   UNL     1       0.823   2.229  18.706  0.00  0.00    +0.000 C 
ATOM     13  C   UNL     1       0.389   2.700  20.097  0.00  0.00    +0.000 C 
ATOM     14  C   UNL     1       1.092   4.003  20.484  0.00  0.00    +0.000 C 
ATOM     15  C   UNL     1       2.609   3.848  20.356  0.00  0.00    +0.000 C 
ENDBRANCH   2   8
BRANCH   6  16
ATOM     16  C   UNL     1       6.618   5.540  15.968  0.00  0.00    +0.000 C 
ATOM     17  C   UNL     1       7.833   5.939  16.786  0.00  0.00    +0.000 C 
ATOM     18  C   UNL     1       7.061   4.729  17.195  0.00  0.00    +0.000 C 
BRANCH  16  19
ATOM     19  C   UNL     1       6.836   4.920  14.582  0.00  0.00    +0.000 A 
ATOM     20  C   UNL     1       7.752   5.473  13.671  0.00  0.00    +0.000 A 
ATOM     21  C   UNL     1       7.810   5.048  12.341  0.00  0.00    +0.000 A 
ATOM     22  C   UNL     1       6.970   4.032  11.898  0.00  0.00    +0.000 A 
ATOM     23  C   UNL     1       6.099   3.419  12.795  0.00  0.00    +0.000 A 
ATOM     24  C   UNL     1       6.037   3.858  14.121  0.00  0.00    +0.000 A 
ENDBRANCH  16  19
ENDBRANCH   6  16
TORSDOF 3
ENDMDL
MODEL 3
REMARK VINA RESULT:      -7.6      7.042     10.432
REMARK  Name = 
REMARK  4 active torsions:
REMARK  status: ('A' for Active; 'I' for Inactive)
REMARK    1  A    between atoms: C_1  and  C_2
REMARK    2  A    between atoms: C_2  and  C_3
REMARK    3  A    between atoms: C_14  and  C_16
REMARK    4  A    between atoms: C_16  and  C_17
REMARK                            x       y       z     vdW  Elec       q    Type
REMARK                         _______ _______ _______ _____ _____    ______ ____
ROOT
ATOM      1  C   UNL     1      -0.798  13.167  18.692  0.00  0.00    +0.000 C 
ATOM      2  C   UNL     1       0.500  12.883  19.451  0.00  0.00    +0.000 C 
ATOM      3  C   UNL     1       1.523  12.063  18.609  0.00  0.00    +0.000 C 
ATOM      4  C   UNL     1       2.581  13.076  19.002  0.00  0.00    +0.000 C 
ATOM      5  N   UNL     1       1.480  14.008  19.260  0.00  0.00    +0.000 N 
ATOM      6  C   UNL     1       1.695  15.120  20.057  0.00  0.00    +0.000 C 
ATOM      7  O   UNL     1       2.788  15.360  20.568  0.00  0.00    +0.000 OA
ENDROOT
BRANCH   2   8
ATOM      8  C   UNL     1       0.211  12.417  20.951  0.00  0.00    +0.000 C 
ATOM      9  O   UNL     1       0.486  13.123  21.929  0.00  0.00    +0.000 OA
ATOM     10  N   UNL     1      -0.475  11.202  21.148  0.00  0.00    +0.000 N 
ATOM     11  C   UNL     1      -0.959  10.865  22.486  0.00  0.00    +0.000 C 
ATOM     12  C   UNL     1      -0.130   9.735  23.095  0.00  0.00    +0.000 C 
ATOM     13  C   UNL     1      -0.042   8.534  22.150  0.00  0.00    +0.000 C 
ATOM     14  C   UNL     1       0.408   8.963  20.751  0.00  0.00    +0.000 C 
ATOM     15  C   UNL     1      -0.499  10.074  20.217  0.00  0.00    +0.000 C 
ENDBRANCH   2   8
BRANCH   6  16
ATOM     16  C   UNL     1       0.647  16.212  20.028  0.00  0.00    +0.000 C 
ATOM     17  C   UNL     1      -0.573  16.199  20.931  0.00  0.00    +0.000 C 
ATOM     18  C   UNL     1       0.591  17.053  21.313  0.00  0.00    +0.000 C 
BRANCH  16  19
ATOM     19  C   UNL     1       0.560  16.948  18.685  0.00  0.00    +0.000 A 
ATOM     20  C   UNL     1       1.710  17.210  17.921  0.00  0.00    +0.000 A 
ATOM     21  C   UNL     1       1.673  18.054  16.807  0.00  0.00    +0.000 A 
ATOM     22  C   UNL     1       0.471  18.631  16.412  0.00  0.00    +0.000 A 
ATOM     23  C   UNL     1      -0.696  18.336  17.110  0.00  0.00    +0.000 A 
ATOM     24  C   UNL     1      -0.650  17.502  18.231  0.00  0.00    +0.000 A 
ENDBRANCH  16  19
ENDBRANCH   6  16
TORSDOF 3
ENDMDL
MODEL 4
REMARK VINA RESULT:      -7.4      1.676      5.674
REMARK  Name = 
REMARK  4 active torsions:
REMARK  status: ('A' for Active; 'I' for Inactive)
REMARK    1  A    between atoms: C_1  and  C_2
REMARK    2  A    between atoms: C_2  and  C_3
REMARK    3  A    between atoms: C_14  and  C_16
REMARK    4  A    between atoms: C_16  and  C_17
REMARK                            x       y       z     vdW  Elec       q    Type
REMARK                         _______ _______ _______ _____ _____    ______ ____
ROOT
ATOM      1  C   UNL     1       4.769   5.763  19.620  0.00  0.00    +0.000 C 
ATOM      2  C   UNL     1       3.838   5.930  18.417  0.00  0.00    +0.000 C 
ATOM      3  C   UNL     1       2.846   7.120  18.583  0.00  0.00    +0.000 C 
ATOM      4  C   UNL     1       3.240   7.576  17.191  0.00  0.00    +0.000 C 
ATOM      5  N   UNL     1       4.474   6.808  17.374  0.00  0.00    +0.000 N 
ATOM      6  C   UNL     1       5.227   6.443  16.270  0.00  0.00    +0.000 C 
ATOM      7  O   UNL     1       4.894   6.739  15.122  0.00  0.00    +0.000 OA
ENDROOT
BRANCH   2   8
ATOM      8  C   UNL     1       3.256   4.526  17.927  0.00  0.00    +0.000 C 
ATOM      9  O   UNL     1       3.256   4.186  16.737  0.00  0.00    +0.000 OA
ATOM     10  N   UNL     1       2.825   3.608  18.907  0.00  0.00    +0.000 N 
ATOM     11  C   UNL     1       2.510   2.236  18.509  0.00  0.00    +0.000 C 
ATOM     12  C   UNL     1       1.004   1.988  18.558  0.00  0.00    +0.000 C 
ATOM     13  C   UNL     1       0.415   2.389  19.914  0.00  0.00    +0.000 C 
ATOM     14  C   UNL     1       0.834   3.810  20.299  0.00  0.00    +0.000 C 
ATOM     15  C   UNL     1       2.357   3.950  20.249  0.00  0.00    +0.000 C 
ENDBRANCH   2   8
BRANCH   6  16
ATOM     16  C   UNL     1       6.636   5.951  16.517  0.00  0.00    +0.000 C 
ATOM     17  C   UNL     1       6.998   4.476  16.523  0.00  0.00    +0.000 C 
ATOM     18  C   UNL     1       7.282   5.278  15.296  0.00  0.00    +0.000 C 
BRANCH  16  19
ATOM     19  C   UNL     1       7.493   6.921  17.338  0.00  0.00    +0.000 A 
ATOM     20  C   UNL     1       8.053   6.538  18.570  0.00  0.00    +0.000 A 
ATOM     21  C   UNL     1       8.657   7.468  19.421  0.00  0.00    +0.000 A 
ATOM     22  C   UNL     1       8.744   8.803  19.042  0.00  0.00    +0.000 A 
ATOM     23  C   UNL     1       8.259   9.199  17.799  0.00  0.00    +0.000 A 
ATOM     24  C   UNL     1       7.644   8.267  16.958  0.00  0.00    +0.000 A 
ENDBRANCH  16  19
ENDBRANCH   6  16
TORSDOF 3
ENDMDL
MODEL 5
REMARK VINA RESULT:      -7.4      2.322      3.614
REMARK  Name = 
REMARK  4 active torsions:
REMARK  status: ('A' for Active; 'I' for Inactive)
REMARK    1  A    between atoms: C_1  and  C_2
REMARK    2  A    between atoms: C_2  and  C_3
REMARK    3  A    between atoms: C_14  and  C_16
REMARK    4  A    between atoms: C_16  and  C_17
REMARK                            x       y       z     vdW  Elec       q    Type
REMARK                         _______ _______ _______ _____ _____    ______ ____
ROOT
ATOM      1  C   UNL     1       4.734   6.823  16.439  0.00  0.00    +0.000 C 
ATOM      2  C   UNL     1       5.417   5.558  16.966  0.00  0.00    +0.000 C 
ATOM      3  C   UNL     1       6.792   5.850  17.637  0.00  0.00    +0.000 C 
ATOM      4  C   UNL     1       6.343   5.003  18.811  0.00  0.00    +0.000 C 
ATOM      5  N   UNL     1       4.969   5.263  18.371  0.00  0.00    +0.000 N 
ATOM      6  C   UNL     1       3.943   4.440  18.803  0.00  0.00    +0.000 C 
ATOM      7  O   UNL     1       4.139   3.481  19.550  0.00  0.00    +0.000 OA
ENDROOT
BRANCH   2   8
ATOM      8  C   UNL     1       5.331   4.363  15.910  0.00  0.00    +0.000 C 
ATOM      9  O   UNL     1       5.026   3.209  16.237  0.00  0.00    +0.000 OA
ATOM     10  N   UNL     1       5.509   4.669  14.545  0.00  0.00    +0.000 N 
ATOM     11  C   UNL     1       5.206   3.651  13.540  0.00  0.00    +0.000 C 
ATOM     12  C   UNL     1       6.489   3.111  12.910  0.00  0.00    +0.000 C 
ATOM     13  C   UNL     1       7.377   4.246  12.391  0.00  0.00    +0.000 C 
ATOM     14  C   UNL     1       7.603   5.308  13.470  0.00  0.00    +0.000 C 
ATOM     15  C   UNL     1       6.263   5.805  14.017  0.00  0.00    +0.000 C 
ENDBRANCH   2   8
BRANCH   6  16
ATOM     16  C   UNL     1       2.524   4.929  18.602  0.00  0.00    +0.000 C 
ATOM     17  C   UNL     1       1.642   4.435  17.469  0.00  0.00    +0.000 C 
ATOM     18  C   UNL     1       1.456   3.848  18.830  0.00  0.00    +0.000 C 
BRANCH  16  19
ATOM     19  C   UNL     1       2.266   6.326  19.180  0.00  0.00    +0.000 A 
ATOM     20  C   UNL     1       1.950   6.507  20.537  0.00  0.00    +0.000 A 
ATOM     21  C   UNL     1       1.512   7.740  21.029  0.00  0.00    +0.000 A 
ATOM     22  C   UNL     1       1.411   8.833  20.176  0.00  0.00    +0.000 A 
ATOM     23  C   UNL     1       1.781   8.700  18.840  0.00  0.00    +0.000 A 
ATOM     24  C   UNL     1       2.206   7.461  18.351  0.00  0.00    +0.000 A 
ENDBRANCH  16  19
ENDBRANCH   6  16
TORSDOF 3
ENDMDL
MODEL 6
REMARK VINA RESULT:      -7.3      7.300     10.831
REMARK  Name = 
REMARK  4 active torsions:
REMARK  status: ('A' for Active; 'I' for Inactive)
REMARK    1  A    between atoms: C_1  and  C_2
REMARK    2  A    between atoms: C_2  and  C_3
REMARK    3  A    between atoms: C_14  and  C_16
REMARK    4  A    between atoms: C_16  and  C_17
REMARK                            x       y       z     vdW  Elec       q    Type
REMARK                         _______ _______ _______ _____ _____    ______ ____
ROOT
ATOM      1  C   UNL     1      -2.434  13.957  21.125  0.00  0.00    +0.000 C 
ATOM      2  C   UNL     1      -1.514  13.345  22.185  0.00  0.00    +0.000 C 
ATOM      3  C   UNL     1      -2.264  12.376  23.147  0.00  0.00    +0.000 C 
ATOM      4  C   UNL     1      -1.159  11.366  22.910  0.00  0.00    +0.000 C 
ATOM      5  N   UNL     1      -0.875  12.087  21.666  0.00  0.00    +0.000 N 
ATOM      6  C   UNL     1       0.351  11.925  21.042  0.00  0.00    +0.000 C 
ATOM      7  O   UNL     1       1.229  11.193  21.500  0.00  0.00    +0.000 OA
ENDROOT
BRANCH   2   8
ATOM      8  C   UNL     1      -0.544  14.442  22.822  0.00  0.00    +0.000 C 
ATOM      9  O   UNL     1       0.679  14.435  22.636  0.00  0.00    +0.000 OA
ATOM     10  N   UNL     1      -1.127  15.509  23.535  0.00  0.00    +0.000 N 
ATOM     11  C   UNL     1      -0.294  16.646  23.926  0.00  0.00    +0.000 C 
ATOM     12  C   UNL     1      -0.043  16.642  25.433  0.00  0.00    +0.000 C 
ATOM     13  C   UNL     1      -1.354  16.539  26.218  0.00  0.00    +0.000 C 
ATOM     14  C   UNL     1      -2.207  15.370  25.718  0.00  0.00    +0.000 C 
ATOM     15  C   UNL     1      -2.426  15.478  24.207  0.00  0.00    +0.000 C 
ENDBRANCH   2   8
BRANCH   6  16
ATOM     16  C   UNL     1       0.479  12.414  19.616  0.00  0.00    +0.000 C 
ATOM     17  C   UNL     1       0.871  13.840  19.272  0.00  0.00    +0.000 C 
ATOM     18  C   UNL     1       1.916  12.775  19.209  0.00  0.00    +0.000 C 
BRANCH  16  19
ATOM     19  C   UNL     1      -0.372  11.623  18.614  0.00  0.00    +0.000 A 
ATOM     20  C   UNL     1      -1.491  12.201  17.992  0.00  0.00    +0.000 A 
ATOM     21  C   UNL     1      -2.390  11.436  17.243  0.00  0.00    +0.000 A 
ATOM     22  C   UNL     1      -2.170  10.074  17.072  0.00  0.00    +0.000 A 
ATOM     23  C   UNL     1      -1.033   9.487  17.621  0.00  0.00    +0.000 A 
ATOM     24  C   UNL     1      -0.145  10.255  18.380  0.00  0.00    +0.000 A 
ENDBRANCH  16  19
ENDBRANCH   6  16
TORSDOF 3
ENDMDL
MODEL 7
REMARK VINA RESULT:      -7.3      1.854      5.075
REMARK  Name = 
REMARK  4 active torsions:
REMARK  status: ('A' for Active; 'I' for Inactive)
REMARK    1  A    between atoms: C_1  and  C_2
REMARK    2  A    between atoms: C_2  and  C_3
REMARK    3  A    between atoms: C_14  and  C_16
REMARK    4  A    between atoms: C_16  and  C_17
REMARK                            x       y       z     vdW  Elec       q    Type
REMARK                         _______ _______ _______ _____ _____    ______ ____
ROOT
ATOM      1  C   UNL     1       2.048   4.863  17.223  0.00  0.00    +0.000 C 
ATOM      2  C   UNL     1       2.112   4.015  18.496  0.00  0.00    +0.000 C 
ATOM      3  C   UNL     1       1.473   2.605  18.313  0.00  0.00    +0.000 C 
ATOM      4  C   UNL     1       2.719   2.015  18.944  0.00  0.00    +0.000 C 
ATOM      5  N   UNL     1       3.405   3.250  18.555  0.00  0.00    +0.000 N 
ATOM      6  C   UNL     1       4.595   3.598  19.173  0.00  0.00    +0.000 C 
ATOM      7  O   UNL     1       5.106   2.905  20.052  0.00  0.00    +0.000 OA
ENDROOT
BRANCH   2   8
ATOM      8  C   UNL     1       1.710   4.864  19.787  0.00  0.00    +0.000 C 
ATOM      9  O   UNL     1       1.044   4.387  20.714  0.00  0.00    +0.000 OA
ATOM     10  N   UNL     1       2.225   6.171  19.908  0.00  0.00    +0.000 N 
ATOM     11  C   UNL     1       2.072   6.883  21.176  0.00  0.00    +0.000 C 
ATOM     12  C   UNL     1       1.045   8.007  21.047  0.00  0.00    +0.000 C 
ATOM     13  C   UNL     1       1.364   8.921  19.860  0.00  0.00    +0.000 C 
ATOM     14  C   UNL     1       1.575   8.110  18.580  0.00  0.00    +0.000 C 
ATOM     15  C   UNL     1       2.638   7.032  18.801  0.00  0.00    +0.000 C 
ENDBRANCH   2   8
BRANCH   6  16
ATOM     16  C   UNL     1       5.427   4.684  18.525  0.00  0.00    +0.000 C 
ATOM     17  C   UNL     1       5.733   6.002  19.215  0.00  0.00    +0.000 C 
ATOM     18  C   UNL     1       6.775   4.932  19.219  0.00  0.00    +0.000 C 
BRANCH  16  19
ATOM     19  C   UNL     1       5.406   4.644  16.992  0.00  0.00    +0.000 A 
ATOM     20  C   UNL     1       5.749   3.477  16.288  0.00  0.00    +0.000 A 
ATOM     21  C   UNL     1       5.934   3.486  14.902  0.00  0.00    +0.000 A 
ATOM     22  C   UNL     1       5.748   4.661  14.183  0.00  0.00    +0.000 A 
ATOM     23  C   UNL     1       5.343   5.816  14.845  0.00  0.00    +0.000 A 
ATOM     24  C   UNL     1       5.172   5.805  16.233  0.00  0.00    +0.000 A 
ENDBRANCH  16  19
ENDBRANCH   6  16
TORSDOF 3
ENDMDL
MODEL 8
REMARK VINA RESULT:      -7.2      9.411     12.225
REMARK  Name = 
REMARK  4 active torsions:
REMARK  status: ('A' for Active; 'I' for Inactive)
REMARK    1  A    between atoms: C_1  and  C_2
REMARK    2  A    between atoms: C_2  and  C_3
REMARK    3  A    between atoms: C_14  and  C_16
REMARK    4  A    between atoms: C_16  and  C_17
REMARK                            x       y       z     vdW  Elec       q    Type
REMARK                         _______ _______ _______ _____ _____    ______ ____
ROOT
ATOM      1  C   UNL     1      10.386  16.074  21.549  0.00  0.00    +0.000 C 
ATOM      2  C   UNL     1       8.985  15.720  21.046  0.00  0.00    +0.000 C 
ATOM      3  C   UNL     1       7.905  16.750  21.494  0.00  0.00    +0.000 C 
ATOM      4  C   UNL     1       7.423  16.794  20.057  0.00  0.00    +0.000 C 
ATOM      5  N   UNL     1       8.752  16.304  19.679  0.00  0.00    +0.000 N 
ATOM      6  C   UNL     1       8.941  15.719  18.438  0.00  0.00    +0.000 C 
ATOM      7  O   UNL     1       8.024  15.588  17.627  0.00  0.00    +0.000 OA
ENDROOT
BRANCH   2   8
ATOM      8  C   UNL     1       8.669  14.166  21.234  0.00  0.00    +0.000 C 
ATOM      9  O   UNL     1       8.426  13.417  20.280  0.00  0.00    +0.000 OA
ATOM     10  N   UNL     1       8.778  13.620  22.529  0.00  0.00    +0.000 N 
ATOM     11  C   UNL     1       8.728  12.168  22.698  0.00  0.00    +0.000 C 
ATOM     12  C   UNL     1       7.410  11.740  23.341  0.00  0.00    +0.000 C 
ATOM     13  C   UNL     1       7.139  12.521  24.631  0.00  0.00    +0.000 C 
ATOM     14  C   UNL     1       7.269  14.029  24.401  0.00  0.00    +0.000 C 
ATOM     15  C   UNL     1       8.630  14.358  23.783  0.00  0.00    +0.000 C 
ENDBRANCH   2   8
BRANCH   6  16
ATOM     16  C   UNL     1      10.366  15.533  17.964  0.00  0.00    +0.000 C 
ATOM     17  C   UNL     1      10.965  16.351  16.833  0.00  0.00    +0.000 C 
ATOM     18  C   UNL     1      11.276  16.740  18.241  0.00  0.00    +0.000 C 
BRANCH  16  19
ATOM     19  C   UNL     1      10.928  14.133  18.236  0.00  0.00    +0.000 A 
ATOM     20  C   UNL     1      10.498  13.017  17.497  0.00  0.00    +0.000 A 
ATOM     21  C   UNL     1      10.843  11.715  17.868  0.00  0.00    +0.000 A 
ATOM     22  C   UNL     1      11.657  11.500  18.975  0.00  0.00    +0.000 A 
ATOM     23  C   UNL     1      12.153  12.589  19.686  0.00  0.00    +0.000 A 
ATOM     24  C   UNL     1      11.794  13.889  19.318  0.00  0.00    +0.000 A 
ENDBRANCH  16  19
ENDBRANCH   6  16
TORSDOF 3
ENDMDL
MODEL 9
REMARK VINA RESULT:      -7.2      8.196     11.424
REMARK  Name = 
REMARK  4 active torsions:
REMARK  status: ('A' for Active; 'I' for Inactive)
REMARK    1  A    between atoms: C_1  and  C_2
REMARK    2  A    between atoms: C_2  and  C_3
REMARK    3  A    between atoms: C_14  and  C_16
REMARK    4  A    between atoms: C_16  and  C_17
REMARK                            x       y       z     vdW  Elec       q    Type
REMARK                         _______ _______ _______ _____ _____    ______ ____
ROOT
ATOM      1  C   UNL     1      -1.631  14.426  20.660  0.00  0.00    +0.000 C 
ATOM      2  C   UNL     1      -1.942  12.976  21.039  0.00  0.00    +0.000 C 
ATOM      3  C   UNL     1      -0.660  12.145  21.344  0.00  0.00    +0.000 C 
ATOM      4  C   UNL     1      -1.334  11.667  22.616  0.00  0.00    +0.000 C 
ATOM      5  N   UNL     1      -2.184  12.857  22.518  0.00  0.00    +0.000 N 
ATOM      6  C   UNL     1      -3.382  12.904  23.212  0.00  0.00    +0.000 C 
ATOM      7  O   UNL     1      -3.771  11.971  23.915  0.00  0.00    +0.000 OA
ENDROOT
BRANCH   2   8
ATOM      8  C   UNL     1      -3.041  12.340  20.070  0.00  0.00    +0.000 C 
ATOM      9  O   UNL     1      -4.220  12.187  20.414  0.00  0.00    +0.000 OA
ATOM     10  N   UNL     1      -2.664  12.043  18.745  0.00  0.00    +0.000 N 
ATOM     11  C   UNL     1      -3.697  11.683  17.773  0.00  0.00    +0.000 C 
ATOM     12  C   UNL     1      -3.626  10.196  17.430  0.00  0.00    +0.000 C 
ATOM     13  C   UNL     1      -2.212   9.787  17.008  0.00  0.00    +0.000 C 
ATOM     14  C   UNL     1      -1.174  10.247  18.035  0.00  0.00    +0.000 C 
ATOM     15  C   UNL     1      -1.306  11.750  18.288  0.00  0.00    +0.000 C 
ENDBRANCH   2   8
BRANCH   6  16
ATOM     16  C   UNL     1      -4.056  14.252  23.350  0.00  0.00    +0.000 C 
ATOM     17  C   UNL     1      -5.078  14.762  22.349  0.00  0.00    +0.000 C 
ATOM     18  C   UNL     1      -5.565  14.166  23.629  0.00  0.00    +0.000 C 
BRANCH  16  19
ATOM     19  C   UNL     1      -3.237  15.273  24.149  0.00  0.00    +0.000 A 
ATOM     20  C   UNL     1      -2.969  16.554  23.637  0.00  0.00    +0.000 A 
ATOM     21  C   UNL     1      -2.057  17.415  24.256  0.00  0.00    +0.000 A 
ATOM     22  C   UNL     1      -1.414  17.022  25.424  0.00  0.00    +0.000 A 
ATOM     23  C   UNL     1      -1.710  15.786  25.991  0.00  0.00    +0.000 A 
ATOM     24  C   UNL     1      -2.613  14.924  25.360  0.00  0.00    +0.000 A 
ENDBRANCH  16  19
ENDBRANCH   6  16
TORSDOF 3
ENDMDL
