MODEL 1
REMARK VINA RESULT:      -8.7      0.000      0.000
REMARK  Name = 
REMARK  11 active torsions:
REMARK  status: ('A' for Active; 'I' for Inactive)
REMARK    1  A    between atoms: C_1  and  C_2
REMARK    2  A    between atoms: C_2  and  C_3
REMARK    3  A    between atoms: C_3  and  C_4
REMARK    4  A    between atoms: C_3  and  N_6
REMARK    5  A    between atoms: C_3  and  C_26
REMARK    6  A    between atoms: C_4  and  C_5
REMARK    7  A    between atoms: C_7  and  C_9
REMARK    8  A    between atoms: C_15  and  C_16
REMARK    9  A    between atoms: C_23  and  C_24
REMARK   10  A    between atoms: C_23  and  C_25
REMARK   11  A    between atoms: C_29  and  C_30
REMARK                            x       y       z     vdW  Elec       q    Type
REMARK                         _______ _______ _______ _____ _____    ______ ____
ROOT
ATOM      1  C   UNL     1       2.189   6.806  19.141  0.00  0.00    +0.000 A 
ATOM      2  C   UNL     1       1.536   6.206  20.247  0.00  0.00    +0.000 A 
ATOM      3  N   UNL     1       1.743   4.890  20.330  0.00  0.00    +0.000 NA
ATOM      4  N   UNL     1       2.532   4.635  19.271  0.00  0.00    +0.000 N 
ATOM      5  C   UNL     1       2.887   5.767  18.564  0.00  0.00    +0.000 A 
ATOM      6  N   UNL     1       3.779   5.706  17.537  0.00  0.00    +0.000 N 
ATOM      7  C   UNL     1       4.626   4.510  17.471  0.00  0.00    +0.000 C 
ATOM      8  C   UNL     1       3.716   3.275  17.591  0.00  0.00    +0.000 C 
ATOM      9  C   UNL     1       3.007   3.274  18.974  0.00  0.00    +0.000 C 
ATOM     10  C   UNL     1       1.818   2.297  18.923  0.00  0.00    +0.000 C 
ATOM     11  C   UNL     1       3.990   2.804  20.067  0.00  0.00    +0.000 C 
ATOM     12  H   UNL     1       4.280   6.556  17.278  0.00  0.00    +0.000 HD
ENDROOT
BRANCH   7  13
ATOM     13  C   UNL     1       5.452   4.534  16.206  0.00  0.00    +0.000 A 
ATOM     14  C   UNL     1       6.729   5.120  16.224  0.00  0.00    +0.000 A 
ATOM     15  C   UNL     1       7.509   5.169  15.069  0.00  0.00    +0.000 A 
ATOM     16  C   UNL     1       7.020   4.632  13.879  0.00  0.00    +0.000 A 
ATOM     17  C   UNL     1       5.755   4.050  13.845  0.00  0.00    +0.000 A 
ATOM     18  C   UNL     1       4.974   3.999  15.001  0.00  0.00    +0.000 A 
ENDBRANCH   7  13
BRANCH   1  20
ATOM     19  N   UNL     1       1.210   8.955  19.457  0.00  0.00    +0.000 N 
ATOM     20  C   UNL     1       2.144   8.205  18.773  0.00  0.00    +0.000 C 
ATOM     21  O   UNL     1       2.929   8.649  17.946  0.00  0.00    +0.000 OA
ATOM     22  H   UNL     1       0.642   8.457  20.135  0.00  0.00    +0.000 HD
BRANCH  19  23
ATOM     23  C   UNL     1       0.954  10.414  19.313  0.00  0.00    +0.000 C 
BRANCH  23  24
ATOM     24  C   UNL     1      -0.468  10.541  18.664  0.00  0.00    +0.000 A 
ATOM     25  C   UNL     1      -0.891   9.756  17.575  0.00  0.00    +0.000 A 
ATOM     26  C   UNL     1      -2.175   9.890  17.025  0.00  0.00    +0.000 A 
ATOM     27  C   UNL     1      -3.078  10.811  17.545  0.00  0.00    +0.000 A 
ATOM     28  C   UNL     1      -4.455  10.951  16.968  0.00  0.00    +0.000 C 
ATOM     29  C   UNL     1      -2.678  11.604  18.626  0.00  0.00    +0.000 A 
ATOM     30  C   UNL     1      -1.392  11.467  19.178  0.00  0.00    +0.000 A 
ENDBRANCH  23  24
BRANCH  23  32
ATOM     31  C   UNL     1       0.623  10.246  21.918  0.00  0.00    +0.000 C 
ATOM     32  C   UNL     1       0.939  11.115  20.710  0.00  0.00    +0.000 C 
ENDBRANCH  23  32
BRANCH  23  33
ATOM     33  C   UNL     1       2.038  11.027  18.371  0.00  0.00    +0.000 C 
ATOM     34  C   UNL     1       2.216  12.538  18.387  0.00  0.00    +0.000 C 
ENDBRANCH  23  33
ENDBRANCH  19  23
ENDBRANCH   1  20
TORSDOF 6
ENDMDL
MODEL 2
REMARK VINA RESULT:      -8.6      0.092      1.206
REMARK  Name = 
REMARK  11 active torsions:
REMARK  status: ('A' for Active; 'I' for Inactive)
REMARK    1  A    between atoms: C_1  and  C_2
REMARK    2  A    between atoms: C_2  and  C_3
REMARK    3  A    between atoms: C_3  and  C_4
REMARK    4  A    between atoms: C_3  and  N_6
REMARK    5  A    between atoms: C_3  and  C_26
REMARK    6  A    between atoms: C_4  and  C_5
REMARK    7  A    between atoms: C_7  and  C_9
REMARK    8  A    between atoms: C_15  and  C_16
REMARK    9  A    between atoms: C_23  and  C_24
REMARK   10  A    between atoms: C_23  and  C_25
REMARK   11  A    between atoms: C_29  and  C_30
REMARK                            x       y       z     vdW  Elec       q    Type
REMARK                         _______ _______ _______ _____ _____    ______ ____
ROOT
ATOM      1  C   UNL     1       2.154   6.835  19.197  0.00  0.00    +0.000 A 
ATOM      2  C   UNL     1       1.497   6.227  20.296  0.00  0.00    +0.000 A 
ATOM      3  N   UNL     1       1.706   4.911  20.371  0.00  0.00    +0.000 NA
ATOM      4  N   UNL     1       2.500   4.664  19.313  0.00  0.00    +0.000 N 
ATOM      5  C   UNL     1       2.855   5.801  18.616  0.00  0.00    +0.000 A 
ATOM      6  N   UNL     1       3.751   5.749  17.591  0.00  0.00    +0.000 N 
ATOM      7  C   UNL     1       4.601   4.555  17.520  0.00  0.00    +0.000 C 
ATOM      8  C   UNL     1       3.693   3.318  17.629  0.00  0.00    +0.000 C 
ATOM      9  C   UNL     1       2.979   3.306  19.009  0.00  0.00    +0.000 C 
ATOM     10  C   UNL     1       1.791   2.327  18.947  0.00  0.00    +0.000 C 
ATOM     11  C   UNL     1       3.958   2.831  20.102  0.00  0.00    +0.000 C 
ATOM     12  H   UNL     1       4.251   6.601  17.339  0.00  0.00    +0.000 HD
ENDROOT
BRANCH   7  13
ATOM     13  C   UNL     1       5.431   4.589  16.258  0.00  0.00    +0.000 A 
ATOM     14  C   UNL     1       4.925   4.014  15.081  0.00  0.00    +0.000 A 
ATOM     15  C   UNL     1       5.674   4.017  13.904  0.00  0.00    +0.000 A 
ATOM     16  C   UNL     1       6.941   4.596  13.892  0.00  0.00    +0.000 A 
ATOM     17  C   UNL     1       7.458   5.167  15.052  0.00  0.00    +0.000 A 
ATOM     18  C   UNL     1       6.709   5.166  16.229  0.00  0.00    +0.000 A 
ENDBRANCH   7  13
BRANCH   1  20
ATOM     19  N   UNL     1       1.183   8.984  19.538  0.00  0.00    +0.000 N 
ATOM     20  C   UNL     1       2.107   8.237  18.838  0.00  0.00    +0.000 C 
ATOM     21  O   UNL     1       2.883   8.684  18.003  0.00  0.00    +0.000 OA
ATOM     22  H   UNL     1       0.623   8.484  20.219  0.00  0.00    +0.000 HD
BRANCH  19  23
ATOM     23  C   UNL     1       0.929  10.445  19.406  0.00  0.00    +0.000 C 
BRANCH  23  24
ATOM     24  C   UNL     1      -0.485  10.579  18.742  0.00  0.00    +0.000 A 
ATOM     25  C   UNL     1      -1.469  11.476  19.199  0.00  0.00    +0.000 A 
ATOM     26  C   UNL     1      -2.721  11.576  18.573  0.00  0.00    +0.000 A 
ATOM     27  C   UNL     1      -3.031  10.786  17.472  0.00  0.00    +0.000 A 
ATOM     28  C   UNL     1      -4.364  10.897  16.794  0.00  0.00    +0.000 C 
ATOM     29  C   UNL     1      -2.069   9.886  17.002  0.00  0.00    +0.000 A 
ATOM     30  C   UNL     1      -0.813   9.787  17.627  0.00  0.00    +0.000 A 
ENDBRANCH  23  24
BRANCH  23  32
ATOM     31  C   UNL     1       0.480  10.272  21.993  0.00  0.00    +0.000 C 
ATOM     32  C   UNL     1       0.899  11.132  20.810  0.00  0.00    +0.000 C 
ENDBRANCH  23  32
BRANCH  23  33
ATOM     33  C   UNL     1       2.024  11.068  18.482  0.00  0.00    +0.000 C 
ATOM     34  C   UNL     1       2.150  12.583  18.458  0.00  0.00    +0.000 C 
ENDBRANCH  23  33
ENDBRANCH  19  23
ENDBRANCH   1  20
TORSDOF 6
ENDMDL
MODEL 3
REMARK VINA RESULT:      -8.1      1.816      8.548
REMARK  Name = 
REMARK  11 active torsions:
REMARK  status: ('A' for Active; 'I' for Inactive)
REMARK    1  A    between atoms: C_1  and  C_2
REMARK    2  A    between atoms: C_2  and  C_3
REMARK    3  A    between atoms: C_3  and  C_4
REMARK    4  A    between atoms: C_3  and  N_6
REMARK    5  A    between atoms: C_3  and  C_26
REMARK    6  A    between atoms: C_4  and  C_5
REMARK    7  A    between atoms: C_7  and  C_9
REMARK    8  A    between atoms: C_15  and  C_16
REMARK    9  A    between atoms: C_23  and  C_24
REMARK   10  A    between atoms: C_23  and  C_25
REMARK   11  A    between atoms: C_29  and  C_30
REMARK                            x       y       z     vdW  Elec       q    Type
REMARK                         _______ _______ _______ _____ _____    ______ ____
ROOT
ATOM      1  C   UNL     1       1.448   8.524  20.369  0.00  0.00    +0.000 A 
ATOM      2  C   UNL     1       1.909   8.890  21.658  0.00  0.00    +0.000 A 
ATOM      3  N   UNL     1       1.332   9.999  22.129  0.00  0.00    +0.000 NA
ATOM      4  N   UNL     1       0.496  10.355  21.137  0.00  0.00    +0.000 N 
ATOM      5  C   UNL     1       0.478   9.460  20.085  0.00  0.00    +0.000 A 
ATOM      6  N   UNL     1      -0.402   9.602  19.055  0.00  0.00    +0.000 N 
ATOM      7  C   UNL     1      -1.558  10.473  19.291  0.00  0.00    +0.000 C 
ATOM      8  C   UNL     1      -1.041  11.803  19.868  0.00  0.00    +0.000 C 
ATOM      9  C   UNL     1      -0.354  11.552  21.238  0.00  0.00    +0.000 C 
ATOM     10  C   UNL     1       0.503  12.781  21.597  0.00  0.00    +0.000 C 
ATOM     11  C   UNL     1      -1.422  11.355  22.333  0.00  0.00    +0.000 C 
ATOM     12  H   UNL     1      -0.638   8.779  18.501  0.00  0.00    +0.000 HD
ENDROOT
BRANCH   7  13
ATOM     13  C   UNL     1      -2.351  10.634  18.014  0.00  0.00    +0.000 A 
ATOM     14  C   UNL     1      -3.507  11.431  18.013  0.00  0.00    +0.000 A 
ATOM     15  C   UNL     1      -4.268  11.586  16.855  0.00  0.00    +0.000 A 
ATOM     16  C   UNL     1      -3.879  10.944  15.680  0.00  0.00    +0.000 A 
ATOM     17  C   UNL     1      -2.737  10.149  15.666  0.00  0.00    +0.000 A 
ATOM     18  C   UNL     1      -1.974   9.993  16.825  0.00  0.00    +0.000 A 
ENDBRANCH   7  13
BRANCH   1  20
ATOM     19  N   UNL     1       2.061   6.223  20.306  0.00  0.00    +0.000 N 
ATOM     20  C   UNL     1       1.893   7.389  19.589  0.00  0.00    +0.000 C 
ATOM     21  O   UNL     1       2.048   7.496  18.379  0.00  0.00    +0.000 OA
ATOM     22  H   UNL     1       1.873   6.276  21.301  0.00  0.00    +0.000 HD
BRANCH  19  23
ATOM     23  C   UNL     1       2.480   4.898  19.774  0.00  0.00    +0.000 C 
BRANCH  23  24
ATOM     24  C   UNL     1       3.748   5.168  18.892  0.00  0.00    +0.000 A 
ATOM     25  C   UNL     1       3.704   5.274  17.489  0.00  0.00    +0.000 A 
ATOM     26  C   UNL     1       4.859   5.526  16.733  0.00  0.00    +0.000 A 
ATOM     27  C   UNL     1       6.094   5.681  17.352  0.00  0.00    +0.000 A 
ATOM     28  C   UNL     1       7.329   5.961  16.549  0.00  0.00    +0.000 C 
ATOM     29  C   UNL     1       6.162   5.578  18.745  0.00  0.00    +0.000 A 
ATOM     30  C   UNL     1       5.005   5.327  19.503  0.00  0.00    +0.000 A 
ENDBRANCH  23  24
BRANCH  23  32
ATOM     31  C   UNL     1       1.726   3.292  21.717  0.00  0.00    +0.000 C 
ATOM     32  C   UNL     1       2.867   3.929  20.939  0.00  0.00    +0.000 C 
ENDBRANCH  23  32
BRANCH  23  33
ATOM     33  C   UNL     1       1.325   4.315  18.899  0.00  0.00    +0.000 C 
ATOM     34  C   UNL     1       1.493   2.904  18.355  0.00  0.00    +0.000 C 
ENDBRANCH  23  33
ENDBRANCH  19  23
ENDBRANCH   1  20
TORSDOF 6
ENDMDL
MODEL 4
REMARK VINA RESULT:      -8.1      1.312      2.526
REMARK  Name = 
REMARK  11 active torsions:
REMARK  status: ('A' for Active; 'I' for Inactive)
REMARK    1  A    between atoms: C_1  and  C_2
REMARK    2  A    between atoms: C_2  and  C_3
REMARK    3  A    between atoms: C_3  and  C_4
REMARK    4  A    between atoms: C_3  and  N_6
REMARK    5  A    between atoms: C_3  and  C_26
REMARK    6  A    between atoms: C_4  and  C_5
REMARK    7  A    between atoms: C_7  and  C_9
REMARK    8  A    between atoms: C_15  and  C_16
REMARK    9  A    between atoms: C_23  and  C_24
REMARK   10  A    between atoms: C_23  and  C_25
REMARK   11  A    between atoms: C_29  and  C_30
REMARK                            x       y       z     vdW  Elec       q    Type
REMARK                         _______ _______ _______ _____ _____    ______ ____
ROOT
ATOM      1  C   UNL     1       1.960   7.024  19.470  0.00  0.00    +0.000 A 
ATOM      2  C   UNL     1       1.340   6.470  20.618  0.00  0.00    +0.000 A 
ATOM      3  N   UNL     1       1.598   5.171  20.780  0.00  0.00    +0.000 NA
ATOM      4  N   UNL     1       2.385   4.880  19.729  0.00  0.00    +0.000 N 
ATOM      5  C   UNL     1       2.690   5.977  18.950  0.00  0.00    +0.000 A 
ATOM      6  N   UNL     1       3.574   5.886  17.918  0.00  0.00    +0.000 N 
ATOM      7  C   UNL     1       4.465   4.721  17.915  0.00  0.00    +0.000 C 
ATOM      8  C   UNL     1       3.604   3.463  18.123  0.00  0.00    +0.000 C 
ATOM      9  C   UNL     1       2.909   3.521  19.512  0.00  0.00    +0.000 C 
ATOM     10  C   UNL     1       1.757   2.499  19.536  0.00  0.00    +0.000 C 
ATOM     11  C   UNL     1       3.919   3.158  20.619  0.00  0.00    +0.000 C 
ATOM     12  H   UNL     1       4.039   6.736  17.600  0.00  0.00    +0.000 HD
ENDROOT
BRANCH   7  13
ATOM     13  C   UNL     1       5.277   4.696  16.641  0.00  0.00    +0.000 A 
ATOM     14  C   UNL     1       6.621   5.102  16.669  0.00  0.00    +0.000 A 
ATOM     15  C   UNL     1       7.392   5.104  15.507  0.00  0.00    +0.000 A 
ATOM     16  C   UNL     1       6.826   4.698  14.300  0.00  0.00    +0.000 A 
ATOM     17  C   UNL     1       5.494   4.295  14.256  0.00  0.00    +0.000 A 
ATOM     18  C   UNL     1       4.722   4.291  15.418  0.00  0.00    +0.000 A 
ENDBRANCH   7  13
BRANCH   1  20
ATOM     19  N   UNL     1       0.919   9.157  19.680  0.00  0.00    +0.000 N 
ATOM     20  C   UNL     1       1.857   8.395  19.016  0.00  0.00    +0.000 C 
ATOM     21  O   UNL     1       2.603   8.809  18.138  0.00  0.00    +0.000 OA
ATOM     22  H   UNL     1       0.387   8.686  20.404  0.00  0.00    +0.000 HD
BRANCH  19  23
ATOM     23  C   UNL     1       0.611  10.595  19.452  0.00  0.00    +0.000 C 
BRANCH  23  24
ATOM     24  C   UNL     1      -0.334  11.026  20.626  0.00  0.00    +0.000 A 
ATOM     25  C   UNL     1      -0.300  10.431  21.901  0.00  0.00    +0.000 A 
ATOM     26  C   UNL     1      -1.155  10.850  22.932  0.00  0.00    +0.000 A 
ATOM     27  C   UNL     1      -2.070  11.876  22.724  0.00  0.00    +0.000 A 
ATOM     28  C   UNL     1      -2.979  12.334  23.825  0.00  0.00    +0.000 C 
ATOM     29  C   UNL     1      -2.123  12.480  21.464  0.00  0.00    +0.000 A 
ATOM     30  C   UNL     1      -1.264  12.062  20.432  0.00  0.00    +0.000 A 
ENDBRANCH  23  24
BRANCH  23  32
ATOM     31  C   UNL     1       2.124  12.467  18.388  0.00  0.00    +0.000 C 
ATOM     32  C   UNL     1       1.915  11.457  19.506  0.00  0.00    +0.000 C 
ENDBRANCH  23  32
BRANCH  23  33
ATOM     33  C   UNL     1      -0.123  10.745  18.081  0.00  0.00    +0.000 C 
ATOM     34  C   UNL     1      -1.325   9.850  17.821  0.00  0.00    +0.000 C 
ENDBRANCH  23  33
ENDBRANCH  19  23
ENDBRANCH   1  20
TORSDOF 6
ENDMDL
MODEL 5
REMARK VINA RESULT:      -8.0      1.716      8.608
REMARK  Name = 
REMARK  11 active torsions:
REMARK  status: ('A' for Active; 'I' for Inactive)
REMARK    1  A    between atoms: C_1  and  C_2
REMARK    2  A    between atoms: C_2  and  C_3
REMARK    3  A    between atoms: C_3  and  C_4
REMARK    4  A    between atoms: C_3  and  N_6
REMARK    5  A    between atoms: C_3  and  C_26
REMARK    6  A    between atoms: C_4  and  C_5
REMARK    7  A    between atoms: C_7  and  C_9
REMARK    8  A    between atoms: C_15  and  C_16
REMARK    9  A    between atoms: C_23  and  C_24
REMARK   10  A    between atoms: C_23  and  C_25
REMARK   11  A    between atoms: C_29  and  C_30
REMARK                            x       y       z     vdW  Elec       q    Type
REMARK                         _______ _______ _______ _____ _____    ______ ____
ROOT
ATOM      1  C   UNL     1       1.450   8.459  20.422  0.00  0.00    +0.000 A 
ATOM      2  C   UNL     1       1.950   8.856  21.688  0.00  0.00    +0.000 A 
ATOM      3  N   UNL     1       1.423  10.000  22.128  0.00  0.00    +0.000 NA
ATOM      4  N   UNL     1       0.579  10.349  21.140  0.00  0.00    +0.000 N 
ATOM      5  C   UNL     1       0.507   9.418  20.123  0.00  0.00    +0.000 A 
ATOM      6  N   UNL     1      -0.388   9.553  19.106  0.00  0.00    +0.000 N 
ATOM      7  C   UNL     1      -1.508  10.474  19.331  0.00  0.00    +0.000 C 
ATOM      8  C   UNL     1      -0.934  11.804  19.848  0.00  0.00    +0.000 C 
ATOM      9  C   UNL     1      -0.226  11.580  21.213  0.00  0.00    +0.000 C 
ATOM     10  C   UNL     1       0.681  12.789  21.508  0.00  0.00    +0.000 C 
ATOM     11  C   UNL     1      -1.278  11.461  22.336  0.00  0.00    +0.000 C 
ATOM     12  H   UNL     1      -0.665   8.719  18.588  0.00  0.00    +0.000 HD
ENDROOT
BRANCH   7  13
ATOM     13  C   UNL     1      -2.322  10.615  18.065  0.00  0.00    +0.000 A 
ATOM     14  C   UNL     1      -1.921   9.932  16.905  0.00  0.00    +0.000 A 
ATOM     15  C   UNL     1      -2.643  10.054  15.719  0.00  0.00    +0.000 A 
ATOM     16  C   UNL     1      -3.778  10.863  15.679  0.00  0.00    +0.000 A 
ATOM     17  C   UNL     1      -4.187  11.547  16.820  0.00  0.00    +0.000 A 
ATOM     18  C   UNL     1      -3.465  11.425  18.009  0.00  0.00    +0.000 A 
ENDBRANCH   7  13
BRANCH   1  20
ATOM     19  N   UNL     1       1.948   6.129  20.428  0.00  0.00    +0.000 N 
ATOM     20  C   UNL     1       1.838   7.280  19.677  0.00  0.00    +0.000 C 
ATOM     21  O   UNL     1       1.998   7.345  18.465  0.00  0.00    +0.000 OA
ATOM     22  H   UNL     1       1.762   6.221  21.421  0.00  0.00    +0.000 HD
BRANCH  19  23
ATOM     23  C   UNL     1       2.301   4.770  19.936  0.00  0.00    +0.000 C 
BRANCH  23  24
ATOM     24  C   UNL     1       3.573   4.953  19.038  0.00  0.00    +0.000 A 
ATOM     25  C   UNL     1       4.796   5.450  19.525  0.00  0.00    +0.000 A 
ATOM     26  C   UNL     1       5.918   5.591  18.694  0.00  0.00    +0.000 A 
ATOM     27  C   UNL     1       5.855   5.239  17.350  0.00  0.00    +0.000 A 
ATOM     28  C   UNL     1       7.053   5.378  16.460  0.00  0.00    +0.000 C 
ATOM     29  C   UNL     1       4.649   4.744  16.843  0.00  0.00    +0.000 A 
ATOM     30  C   UNL     1       3.526   4.601  17.677  0.00  0.00    +0.000 A 
ENDBRANCH  23  24
BRANCH  23  32
ATOM     31  C   UNL     1       3.526   2.616  20.820  0.00  0.00    +0.000 C 
ATOM     32  C   UNL     1       2.652   3.822  21.129  0.00  0.00    +0.000 C 
ENDBRANCH  23  32
BRANCH  23  33
ATOM     33  C   UNL     1       1.113   4.214  19.088  0.00  0.00    +0.000 C 
ATOM     34  C   UNL     1       0.774   2.738  19.229  0.00  0.00    +0.000 C 
ENDBRANCH  23  33
ENDBRANCH  19  23
ENDBRANCH   1  20
TORSDOF 6
ENDMDL
MODEL 6
REMARK VINA RESULT:      -8.0      1.319      2.684
REMARK  Name = 
REMARK  11 active torsions:
REMARK  status: ('A' for Active; 'I' for Inactive)
REMARK    1  A    between atoms: C_1  and  C_2
REMARK    2  A    between atoms: C_2  and  C_3
REMARK    3  A    between atoms: C_3  and  C_4
REMARK    4  A    between atoms: C_3  and  N_6
REMARK    5  A    between atoms: C_3  and  C_26
REMARK    6  A    between atoms: C_4  and  C_5
REMARK    7  A    between atoms: C_7  and  C_9
REMARK    8  A    between atoms: C_15  and  C_16
REMARK    9  A    between atoms: C_23  and  C_24
REMARK   10  A    between atoms: C_23  and  C_25
REMARK   11  A    between atoms: C_29  and  C_30
REMARK                            x       y       z     vdW  Elec       q    Type
REMARK                         _______ _______ _______ _____ _____    ______ ____
ROOT
ATOM      1  C   UNL     1       1.973   7.121  19.462  0.00  0.00    +0.000 A 
ATOM      2  C   UNL     1       1.335   6.570  20.601  0.00  0.00    +0.000 A 
ATOM      3  N   UNL     1       1.587   5.270  20.767  0.00  0.00    +0.000 NA
ATOM      4  N   UNL     1       2.390   4.976  19.729  0.00  0.00    +0.000 N 
ATOM      5  C   UNL     1       2.709   6.073  18.953  0.00  0.00    +0.000 A 
ATOM      6  N   UNL     1       3.608   5.978  17.935  0.00  0.00    +0.000 N 
ATOM      7  C   UNL     1       4.497   4.811  17.947  0.00  0.00    +0.000 C 
ATOM      8  C   UNL     1       3.629   3.555  18.142  0.00  0.00    +0.000 C 
ATOM      9  C   UNL     1       2.914   3.617  19.520  0.00  0.00    +0.000 C 
ATOM     10  C   UNL     1       1.759   2.597  19.527  0.00  0.00    +0.000 C 
ATOM     11  C   UNL     1       3.906   3.251  20.643  0.00  0.00    +0.000 C 
ATOM     12  H   UNL     1       4.081   6.827  17.624  0.00  0.00    +0.000 HD
ENDROOT
BRANCH   7  13
ATOM     13  C   UNL     1       5.328   4.784  16.685  0.00  0.00    +0.000 A 
ATOM     14  C   UNL     1       4.762   4.303  15.493  0.00  0.00    +0.000 A 
ATOM     15  C   UNL     1       5.508   4.252  14.317  0.00  0.00    +0.000 A 
ATOM     16  C   UNL     1       6.834   4.683  14.318  0.00  0.00    +0.000 A 
ATOM     17  C   UNL     1       7.410   5.160  15.492  0.00  0.00    +0.000 A 
ATOM     18  C   UNL     1       6.663   5.212  16.671  0.00  0.00    +0.000 A 
ENDBRANCH   7  13
BRANCH   1  20
ATOM     19  N   UNL     1       0.921   9.251  19.641  0.00  0.00    +0.000 N 
ATOM     20  C   UNL     1       1.881   8.492  19.006  0.00  0.00    +0.000 C 
ATOM     21  O   UNL     1       2.653   8.909  18.152  0.00  0.00    +0.000 OA
ATOM     22  H   UNL     1       0.369   8.778  20.348  0.00  0.00    +0.000 HD
BRANCH  19  23
ATOM     23  C   UNL     1       0.616  10.689  19.404  0.00  0.00    +0.000 C 
BRANCH  23  24
ATOM     24  C   UNL     1      -0.348  11.122  20.561  0.00  0.00    +0.000 A 
ATOM     25  C   UNL     1      -1.328  12.123  20.415  0.00  0.00    +0.000 A 
ATOM     26  C   UNL     1      -2.181  12.479  21.471  0.00  0.00    +0.000 A 
ATOM     27  C   UNL     1      -2.086  11.847  22.705  0.00  0.00    +0.000 A 
ATOM     28  C   UNL     1      -3.002  12.215  23.834  0.00  0.00    +0.000 C 
ATOM     29  C   UNL     1      -1.118  10.851  22.875  0.00  0.00    +0.000 A 
ATOM     30  C   UNL     1      -0.265  10.493  21.816  0.00  0.00    +0.000 A 
ENDBRANCH  23  24
BRANCH  23  32
ATOM     31  C   UNL     1       2.108  12.612  18.404  0.00  0.00    +0.000 C 
ATOM     32  C   UNL     1       1.919  11.551  19.478  0.00  0.00    +0.000 C 
ENDBRANCH  23  32
BRANCH  23  33
ATOM     33  C   UNL     1      -0.095  10.835  18.021  0.00  0.00    +0.000 C 
ATOM     34  C   UNL     1      -1.257   9.900  17.721  0.00  0.00    +0.000 C 
ENDBRANCH  23  33
ENDBRANCH  19  23
ENDBRANCH   1  20
TORSDOF 6
ENDMDL
MODEL 7
REMARK VINA RESULT:      -7.9      2.196      8.590
REMARK  Name = 
REMARK  11 active torsions:
REMARK  status: ('A' for Active; 'I' for Inactive)
REMARK    1  A    between atoms: C_1  and  C_2
REMARK    2  A    between atoms: C_2  and  C_3
REMARK    3  A    between atoms: C_3  and  C_4
REMARK    4  A    between atoms: C_3  and  N_6
REMARK    5  A    between atoms: C_3  and  C_26
REMARK    6  A    between atoms: C_4  and  C_5
REMARK    7  A    between atoms: C_7  and  C_9
REMARK    8  A    between atoms: C_15  and  C_16
REMARK    9  A    between atoms: C_23  and  C_24
REMARK   10  A    between atoms: C_23  and  C_25
REMARK   11  A    between atoms: C_29  and  C_30
REMARK                            x       y       z     vdW  Elec       q    Type
REMARK                         _______ _______ _______ _____ _____    ______ ____
ROOT
ATOM      1  C   UNL     1       0.878   8.599  21.041  0.00  0.00    +0.000 A 
ATOM      2  C   UNL     1       1.483   9.225  22.161  0.00  0.00    +0.000 A 
ATOM      3  N   UNL     1       1.233  10.534  22.231  0.00  0.00    +0.000 NA
ATOM      4  N   UNL     1       0.466  10.760  21.149  0.00  0.00    +0.000 N 
ATOM      5  C   UNL     1       0.166   9.614  20.440  0.00  0.00    +0.000 A 
ATOM      6  N   UNL     1      -0.700   9.643  19.388  0.00  0.00    +0.000 N 
ATOM      7  C   UNL     1      -1.581  10.811  19.292  0.00  0.00    +0.000 C 
ATOM      8  C   UNL     1      -0.713  12.074  19.430  0.00  0.00    +0.000 C 
ATOM      9  C   UNL     1      -0.042  12.104  20.831  0.00  0.00    +0.000 C 
ATOM     10  C   UNL     1       1.118  13.117  20.807  0.00  0.00    +0.000 C 
ATOM     11  C   UNL     1      -1.068  12.549  21.894  0.00  0.00    +0.000 C 
ATOM     12  H   UNL     1      -1.167   8.777  19.120  0.00  0.00    +0.000 HD
ENDROOT
BRANCH   7  13
ATOM     13  C   UNL     1      -2.371  10.756  18.004  0.00  0.00    +0.000 A 
ATOM     14  C   UNL     1      -1.916   9.951  16.948  0.00  0.00    +0.000 A 
ATOM     15  C   UNL     1      -2.616   9.891  15.743  0.00  0.00    +0.000 A 
ATOM     16  C   UNL     1      -3.781  10.637  15.581  0.00  0.00    +0.000 A 
ATOM     17  C   UNL     1      -4.243  11.442  16.619  0.00  0.00    +0.000 A 
ATOM     18  C   UNL     1      -3.545  11.502  17.826  0.00  0.00    +0.000 A 
ENDBRANCH   7  13
BRANCH   1  20
ATOM     19  N   UNL     1       2.175   6.832  20.109  0.00  0.00    +0.000 N 
ATOM     20  C   UNL     1       0.976   7.200  20.683  0.00  0.00    +0.000 C 
ATOM     21  O   UNL     1       0.055   6.435  20.934  0.00  0.00    +0.000 OA
ATOM     22  H   UNL     1       2.859   7.570  19.982  0.00  0.00    +0.000 HD
BRANCH  19  23
ATOM     23  C   UNL     1       2.572   5.468  19.665  0.00  0.00    +0.000 C 
BRANCH  23  24
ATOM     24  C   UNL     1       3.924   5.642  18.891  0.00  0.00    +0.000 A 
ATOM     25  C   UNL     1       5.086   4.906  19.193  0.00  0.00    +0.000 A 
ATOM     26  C   UNL     1       6.277   5.081  18.471  0.00  0.00    +0.000 A 
ATOM     27  C   UNL     1       6.346   5.995  17.425  0.00  0.00    +0.000 A 
ATOM     28  C   UNL     1       7.613   6.178  16.644  0.00  0.00    +0.000 C 
ATOM     29  C   UNL     1       5.205   6.739  17.109  0.00  0.00    +0.000 A 
ATOM     30  C   UNL     1       4.011   6.561  17.831  0.00  0.00    +0.000 A 
ENDBRANCH  23  24
BRANCH  23  32
ATOM     31  C   UNL     1       1.735   3.493  21.190  0.00  0.00    +0.000 C 
ATOM     32  C   UNL     1       2.808   4.531  20.896  0.00  0.00    +0.000 C 
ENDBRANCH  23  32
BRANCH  23  33
ATOM     33  C   UNL     1       1.470   4.904  18.713  0.00  0.00    +0.000 C 
ATOM     34  C   UNL     1       1.893   3.882  17.669  0.00  0.00    +0.000 C 
ENDBRANCH  23  33
ENDBRANCH  19  23
ENDBRANCH   1  20
TORSDOF 6
ENDMDL
MODEL 8
REMARK VINA RESULT:      -7.5      2.126      3.404
REMARK  Name = 
REMARK  11 active torsions:
REMARK  status: ('A' for Active; 'I' for Inactive)
REMARK    1  A    between atoms: C_1  and  C_2
REMARK    2  A    between atoms: C_2  and  C_3
REMARK    3  A    between atoms: C_3  and  C_4
REMARK    4  A    between atoms: C_3  and  N_6
REMARK    5  A    between atoms: C_3  and  C_26
REMARK    6  A    between atoms: C_4  and  C_5
REMARK    7  A    between atoms: C_7  and  C_9
REMARK    8  A    between atoms: C_15  and  C_16
REMARK    9  A    between atoms: C_23  and  C_24
REMARK   10  A    between atoms: C_23  and  C_25
REMARK   11  A    between atoms: C_29  and  C_30
REMARK                            x       y       z     vdW  Elec       q    Type
REMARK                         _______ _______ _______ _____ _____    ______ ____
ROOT
ATOM      1  C   UNL     1       1.550   8.295  19.743  0.00  0.00    +0.000 A 
ATOM      2  C   UNL     1       0.901   7.910  20.944  0.00  0.00    +0.000 A 
ATOM      3  N   UNL     1       1.018   6.607  21.210  0.00  0.00    +0.000 NA
ATOM      4  N   UNL     1       1.742   6.145  20.175  0.00  0.00    +0.000 N 
ATOM      5  C   UNL     1       2.147   7.135  19.302  0.00  0.00    +0.000 A 
ATOM      6  N   UNL     1       2.990   6.861  18.267  0.00  0.00    +0.000 N 
ATOM      7  C   UNL     1       3.746   5.607  18.349  0.00  0.00    +0.000 C 
ATOM      8  C   UNL     1       2.757   4.474  18.675  0.00  0.00    +0.000 C 
ATOM      9  C   UNL     1       2.108   4.724  20.064  0.00  0.00    +0.000 C 
ATOM     10  C   UNL     1       0.851   3.842  20.191  0.00  0.00    +0.000 C 
ATOM     11  C   UNL     1       3.098   4.340  21.183  0.00  0.00    +0.000 C 
ATOM     12  H   UNL     1       3.538   7.624  17.872  0.00  0.00    +0.000 HD
ENDROOT
BRANCH   7  13
ATOM     13  C   UNL     1       4.520   5.388  17.069  0.00  0.00    +0.000 A 
ATOM     14  C   UNL     1       4.885   4.084  16.696  0.00  0.00    +0.000 A 
ATOM     15  C   UNL     1       5.611   3.851  15.529  0.00  0.00    +0.000 A 
ATOM     16  C   UNL     1       5.980   4.923  14.718  0.00  0.00    +0.000 A 
ATOM     17  C   UNL     1       5.627   6.221  15.075  0.00  0.00    +0.000 A 
ATOM     18  C   UNL     1       4.899   6.455  16.243  0.00  0.00    +0.000 A 
ENDBRANCH   7  13
BRANCH   1  20
ATOM     19  N   UNL     1       0.917  10.587  19.907  0.00  0.00    +0.000 N 
ATOM     20  C   UNL     1       1.588   9.628  19.178  0.00  0.00    +0.000 C 
ATOM     21  O   UNL     1       2.222   9.842  18.153  0.00  0.00    +0.000 OA
ATOM     22  H   UNL     1       0.455  10.267  20.752  0.00  0.00    +0.000 HD
BRANCH  19  23
ATOM     23  C   UNL     1       0.806  12.036  19.591  0.00  0.00    +0.000 C 
BRANCH  23  24
ATOM     24  C   UNL     1       0.143  12.704  20.844  0.00  0.00    +0.000 A 
ATOM     25  C   UNL     1      -0.529  11.972  21.842  0.00  0.00    +0.000 A 
ATOM     26  C   UNL     1      -1.103  12.603  22.957  0.00  0.00    +0.000 A 
ATOM     27  C   UNL     1      -1.024  13.982  23.112  0.00  0.00    +0.000 A 
ATOM     28  C   UNL     1      -1.626  14.660  24.306  0.00  0.00    +0.000 C 
ATOM     29  C   UNL     1      -0.363  14.729  22.132  0.00  0.00    +0.000 A 
ATOM     30  C   UNL     1       0.214  14.097  21.016  0.00  0.00    +0.000 A 
ENDBRANCH  23  24
BRANCH  23  32
ATOM     31  C   UNL     1       2.443  13.433  18.075  0.00  0.00    +0.000 C 
ATOM     32  C   UNL     1       2.222  12.665  19.369  0.00  0.00    +0.000 C 
ENDBRANCH  23  32
BRANCH  23  33
ATOM     33  C   UNL     1      -0.106  12.213  18.335  0.00  0.00    +0.000 C 
ATOM     34  C   UNL     1      -1.430  11.466  18.313  0.00  0.00    +0.000 C 
ENDBRANCH  23  33
ENDBRANCH  19  23
ENDBRANCH   1  20
TORSDOF 6
ENDMDL
MODEL 9
REMARK VINA RESULT:      -7.5      2.177      3.470
REMARK  Name = 
REMARK  11 active torsions:
REMARK  status: ('A' for Active; 'I' for Inactive)
REMARK    1  A    between atoms: C_1  and  C_2
REMARK    2  A    between atoms: C_2  and  C_3
REMARK    3  A    between atoms: C_3  and  C_4
REMARK    4  A    between atoms: C_3  and  N_6
REMARK    5  A    between atoms: C_3  and  C_26
REMARK    6  A    between atoms: C_4  and  C_5
REMARK    7  A    between atoms: C_7  and  C_9
REMARK    8  A    between atoms: C_15  and  C_16
REMARK    9  A    between atoms: C_23  and  C_24
REMARK   10  A    between atoms: C_23  and  C_25
REMARK   11  A    between atoms: C_29  and  C_30
REMARK                            x       y       z     vdW  Elec       q    Type
REMARK                         _______ _______ _______ _____ _____    ______ ____
ROOT
ATOM      1  C   UNL     1       1.527   8.399  19.773  0.00  0.00    +0.000 A 
ATOM      2  C   UNL     1       0.880   8.025  20.977  0.00  0.00    +0.000 A 
ATOM      3  N   UNL     1       0.988   6.723  21.252  0.00  0.00    +0.000 NA
ATOM      4  N   UNL     1       1.707   6.250  20.218  0.00  0.00    +0.000 N 
ATOM      5  C   UNL     1       2.116   7.231  19.337  0.00  0.00    +0.000 A 
ATOM      6  N   UNL     1       2.954   6.945  18.302  0.00  0.00    +0.000 N 
ATOM      7  C   UNL     1       3.703   5.687  18.390  0.00  0.00    +0.000 C 
ATOM      8  C   UNL     1       2.707   4.563  18.725  0.00  0.00    +0.000 C 
ATOM      9  C   UNL     1       2.063   4.826  20.115  0.00  0.00    +0.000 C 
ATOM     10  C   UNL     1       0.801   3.953  20.251  0.00  0.00    +0.000 C 
ATOM     11  C   UNL     1       3.054   4.443  21.233  0.00  0.00    +0.000 C 
ATOM     12  H   UNL     1       3.506   7.703  17.901  0.00  0.00    +0.000 HD
ENDROOT
BRANCH   7  13
ATOM     13  C   UNL     1       4.471   5.455  17.109  0.00  0.00    +0.000 A 
ATOM     14  C   UNL     1       4.824   6.551  16.305  0.00  0.00    +0.000 A 
ATOM     15  C   UNL     1       5.520   6.367  15.111  0.00  0.00    +0.000 A 
ATOM     16  C   UNL     1       5.872   5.081  14.706  0.00  0.00    +0.000 A 
ATOM     17  C   UNL     1       5.528   3.984  15.491  0.00  0.00    +0.000 A 
ATOM     18  C   UNL     1       4.832   4.167  16.687  0.00  0.00    +0.000 A 
ENDBRANCH   7  13
BRANCH   1  20
ATOM     19  N   UNL     1       0.934  10.700  19.938  0.00  0.00    +0.000 N 
ATOM     20  C   UNL     1       1.573   9.727  19.199  0.00  0.00    +0.000 C 
ATOM     21  O   UNL     1       2.185   9.926  18.158  0.00  0.00    +0.000 OA
ATOM     22  H   UNL     1       0.487  10.393  20.796  0.00  0.00    +0.000 HD
BRANCH  19  23
ATOM     23  C   UNL     1       0.838  12.150  19.616  0.00  0.00    +0.000 C 
BRANCH  23  24
ATOM     24  C   UNL     1       0.197  12.831  20.873  0.00  0.00    +0.000 A 
ATOM     25  C   UNL     1       0.272  14.215  21.123  0.00  0.00    +0.000 A 
ATOM     26  C   UNL     1      -0.324  14.792  22.255  0.00  0.00    +0.000 A 
ATOM     27  C   UNL     1      -1.014  14.008  23.173  0.00  0.00    +0.000 A 
ATOM     28  C   UNL     1      -1.661  14.621  24.378  0.00  0.00    +0.000 C 
ATOM     29  C   UNL     1      -1.100  12.630  22.946  0.00  0.00    +0.000 A 
ATOM     30  C   UNL     1      -0.505  12.052  21.810  0.00  0.00    +0.000 A 
ENDBRANCH  23  24
BRANCH  23  32
ATOM     31  C   UNL     1       2.476  13.519  18.076  0.00  0.00    +0.000 C 
ATOM     32  C   UNL     1       2.259  12.759  19.376  0.00  0.00    +0.000 C 
ENDBRANCH  23  32
BRANCH  23  33
ATOM     33  C   UNL     1      -0.085  12.332  18.369  0.00  0.00    +0.000 C 
ATOM     34  C   UNL     1      -1.425  11.613  18.371  0.00  0.00    +0.000 C 
ENDBRANCH  23  33
ENDBRANCH  19  23
ENDBRANCH   1  20
TORSDOF 6
ENDMDL
