MODEL 1
REMARK VINA RESULT:      -8.2      0.000      0.000
REMARK  Name = 
REMARK  2 active torsions:
REMARK  status: ('A' for Active; 'I' for Inactive)
REMARK    1  A    between atoms: N_1  and  C_2
REMARK    2  A    between atoms: C_9  and  C_10
REMARK                            x       y       z     vdW  Elec       q    Type
REMARK                         _______ _______ _______ _____ _____    ______ ____
ROOT
ATOM      1  C   UNL     1       2.773   2.751  20.599  0.00  0.00    +0.000 C 
ATOM      2  C   UNL     1       1.977   4.009  20.967  0.00  0.00    +0.000 C 
ATOM      3  C   UNL     1       1.270   4.667  19.781  0.00  0.00    +0.000 C 
ATOM      4  C   UNL     1       2.203   5.516  18.936  0.00  0.00    +0.000 A 
ATOM      5  C   UNL     1       1.996   6.903  18.972  0.00  0.00    +0.000 A 
ATOM      6  C   UNL     1       2.809   7.763  18.254  0.00  0.00    +0.000 A 
ATOM      7  C   UNL     1       3.830   7.260  17.459  0.00  0.00    +0.000 A 
ATOM      8  C   UNL     1       4.070   5.872  17.358  0.00  0.00    +0.000 A 
ATOM      9  C   UNL     1       3.258   4.973  18.142  0.00  0.00    +0.000 A 
ATOM     10  C   UNL     1       3.523   3.475  18.199  0.00  0.00    +0.000 C 
ATOM     11  C   UNL     1       3.858   2.997  19.583  0.00  0.00    +0.000 C 
ATOM     12  O   UNL     1       5.015   2.687  19.839  0.00  0.00    +0.000 OA
ENDROOT
BRANCH   8  13
ATOM     13  C   UNL     1       5.169   5.438  16.416  0.00  0.00    +0.000 A 
ATOM     14  C   UNL     1       4.937   4.550  15.344  0.00  0.00    +0.000 A 
ATOM     15  C   UNL     1       5.979   4.141  14.514  0.00  0.00    +0.000 A 
ATOM     16  C   UNL     1       7.259   4.640  14.730  0.00  0.00    +0.000 A 
ATOM     17  N   UNL     1       7.477   5.533  15.728  0.00  0.00    +0.000 NA
ATOM     18  C   UNL     1       6.480   5.945  16.557  0.00  0.00    +0.000 A 
ENDBRANCH   8  13
BRANCH   1  19
ATOM     19  N   UNL     1       3.336   2.151  21.810  0.00  0.00    +0.000 NA
ATOM     20  H   UNL     1       4.296   2.529  21.982  0.00  0.00    +0.000 HD
ATOM     21  H   UNL     1       3.402   1.112  21.696  0.00  0.00    +0.000 HD
ENDBRANCH   1  19
TORSDOF 2
ENDMDL
MODEL 2
REMARK VINA RESULT:      -7.3      1.547      5.319
REMARK  Name = 
REMARK  2 active torsions:
REMARK  status: ('A' for Active; 'I' for Inactive)
REMARK    1  A    between atoms: N_1  and  C_2
REMARK    2  A    between atoms: C_9  and  C_10
REMARK                            x       y       z     vdW  Elec       q    Type
REMARK                         _______ _______ _______ _____ _____    ______ ____
ROOT
ATOM      1  C   UNL     1       6.087   4.427  15.899  0.00  0.00    +0.000 C 
ATOM      2  C   UNL     1       5.778   5.884  15.532  0.00  0.00    +0.000 C 
ATOM      3  C   UNL     1       5.741   6.833  16.730  0.00  0.00    +0.000 C 
ATOM      4  C   UNL     1       4.433   6.760  17.499  0.00  0.00    +0.000 A 
ATOM      5  C   UNL     1       3.599   7.887  17.429  0.00  0.00    +0.000 A 
ATOM      6  C   UNL     1       2.376   7.907  18.077  0.00  0.00    +0.000 A 
ATOM      7  C   UNL     1       1.967   6.819  18.835  0.00  0.00    +0.000 A 
ATOM      8  C   UNL     1       2.774   5.668  18.968  0.00  0.00    +0.000 A 
ATOM      9  C   UNL     1       4.029   5.619  18.255  0.00  0.00    +0.000 A 
ATOM     10  C   UNL     1       4.906   4.375  18.233  0.00  0.00    +0.000 C 
ATOM     11  C   UNL     1       5.089   3.819  16.850  0.00  0.00    +0.000 C 
ATOM     12  O   UNL     1       4.509   2.784  16.545  0.00  0.00    +0.000 OA
ENDROOT
BRANCH   8  13
ATOM     13  C   UNL     1       2.253   4.571  19.866  0.00  0.00    +0.000 A 
ATOM     14  C   UNL     1       1.384   3.562  19.399  0.00  0.00    +0.000 A 
ATOM     15  C   UNL     1       0.893   2.583  20.262  0.00  0.00    +0.000 A 
ATOM     16  C   UNL     1       1.292   2.587  21.594  0.00  0.00    +0.000 A 
ATOM     17  N   UNL     1       2.168   3.525  22.036  0.00  0.00    +0.000 NA
ATOM     18  C   UNL     1       2.658   4.495  21.218  0.00  0.00    +0.000 A 
ENDBRANCH   8  13
BRANCH   1  19
ATOM     19  N   UNL     1       6.186   3.621  14.680  0.00  0.00    +0.000 NA
ATOM     20  H   UNL     1       6.995   2.962  14.753  0.00  0.00    +0.000 HD
ATOM     21  H   UNL     1       6.337   4.244  13.852  0.00  0.00    +0.000 HD
ENDBRANCH   1  19
TORSDOF 2
ENDMDL
MODEL 3
REMARK VINA RESULT:      -7.3      2.334      3.407
REMARK  Name = 
REMARK  2 active torsions:
REMARK  status: ('A' for Active; 'I' for Inactive)
REMARK    1  A    between atoms: N_1  and  C_2
REMARK    2  A    between atoms: C_9  and  C_10
REMARK                            x       y       z     vdW  Elec       q    Type
REMARK                         _______ _______ _______ _____ _____    ______ ____
ROOT
ATOM      1  C   UNL     1       2.189   7.211  20.158  0.00  0.00    +0.000 C 
ATOM      2  C   UNL     1       1.409   5.970  20.610  0.00  0.00    +0.000 C 
ATOM      3  C   UNL     1       2.296   4.787  21.001  0.00  0.00    +0.000 C 
ATOM      4  C   UNL     1       2.811   4.014  19.800  0.00  0.00    +0.000 A 
ATOM      5  C   UNL     1       2.305   2.717  19.622  0.00  0.00    +0.000 A 
ATOM      6  C   UNL     1       2.696   1.943  18.544  0.00  0.00    +0.000 A 
ATOM      7  C   UNL     1       3.624   2.429  17.633  0.00  0.00    +0.000 A 
ATOM      8  C   UNL     1       4.191   3.714  17.773  0.00  0.00    +0.000 A 
ATOM      9  C   UNL     1       3.751   4.547  18.867  0.00  0.00    +0.000 A 
ATOM     10  C   UNL     1       4.208   5.990  19.028  0.00  0.00    +0.000 C 
ATOM     11  C   UNL     1       3.070   6.969  18.961  0.00  0.00    +0.000 C 
ATOM     12  O   UNL     1       2.945   7.664  17.961  0.00  0.00    +0.000 OA
ENDROOT
BRANCH   8  13
ATOM     13  C   UNL     1       5.234   4.113  16.755  0.00  0.00    +0.000 A 
ATOM     14  C   UNL     1       4.935   4.258  15.384  0.00  0.00    +0.000 A 
ATOM     15  C   UNL     1       5.928   4.593  14.465  0.00  0.00    +0.000 A 
ATOM     16  C   UNL     1       7.225   4.817  14.915  0.00  0.00    +0.000 A 
ATOM     17  N   UNL     1       7.507   4.728  16.239  0.00  0.00    +0.000 NA
ATOM     18  C   UNL     1       6.559   4.397  17.157  0.00  0.00    +0.000 A 
ENDBRANCH   8  13
BRANCH   1  19
ATOM     19  N   UNL     1       1.257   8.309  19.891  0.00  0.00    +0.000 NA
ATOM     20  H   UNL     1       1.787   9.199  19.746  0.00  0.00    +0.000 HD
ATOM     21  H   UNL     1       0.611   8.434  20.706  0.00  0.00    +0.000 HD
ENDBRANCH   1  19
TORSDOF 2
ENDMDL
MODEL 4
REMARK VINA RESULT:      -7.1      1.664      5.411
REMARK  Name = 
REMARK  2 active torsions:
REMARK  status: ('A' for Active; 'I' for Inactive)
REMARK    1  A    between atoms: N_1  and  C_2
REMARK    2  A    between atoms: C_9  and  C_10
REMARK                            x       y       z     vdW  Elec       q    Type
REMARK                         _______ _______ _______ _____ _____    ______ ____
ROOT
ATOM      1  C   UNL     1       6.160   4.438  15.810  0.00  0.00    +0.000 C 
ATOM      2  C   UNL     1       5.890   5.901  15.439  0.00  0.00    +0.000 C 
ATOM      3  C   UNL     1       5.847   6.849  16.639  0.00  0.00    +0.000 C 
ATOM      4  C   UNL     1       4.523   6.802  17.380  0.00  0.00    +0.000 A 
ATOM      5  C   UNL     1       3.714   7.946  17.295  0.00  0.00    +0.000 A 
ATOM      6  C   UNL     1       2.478   7.990  17.917  0.00  0.00    +0.000 A 
ATOM      7  C   UNL     1       2.031   6.909  18.665  0.00  0.00    +0.000 A 
ATOM      8  C   UNL     1       2.811   5.742  18.812  0.00  0.00    +0.000 A 
ATOM      9  C   UNL     1       4.079   5.668  18.125  0.00  0.00    +0.000 A 
ATOM     10  C   UNL     1       4.931   4.406  18.119  0.00  0.00    +0.000 C 
ATOM     11  C   UNL     1       5.131   3.849  16.739  0.00  0.00    +0.000 C 
ATOM     12  O   UNL     1       4.536   2.827  16.421  0.00  0.00    +0.000 OA
ENDROOT
BRANCH   8  13
ATOM     13  C   UNL     1       2.250   4.654  19.697  0.00  0.00    +0.000 A 
ATOM     14  C   UNL     1       2.618   4.519  21.053  0.00  0.00    +0.000 A 
ATOM     15  C   UNL     1       2.108   3.483  21.834  0.00  0.00    +0.000 A 
ATOM     16  C   UNL     1       1.201   2.590  21.273  0.00  0.00    +0.000 A 
ATOM     17  N   UNL     1       0.806   2.745  19.985  0.00  0.00    +0.000 NA
ATOM     18  C   UNL     1       1.291   3.744  19.198  0.00  0.00    +0.000 A 
ENDBRANCH   8  13
BRANCH   1  19
ATOM     19  N   UNL     1       6.268   3.632  14.592  0.00  0.00    +0.000 NA
ATOM     20  H   UNL     1       5.614   2.818  14.644  0.00  0.00    +0.000 HD
ATOM     21  H   UNL     1       7.245   3.268  14.490  0.00  0.00    +0.000 HD
ENDBRANCH   1  19
TORSDOF 2
ENDMDL
MODEL 5
REMARK VINA RESULT:      -7.0      0.873      1.035
REMARK  Name = 
REMARK  2 active torsions:
REMARK  status: ('A' for Active; 'I' for Inactive)
REMARK    1  A    between atoms: N_1  and  C_2
REMARK    2  A    between atoms: C_9  and  C_10
REMARK                            x       y       z     vdW  Elec       q    Type
REMARK                         _______ _______ _______ _____ _____    ______ ____
ROOT
ATOM      1  C   UNL     1       2.668   2.611  20.923  0.00  0.00    +0.000 C 
ATOM      2  C   UNL     1       2.008   3.918  21.381  0.00  0.00    +0.000 C 
ATOM      3  C   UNL     1       1.223   4.636  20.283  0.00  0.00    +0.000 C 
ATOM      4  C   UNL     1       2.116   5.427  19.342  0.00  0.00    +0.000 A 
ATOM      5  C   UNL     1       2.013   6.826  19.406  0.00  0.00    +0.000 A 
ATOM      6  C   UNL     1       2.801   7.634  18.605  0.00  0.00    +0.000 A 
ATOM      7  C   UNL     1       3.690   7.069  17.700  0.00  0.00    +0.000 A 
ATOM      8  C   UNL     1       3.818   5.669  17.568  0.00  0.00    +0.000 A 
ATOM      9  C   UNL     1       3.036   4.821  18.435  0.00  0.00    +0.000 A 
ATOM     10  C   UNL     1       3.198   3.307  18.457  0.00  0.00    +0.000 C 
ATOM     11  C   UNL     1       3.649   2.792  19.794  0.00  0.00    +0.000 C 
ATOM     12  O   UNL     1       4.802   2.399  19.919  0.00  0.00    +0.000 OA
ENDROOT
BRANCH   8  13
ATOM     13  C   UNL     1       4.772   5.169  16.509  0.00  0.00    +0.000 A 
ATOM     14  C   UNL     1       5.308   6.015  15.515  0.00  0.00    +0.000 A 
ATOM     15  C   UNL     1       6.159   5.515  14.531  0.00  0.00    +0.000 A 
ATOM     16  C   UNL     1       6.506   4.169  14.550  0.00  0.00    +0.000 A 
ATOM     17  N   UNL     1       6.034   3.362  15.533  0.00  0.00    +0.000 NA
ATOM     18  C   UNL     1       5.198   3.822  16.503  0.00  0.00    +0.000 A 
ENDBRANCH   8  13
BRANCH   1  19
ATOM     19  N   UNL     1       3.318   1.960  22.063  0.00  0.00    +0.000 NA
ATOM     20  H   UNL     1       2.601   1.691  22.776  0.00  0.00    +0.000 HD
ATOM     21  H   UNL     1       4.000   2.618  22.508  0.00  0.00    +0.000 HD
ENDBRANCH   1  19
TORSDOF 2
ENDMDL
MODEL 6
REMARK VINA RESULT:      -6.9      2.676      4.857
REMARK  Name = 
REMARK  2 active torsions:
REMARK  status: ('A' for Active; 'I' for Inactive)
REMARK    1  A    between atoms: N_1  and  C_2
REMARK    2  A    between atoms: C_9  and  C_10
REMARK                            x       y       z     vdW  Elec       q    Type
REMARK                         _______ _______ _______ _____ _____    ______ ____
ROOT
ATOM      1  C   UNL     1       2.506   2.436  19.313  0.00  0.00    +0.000 C 
ATOM      2  C   UNL     1       3.723   2.364  18.381  0.00  0.00    +0.000 C 
ATOM      3  C   UNL     1       4.829   3.363  18.724  0.00  0.00    +0.000 C 
ATOM      4  C   UNL     1       4.534   4.764  18.216  0.00  0.00    +0.000 A 
ATOM      5  C   UNL     1       5.347   5.238  17.174  0.00  0.00    +0.000 A 
ATOM      6  C   UNL     1       5.142   6.494  16.627  0.00  0.00    +0.000 A 
ATOM      7  C   UNL     1       4.142   7.319  17.125  0.00  0.00    +0.000 A 
ATOM      8  C   UNL     1       3.311   6.910  18.191  0.00  0.00    +0.000 A 
ATOM      9  C   UNL     1       3.486   5.584  18.732  0.00  0.00    +0.000 A 
ATOM     10  C   UNL     1       2.558   5.007  19.793  0.00  0.00    +0.000 C 
ATOM     11  C   UNL     1       1.830   3.781  19.321  0.00  0.00    +0.000 C 
ATOM     12  O   UNL     1       0.636   3.865  19.062  0.00  0.00    +0.000 OA
ENDROOT
BRANCH   8  13
ATOM     13  C   UNL     1       2.299   7.915  18.689  0.00  0.00    +0.000 A 
ATOM     14  C   UNL     1       1.663   8.836  17.829  0.00  0.00    +0.000 A 
ATOM     15  C   UNL     1       0.759   9.773  18.326  0.00  0.00    +0.000 A 
ATOM     16  C   UNL     1       0.459   9.778  19.683  0.00  0.00    +0.000 A 
ATOM     17  N   UNL     1       1.029   8.862  20.506  0.00  0.00    +0.000 NA
ATOM     18  C   UNL     1       1.919   7.939  20.050  0.00  0.00    +0.000 A 
ENDBRANCH   8  13
BRANCH   1  19
ATOM     19  N   UNL     1       1.549   1.386  18.957  0.00  0.00    +0.000 NA
ATOM     20  H   UNL     1       1.455   1.327  17.917  0.00  0.00    +0.000 HD
ATOM     21  H   UNL     1       0.610   1.607  19.365  0.00  0.00    +0.000 HD
ENDBRANCH   1  19
TORSDOF 2
ENDMDL
MODEL 7
REMARK VINA RESULT:      -6.8      2.797      5.126
REMARK  Name = 
REMARK  2 active torsions:
REMARK  status: ('A' for Active; 'I' for Inactive)
REMARK    1  A    between atoms: N_1  and  C_2
REMARK    2  A    between atoms: C_9  and  C_10
REMARK                            x       y       z     vdW  Elec       q    Type
REMARK                         _______ _______ _______ _____ _____    ______ ____
ROOT
ATOM      1  C   UNL     1       2.618   2.458  19.279  0.00  0.00    +0.000 C 
ATOM      2  C   UNL     1       3.684   2.572  18.182  0.00  0.00    +0.000 C 
ATOM      3  C   UNL     1       4.771   3.607  18.475  0.00  0.00    +0.000 C 
ATOM      4  C   UNL     1       4.326   5.028  18.178  0.00  0.00    +0.000 A 
ATOM      5  C   UNL     1       4.946   5.667  17.093  0.00  0.00    +0.000 A 
ATOM      6  C   UNL     1       4.592   6.955  16.729  0.00  0.00    +0.000 A 
ATOM      7  C   UNL     1       3.634   7.649  17.455  0.00  0.00    +0.000 A 
ATOM      8  C   UNL     1       2.995   7.072  18.574  0.00  0.00    +0.000 A 
ATOM      9  C   UNL     1       3.323   5.711  18.930  0.00  0.00    +0.000 A 
ATOM     10  C   UNL     1       2.597   4.961  20.038  0.00  0.00    +0.000 C 
ATOM     11  C   UNL     1       1.876   3.743  19.537  0.00  0.00    +0.000 C 
ATOM     12  O   UNL     1       0.654   3.767  19.462  0.00  0.00    +0.000 OA
ENDROOT
BRANCH   8  13
ATOM     13  C   UNL     1       2.014   7.942  19.323  0.00  0.00    +0.000 A 
ATOM     14  C   UNL     1       1.657   7.695  20.666  0.00  0.00    +0.000 A 
ATOM     15  C   UNL     1       0.722   8.497  21.318  0.00  0.00    +0.000 A 
ATOM     16  C   UNL     1       0.157   9.573  20.642  0.00  0.00    +0.000 A 
ATOM     17  N   UNL     1       0.535   9.845  19.367  0.00  0.00    +0.000 NA
ATOM     18  C   UNL     1       1.441   9.076  18.705  0.00  0.00    +0.000 A 
ENDBRANCH   8  13
BRANCH   1  19
ATOM     19  N   UNL     1       1.678   1.385  18.945  0.00  0.00    +0.000 NA
ATOM     20  H   UNL     1       1.394   0.877  19.814  0.00  0.00    +0.000 HD
ATOM     21  H   UNL     1       2.133   0.703  18.294  0.00  0.00    +0.000 HD
ENDBRANCH   1  19
TORSDOF 2
ENDMDL
MODEL 8
REMARK VINA RESULT:      -6.7      2.457      3.443
REMARK  Name = 
REMARK  2 active torsions:
REMARK  status: ('A' for Active; 'I' for Inactive)
REMARK    1  A    between atoms: N_1  and  C_2
REMARK    2  A    between atoms: C_9  and  C_10
REMARK                            x       y       z     vdW  Elec       q    Type
REMARK                         _______ _______ _______ _____ _____    ______ ____
ROOT
ATOM      1  C   UNL     1       2.033   7.453  20.286  0.00  0.00    +0.000 C 
ATOM      2  C   UNL     1       1.119   6.268  20.622  0.00  0.00    +0.000 C 
ATOM      3  C   UNL     1       1.866   4.956  20.864  0.00  0.00    +0.000 C 
ATOM      4  C   UNL     1       2.274   4.264  19.574  0.00  0.00    +0.000 A 
ATOM      5  C   UNL     1       1.617   3.061  19.272  0.00  0.00    +0.000 A 
ATOM      6  C   UNL     1       1.902   2.368  18.108  0.00  0.00    +0.000 A 
ATOM      7  C   UNL     1       2.869   2.841  17.231  0.00  0.00    +0.000 A 
ATOM      8  C   UNL     1       3.584   4.030  17.493  0.00  0.00    +0.000 A 
ATOM      9  C   UNL     1       3.257   4.783  18.680  0.00  0.00    +0.000 A 
ATOM     10  C   UNL     1       3.882   6.139  18.983  0.00  0.00    +0.000 C 
ATOM     11  C   UNL     1       2.866   7.243  19.049  0.00  0.00    +0.000 C 
ATOM     12  O   UNL     1       2.810   8.053  18.132  0.00  0.00    +0.000 OA
ENDROOT
BRANCH   8  13
ATOM     13  C   UNL     1       4.654   4.415  16.499  0.00  0.00    +0.000 A 
ATOM     14  C   UNL     1       5.451   3.455  15.838  0.00  0.00    +0.000 A 
ATOM     15  C   UNL     1       6.454   3.845  14.952  0.00  0.00    +0.000 A 
ATOM     16  C   UNL     1       6.650   5.197  14.696  0.00  0.00    +0.000 A 
ATOM     17  N   UNL     1       5.854   6.121  15.291  0.00  0.00    +0.000 NA
ATOM     18  C   UNL     1       4.871   5.770  16.164  0.00  0.00    +0.000 A 
ENDBRANCH   8  13
BRANCH   1  19
ATOM     19  N   UNL     1       1.233   8.674  20.161  0.00  0.00    +0.000 NA
ATOM     20  H   UNL     1       1.849   9.480  19.908  0.00  0.00    +0.000 HD
ATOM     21  H   UNL     1       0.762   8.886  21.072  0.00  0.00    +0.000 HD
ENDBRANCH   1  19
TORSDOF 2
ENDMDL
MODEL 9
REMARK VINA RESULT:      -6.7      3.126      5.904
REMARK  Name = 
REMARK  2 active torsions:
REMARK  status: ('A' for Active; 'I' for Inactive)
REMARK    1  A    between atoms: N_1  and  C_2
REMARK    2  A    between atoms: C_9  and  C_10
REMARK                            x       y       z     vdW  Elec       q    Type
REMARK                         _______ _______ _______ _____ _____    ______ ____
ROOT
ATOM      1  C   UNL     1       2.342   3.158  19.366  0.00  0.00    +0.000 C 
ATOM      2  C   UNL     1       2.938   3.671  18.050  0.00  0.00    +0.000 C 
ATOM      3  C   UNL     1       3.949   4.805  18.225  0.00  0.00    +0.000 C 
ATOM      4  C   UNL     1       3.288   6.156  18.441  0.00  0.00    +0.000 A 
ATOM      5  C   UNL     1       3.421   7.093  17.405  0.00  0.00    +0.000 A 
ATOM      6  C   UNL     1       2.834   8.344  17.498  0.00  0.00    +0.000 A 
ATOM      7  C   UNL     1       2.127   8.702  18.638  0.00  0.00    +0.000 A 
ATOM      8  C   UNL     1       1.982   7.813  19.725  0.00  0.00    +0.000 A 
ATOM      9  C   UNL     1       2.549   6.490  19.615  0.00  0.00    +0.000 A 
ATOM     10  C   UNL     1       2.337   5.421  20.679  0.00  0.00    +0.000 C 
ATOM     11  C   UNL     1       1.612   4.216  20.152  0.00  0.00    +0.000 C 
ATOM     12  O   UNL     1       0.445   4.037  20.479  0.00  0.00    +0.000 OA
ENDROOT
BRANCH   8  13
ATOM     13  C   UNL     1       1.243   8.333  20.936  0.00  0.00    +0.000 A 
ATOM     14  C   UNL     1      -0.145   8.148  21.110  0.00  0.00    +0.000 A 
ATOM     15  C   UNL     1      -0.803   8.671  22.222  0.00  0.00    +0.000 A 
ATOM     16  C   UNL     1      -0.073   9.358  23.186  0.00  0.00    +0.000 A 
ATOM     17  N   UNL     1       1.270   9.495  23.048  0.00  0.00    +0.000 NA
ATOM     18  C   UNL     1       1.937   9.000  21.971  0.00  0.00    +0.000 A 
ENDBRANCH   8  13
BRANCH   1  19
ATOM     19  N   UNL     1       1.457   2.022  19.098  0.00  0.00    +0.000 NA
ATOM     20  H   UNL     1       1.813   1.479  18.278  0.00  0.00    +0.000 HD
ATOM     21  H   UNL     1       0.493   2.365  18.877  0.00  0.00    +0.000 HD
ENDBRANCH   1  19
TORSDOF 2
ENDMDL
