MODEL 1
REMARK VINA RESULT:      -7.4      0.000      0.000
REMARK  Name = 
REMARK  4 active torsions:
REMARK  status: ('A' for Active; 'I' for Inactive)
REMARK    1  A    between atoms: O_1  and  N_2
REMARK    2  A    between atoms: N_2  and  C_3
REMARK    3  A    between atoms: C_6  and  N_7
REMARK    4  A    between atoms: N_12  and  C_13
REMARK                            x       y       z     vdW  Elec       q    Type
REMARK                         _______ _______ _______ _____ _____    ______ ____
ROOT
ATOM      1  N   UNL     1       4.246   4.127  18.169  0.00  0.00    +0.000 N 
ATOM      2  C   UNL     1       4.462   4.564  19.449  0.00  0.00    +0.000 A 
ATOM      3  N   UNL     1       5.472   5.407  19.524  0.00  0.00    +0.000 NA
ATOM      4  C   UNL     1       5.910   5.544  18.222  0.00  0.00    +0.000 A 
ATOM      5  C   UNL     1       6.951   6.304  17.656  0.00  0.00    +0.000 A 
ATOM      6  N   UNL     1       7.807   7.072  18.467  0.00  0.00    +0.000 N 
ATOM      7  N   UNL     1       7.108   6.250  16.305  0.00  0.00    +0.000 NA
ATOM      8  C   UNL     1       6.280   5.461  15.587  0.00  0.00    +0.000 A 
ATOM      9  N   UNL     1       5.272   4.680  16.026  0.00  0.00    +0.000 NA
ATOM     10  C   UNL     1       5.144   4.774  17.360  0.00  0.00    +0.000 A 
ATOM     11  H   UNL     1       7.451   7.107  19.419  0.00  0.00    +0.000 HD
ENDROOT
BRANCH   1  15
ATOM     12  C   UNL     1       1.071   2.711  18.757  0.00  0.00    +0.000 C 
ATOM     13  C   UNL     1       2.086   1.698  19.173  0.00  0.00    +0.000 C 
ATOM     14  C   UNL     1       3.272   1.899  18.589  0.00  0.00    +0.000 C 
ATOM     15  C   UNL     1       3.282   3.131  17.730  0.00  0.00    +0.000 C 
ATOM     16  C   UNL     1       1.825   3.628  17.775  0.00  0.00    +0.000 C 
BRANCH  12  17
ATOM     17  N   UNL     1       0.427   3.399  19.879  0.00  0.00    +0.000 NA
ATOM     18  H   UNL     1       0.830   4.336  19.963  0.00  0.00    +0.000 HD
BRANCH  17  19
ATOM     19  O   UNL     1       0.873   2.770  21.113  0.00  0.00    +0.000 OA
ATOM     20  H   UNL     1       0.686   3.472  21.769  0.00  0.00    +0.000 HD
ENDBRANCH  17  19
ENDBRANCH  12  17
ENDBRANCH   1  15
BRANCH   6  21
ATOM     21  C   UNL     1       8.511   8.218  17.908  0.00  0.00    +0.000 C 
ATOM     22  C   UNL     1       7.828   9.548  17.756  0.00  0.00    +0.000 C 
ATOM     23  C   UNL     1       8.901   9.372  18.791  0.00  0.00    +0.000 C 
ENDBRANCH   6  21
TORSDOF 4
ENDMDL
MODEL 2
REMARK VINA RESULT:      -7.3      2.315      3.797
REMARK  Name = 
REMARK  4 active torsions:
REMARK  status: ('A' for Active; 'I' for Inactive)
REMARK    1  A    between atoms: O_1  and  N_2
REMARK    2  A    between atoms: N_2  and  C_3
REMARK    3  A    between atoms: C_6  and  N_7
REMARK    4  A    between atoms: N_12  and  C_13
REMARK                            x       y       z     vdW  Elec       q    Type
REMARK                         _______ _______ _______ _____ _____    ______ ____
ROOT
ATOM      1  N   UNL     1       4.073   4.077  18.442  0.00  0.00    +0.000 N 
ATOM      2  C   UNL     1       3.207   3.906  17.394  0.00  0.00    +0.000 A 
ATOM      3  N   UNL     1       3.801   4.048  16.227  0.00  0.00    +0.000 NA
ATOM      4  C   UNL     1       5.124   4.293  16.537  0.00  0.00    +0.000 A 
ATOM      5  C   UNL     1       6.251   4.527  15.727  0.00  0.00    +0.000 A 
ATOM      6  N   UNL     1       6.131   4.597  14.326  0.00  0.00    +0.000 N 
ATOM      7  N   UNL     1       7.449   4.702  16.348  0.00  0.00    +0.000 NA
ATOM      8  C   UNL     1       7.491   4.665  17.697  0.00  0.00    +0.000 A 
ATOM      9  N   UNL     1       6.477   4.471  18.565  0.00  0.00    +0.000 NA
ATOM     10  C   UNL     1       5.319   4.290  17.910  0.00  0.00    +0.000 A 
ATOM     11  H   UNL     1       5.202   4.298  14.038  0.00  0.00    +0.000 HD
ENDROOT
BRANCH   1  15
ATOM     12  C   UNL     1       1.552   3.510  20.841  0.00  0.00    +0.000 C 
ATOM     13  C   UNL     1       1.777   4.985  20.782  0.00  0.00    +0.000 C 
ATOM     14  C   UNL     1       2.980   5.295  20.287  0.00  0.00    +0.000 C 
ATOM     15  C   UNL     1       3.751   4.079  19.859  0.00  0.00    +0.000 C 
ATOM     16  C   UNL     1       2.855   2.902  20.286  0.00  0.00    +0.000 C 
BRANCH  12  17
ATOM     17  N   UNL     1       0.326   3.070  20.171  0.00  0.00    +0.000 NA
ATOM     18  H   UNL     1      -0.141   2.379  20.763  0.00  0.00    +0.000 HD
BRANCH  17  19
ATOM     19  O   UNL     1       0.704   2.266  19.018  0.00  0.00    +0.000 OA
ATOM     20  H   UNL     1       1.661   2.457  18.951  0.00  0.00    +0.000 HD
ENDBRANCH  17  19
ENDBRANCH  12  17
ENDBRANCH   1  15
BRANCH   6  21
ATOM     21  C   UNL     1       7.282   4.320  13.478  0.00  0.00    +0.000 C 
ATOM     22  C   UNL     1       7.112   4.002  12.020  0.00  0.00    +0.000 C 
ATOM     23  C   UNL     1       7.711   5.315  12.434  0.00  0.00    +0.000 C 
ENDBRANCH   6  21
TORSDOF 4
ENDMDL
MODEL 3
REMARK VINA RESULT:      -7.0      3.886      6.094
REMARK  Name = 
REMARK  4 active torsions:
REMARK  status: ('A' for Active; 'I' for Inactive)
REMARK    1  A    between atoms: O_1  and  N_2
REMARK    2  A    between atoms: N_2  and  C_3
REMARK    3  A    between atoms: C_6  and  N_7
REMARK    4  A    between atoms: N_12  and  C_13
REMARK                            x       y       z     vdW  Elec       q    Type
REMARK                         _______ _______ _______ _____ _____    ______ ____
ROOT
ATOM      1  N   UNL     1       4.344   5.382  17.719  0.00  0.00    +0.000 N 
ATOM      2  C   UNL     1       4.331   6.673  17.263  0.00  0.00    +0.000 A 
ATOM      3  N   UNL     1       3.533   7.445  17.973  0.00  0.00    +0.000 NA
ATOM      4  C   UNL     1       3.030   6.616  18.955  0.00  0.00    +0.000 A 
ATOM      5  C   UNL     1       2.131   6.850  20.013  0.00  0.00    +0.000 A 
ATOM      6  N   UNL     1       1.526   8.110  20.181  0.00  0.00    +0.000 N 
ATOM      7  N   UNL     1       1.857   5.812  20.849  0.00  0.00    +0.000 NA
ATOM      8  C   UNL     1       2.437   4.616  20.610  0.00  0.00    +0.000 A 
ATOM      9  N   UNL     1       3.289   4.278  19.621  0.00  0.00    +0.000 NA
ATOM     10  C   UNL     1       3.542   5.333  18.829  0.00  0.00    +0.000 A 
ATOM     11  H   UNL     1       1.959   8.792  19.561  0.00  0.00    +0.000 HD
ENDROOT
BRANCH   1  15
ATOM     12  C   UNL     1       6.969   4.375  15.589  0.00  0.00    +0.000 C 
ATOM     13  C   UNL     1       5.690   4.106  14.867  0.00  0.00    +0.000 C 
ATOM     14  C   UNL     1       4.649   3.997  15.700  0.00  0.00    +0.000 C 
ATOM     15  C   UNL     1       5.037   4.247  17.130  0.00  0.00    +0.000 C 
ATOM     16  C   UNL     1       6.565   4.423  17.076  0.00  0.00    +0.000 C 
BRANCH  12  17
ATOM     17  N   UNL     1       7.687   5.556  15.103  0.00  0.00    +0.000 NA
ATOM     18  H   UNL     1       8.676   5.318  15.000  0.00  0.00    +0.000 HD
BRANCH  17  19
ATOM     19  O   UNL     1       7.726   6.537  16.178  0.00  0.00    +0.000 OA
ATOM     20  H   UNL     1       8.495   7.082  15.917  0.00  0.00    +0.000 HD
ENDBRANCH  17  19
ENDBRANCH  12  17
ENDBRANCH   1  15
BRANCH   6  21
ATOM     21  C   UNL     1       1.039   8.519  21.490  0.00  0.00    +0.000 C 
ATOM     22  C   UNL     1       0.514   9.908  21.723  0.00  0.00    +0.000 C 
ATOM     23  C   UNL     1      -0.431   8.742  21.716  0.00  0.00    +0.000 C 
ENDBRANCH   6  21
TORSDOF 4
ENDMDL
MODEL 4
REMARK VINA RESULT:      -7.0      4.796      6.385
REMARK  Name = 
REMARK  4 active torsions:
REMARK  status: ('A' for Active; 'I' for Inactive)
REMARK    1  A    between atoms: O_1  and  N_2
REMARK    2  A    between atoms: N_2  and  C_3
REMARK    3  A    between atoms: C_6  and  N_7
REMARK    4  A    between atoms: N_12  and  C_13
REMARK                            x       y       z     vdW  Elec       q    Type
REMARK                         _______ _______ _______ _____ _____    ______ ____
ROOT
ATOM      1  N   UNL     1       3.452   6.449  18.137  0.00  0.00    +0.000 N 
ATOM      2  C   UNL     1       3.349   5.711  19.286  0.00  0.00    +0.000 A 
ATOM      3  N   UNL     1       2.618   6.313  20.202  0.00  0.00    +0.000 NA
ATOM      4  C   UNL     1       2.204   7.485  19.601  0.00  0.00    +0.000 A 
ATOM      5  C   UNL     1       1.402   8.545  20.065  0.00  0.00    +0.000 A 
ATOM      6  N   UNL     1       0.909   8.556  21.383  0.00  0.00    +0.000 N 
ATOM      7  N   UNL     1       1.141   9.563  19.199  0.00  0.00    +0.000 NA
ATOM      8  C   UNL     1       1.679   9.515  17.961  0.00  0.00    +0.000 A 
ATOM      9  N   UNL     1       2.472   8.565  17.425  0.00  0.00    +0.000 NA
ATOM     10  C   UNL     1       2.692   7.577  18.307  0.00  0.00    +0.000 A 
ATOM     11  H   UNL     1       1.079   7.656  21.828  0.00  0.00    +0.000 HD
ENDROOT
BRANCH   1  15
ATOM     12  C   UNL     1       6.296   4.752  16.924  0.00  0.00    +0.000 C 
ATOM     13  C   UNL     1       6.603   6.212  16.876  0.00  0.00    +0.000 C 
ATOM     14  C   UNL     1       5.497   6.963  16.856  0.00  0.00    +0.000 C 
ATOM     15  C   UNL     1       4.247   6.137  16.959  0.00  0.00    +0.000 C 
ATOM     16  C   UNL     1       4.756   4.685  16.930  0.00  0.00    +0.000 C 
BRANCH  12  17
ATOM     17  N   UNL     1       6.952   4.043  18.026  0.00  0.00    +0.000 NA
ATOM     18  H   UNL     1       6.900   4.625  18.866  0.00  0.00    +0.000 HD
BRANCH  17  19
ATOM     19  O   UNL     1       8.384   4.025  17.764  0.00  0.00    +0.000 OA
ATOM     20  H   UNL     1       8.450   3.319  17.090  0.00  0.00    +0.000 HD
ENDBRANCH  17  19
ENDBRANCH  12  17
ENDBRANCH   1  15
BRANCH   6  21
ATOM     21  C   UNL     1      -0.287   9.317  21.711  0.00  0.00    +0.000 C 
ATOM     22  C   UNL     1      -0.620   9.664  23.135  0.00  0.00    +0.000 C 
ATOM     23  C   UNL     1      -0.173  10.740  22.187  0.00  0.00    +0.000 C 
ENDBRANCH   6  21
TORSDOF 4
ENDMDL
MODEL 5
REMARK VINA RESULT:      -6.7      3.965      5.699
REMARK  Name = 
REMARK  4 active torsions:
REMARK  status: ('A' for Active; 'I' for Inactive)
REMARK    1  A    between atoms: O_1  and  N_2
REMARK    2  A    between atoms: N_2  and  C_3
REMARK    3  A    between atoms: C_6  and  N_7
REMARK    4  A    between atoms: N_12  and  C_13
REMARK                            x       y       z     vdW  Elec       q    Type
REMARK                         _______ _______ _______ _____ _____    ______ ____
ROOT
ATOM      1  N   UNL     1       3.810   4.500  18.966  0.00  0.00    +0.000 N 
ATOM      2  C   UNL     1       3.281   4.023  20.136  0.00  0.00    +0.000 A 
ATOM      3  N   UNL     1       2.555   4.929  20.761  0.00  0.00    +0.000 NA
ATOM      4  C   UNL     1       2.594   6.035  19.936  0.00  0.00    +0.000 A 
ATOM      5  C   UNL     1       2.014   7.313  20.052  0.00  0.00    +0.000 A 
ATOM      6  N   UNL     1       1.276   7.671  21.195  0.00  0.00    +0.000 N 
ATOM      7  N   UNL     1       2.214   8.190  19.030  0.00  0.00    +0.000 NA
ATOM      8  C   UNL     1       2.967   7.801  17.979  0.00  0.00    +0.000 A 
ATOM      9  N   UNL     1       3.582   6.617  17.778  0.00  0.00    +0.000 NA
ATOM     10  C   UNL     1       3.349   5.780  18.802  0.00  0.00    +0.000 A 
ATOM     11  H   UNL     1       1.110   6.852  21.776  0.00  0.00    +0.000 HD
ENDROOT
BRANCH   1  15
ATOM     12  C   UNL     1       6.227   4.895  16.429  0.00  0.00    +0.000 C 
ATOM     13  C   UNL     1       5.003   4.330  15.785  0.00  0.00    +0.000 C 
ATOM     14  C   UNL     1       4.208   3.710  16.663  0.00  0.00    +0.000 C 
ATOM     15  C   UNL     1       4.725   3.812  18.070  0.00  0.00    +0.000 C 
ATOM     16  C   UNL     1       6.082   4.522  17.917  0.00  0.00    +0.000 C 
BRANCH  12  17
ATOM     17  N   UNL     1       6.431   6.321  16.164  0.00  0.00    +0.000 NA
ATOM     18  H   UNL     1       6.294   6.839  17.035  0.00  0.00    +0.000 HD
BRANCH  17  19
ATOM     19  O   UNL     1       5.318   6.796  15.356  0.00  0.00    +0.000 OA
ATOM     20  H   UNL     1       5.609   7.704  15.136  0.00  0.00    +0.000 HD
ENDBRANCH  17  19
ENDBRANCH  12  17
ENDBRANCH   1  15
BRANCH   6  21
ATOM     21  C   UNL     1       0.276   8.726  21.120  0.00  0.00    +0.000 C 
ATOM     22  C   UNL     1      -0.447   9.198  22.350  0.00  0.00    +0.000 C 
ATOM     23  C   UNL     1       0.567  10.087  21.691  0.00  0.00    +0.000 C 
ENDBRANCH   6  21
TORSDOF 4
ENDMDL
MODEL 6
REMARK VINA RESULT:      -6.6      4.971      6.002
REMARK  Name = 
REMARK  4 active torsions:
REMARK  status: ('A' for Active; 'I' for Inactive)
REMARK    1  A    between atoms: O_1  and  N_2
REMARK    2  A    between atoms: N_2  and  C_3
REMARK    3  A    between atoms: C_6  and  N_7
REMARK    4  A    between atoms: N_12  and  C_13
REMARK                            x       y       z     vdW  Elec       q    Type
REMARK                         _______ _______ _______ _____ _____    ______ ____
ROOT
ATOM      1  N   UNL     1       2.803   6.442  18.716  0.00  0.00    +0.000 N 
ATOM      2  C   UNL     1       2.454   5.932  19.939  0.00  0.00    +0.000 A 
ATOM      3  N   UNL     1       1.797   6.806  20.674  0.00  0.00    +0.000 NA
ATOM      4  C   UNL     1       1.689   7.924  19.873  0.00  0.00    +0.000 A 
ATOM      5  C   UNL     1       1.095   9.182  20.091  0.00  0.00    +0.000 A 
ATOM      6  N   UNL     1       0.511   9.500  21.331  0.00  0.00    +0.000 N 
ATOM      7  N   UNL     1       1.126  10.080  19.068  0.00  0.00    +0.000 NA
ATOM      8  C   UNL     1       1.739   9.729  17.916  0.00  0.00    +0.000 A 
ATOM      9  N   UNL     1       2.354   8.568  17.610  0.00  0.00    +0.000 NA
ATOM     10  C   UNL     1       2.288   7.709  18.641  0.00  0.00    +0.000 A 
ATOM     11  H   UNL     1       0.451   8.668  21.914  0.00  0.00    +0.000 HD
ENDROOT
BRANCH   1  15
ATOM     12  C   UNL     1       4.379   3.446  17.727  0.00  0.00    +0.000 C 
ATOM     13  C   UNL     1       5.458   4.400  18.120  0.00  0.00    +0.000 C 
ATOM     14  C   UNL     1       5.055   5.673  18.064  0.00  0.00    +0.000 C 
ATOM     15  C   UNL     1       3.605   5.795  17.690  0.00  0.00    +0.000 C 
ATOM     16  C   UNL     1       3.174   4.348  17.396  0.00  0.00    +0.000 C 
BRANCH  12  17
ATOM     17  N   UNL     1       4.118   2.402  18.722  0.00  0.00    +0.000 NA
ATOM     18  H   UNL     1       3.302   2.674  19.275  0.00  0.00    +0.000 HD
BRANCH  17  19
ATOM     19  O   UNL     1       5.180   2.448  19.716  0.00  0.00    +0.000 OA
ATOM     20  H   UNL     1       5.491   1.520  19.713  0.00  0.00    +0.000 HD
ENDBRANCH  17  19
ENDBRANCH  12  17
ENDBRANCH   1  15
BRANCH   6  21
ATOM     21  C   UNL     1      -0.519  10.525  21.414  0.00  0.00    +0.000 C 
ATOM     22  C   UNL     1      -1.086  10.950  22.739  0.00  0.00    +0.000 C 
ATOM     23  C   UNL     1      -0.194  11.883  21.974  0.00  0.00    +0.000 C 
ENDBRANCH   6  21
TORSDOF 4
ENDMDL
MODEL 7
REMARK VINA RESULT:      -6.6      5.134      6.230
REMARK  Name = 
REMARK  4 active torsions:
REMARK  status: ('A' for Active; 'I' for Inactive)
REMARK    1  A    between atoms: O_1  and  N_2
REMARK    2  A    between atoms: N_2  and  C_3
REMARK    3  A    between atoms: C_6  and  N_7
REMARK    4  A    between atoms: N_12  and  C_13
REMARK                            x       y       z     vdW  Elec       q    Type
REMARK                         _______ _______ _______ _____ _____    ______ ____
ROOT
ATOM      1  N   UNL     1       2.849   6.724  18.865  0.00  0.00    +0.000 N 
ATOM      2  C   UNL     1       3.181   7.327  17.681  0.00  0.00    +0.000 A 
ATOM      3  N   UNL     1       2.626   8.516  17.554  0.00  0.00    +0.000 NA
ATOM      4  C   UNL     1       1.927   8.701  18.729  0.00  0.00    +0.000 A 
ATOM      5  C   UNL     1       1.134   9.768  19.192  0.00  0.00    +0.000 A 
ATOM      6  N   UNL     1       0.892  10.893  18.382  0.00  0.00    +0.000 N 
ATOM      7  N   UNL     1       0.597   9.661  20.439  0.00  0.00    +0.000 NA
ATOM      8  C   UNL     1       0.832   8.537  21.150  0.00  0.00    +0.000 A 
ATOM      9  N   UNL     1       1.552   7.453  20.798  0.00  0.00    +0.000 NA
ATOM     10  C   UNL     1       2.073   7.607  19.570  0.00  0.00    +0.000 A 
ATOM     11  H   UNL     1       1.486  10.865  17.556  0.00  0.00    +0.000 HD
ENDROOT
BRANCH   1  15
ATOM     12  C   UNL     1       5.086   4.033  18.427  0.00  0.00    +0.000 C 
ATOM     13  C   UNL     1       3.775   3.613  17.849  0.00  0.00    +0.000 C 
ATOM     14  C   UNL     1       2.752   4.314  18.347  0.00  0.00    +0.000 C 
ATOM     15  C   UNL     1       3.206   5.383  19.300  0.00  0.00    +0.000 C 
ATOM     16  C   UNL     1       4.724   5.159  19.415  0.00  0.00    +0.000 C 
BRANCH  12  17
ATOM     17  N   UNL     1       6.091   4.389  17.422  0.00  0.00    +0.000 NA
ATOM     18  H   UNL     1       6.111   3.658  16.706  0.00  0.00    +0.000 HD
BRANCH  17  19
ATOM     19  O   UNL     1       7.407   4.249  18.028  0.00  0.00    +0.000 OA
ATOM     20  H   UNL     1       7.767   5.154  17.925  0.00  0.00    +0.000 HD
ENDBRANCH  17  19
ENDBRANCH  12  17
ENDBRANCH   1  15
BRANCH   6  21
ATOM     21  C   UNL     1       0.544  12.171  18.987  0.00  0.00    +0.000 C 
ATOM     22  C   UNL     1       1.097  13.460  18.449  0.00  0.00    +0.000 C 
ATOM     23  C   UNL     1      -0.356  13.133  18.263  0.00  0.00    +0.000 C 
ENDBRANCH   6  21
TORSDOF 4
ENDMDL
MODEL 8
REMARK VINA RESULT:      -6.5      5.956      7.373
REMARK  Name = 
REMARK  4 active torsions:
REMARK  status: ('A' for Active; 'I' for Inactive)
REMARK    1  A    between atoms: O_1  and  N_2
REMARK    2  A    between atoms: N_2  and  C_3
REMARK    3  A    between atoms: C_6  and  N_7
REMARK    4  A    between atoms: N_12  and  C_13
REMARK                            x       y       z     vdW  Elec       q    Type
REMARK                         _______ _______ _______ _____ _____    ______ ____
ROOT
ATOM      1  N   UNL     1       1.135   9.425  19.085  0.00  0.00    +0.000 N 
ATOM      2  C   UNL     1       1.675   9.648  17.846  0.00  0.00    +0.000 A 
ATOM      3  N   UNL     1       2.502   8.689  17.483  0.00  0.00    +0.000 NA
ATOM      4  C   UNL     1       2.470   7.788  18.527  0.00  0.00    +0.000 A 
ATOM      5  C   UNL     1       3.135   6.563  18.731  0.00  0.00    +0.000 A 
ATOM      6  N   UNL     1       4.067   6.082  17.793  0.00  0.00    +0.000 N 
ATOM      7  N   UNL     1       2.857   5.879  19.875  0.00  0.00    +0.000 NA
ATOM      8  C   UNL     1       1.985   6.414  20.756  0.00  0.00    +0.000 A 
ATOM      9  N   UNL     1       1.313   7.581  20.671  0.00  0.00    +0.000 NA
ATOM     10  C   UNL     1       1.607   8.216  19.524  0.00  0.00    +0.000 A 
ATOM     11  H   UNL     1       4.034   6.644  16.946  0.00  0.00    +0.000 HD
ENDROOT
BRANCH   1  15
ATOM     12  C   UNL     1      -0.951  12.264  18.918  0.00  0.00    +0.000 C 
ATOM     13  C   UNL     1       0.274  12.664  19.672  0.00  0.00    +0.000 C 
ATOM     14  C   UNL     1       0.909  11.614  20.203  0.00  0.00    +0.000 C 
ATOM     15  C   UNL     1       0.258  10.310  19.836  0.00  0.00    +0.000 C 
ATOM     16  C   UNL     1      -1.001  10.730  19.057  0.00  0.00    +0.000 C 
BRANCH  12  17
ATOM     17  N   UNL     1      -0.990  12.764  17.542  0.00  0.00    +0.000 NA
ATOM     18  H   UNL     1      -1.503  13.649  17.529  0.00  0.00    +0.000 HD
BRANCH  17  19
ATOM     19  O   UNL     1      -1.868  11.898  16.769  0.00  0.00    +0.000 OA
ATOM     20  H   UNL     1      -2.510  12.543  16.408  0.00  0.00    +0.000 HD
ENDBRANCH  17  19
ENDBRANCH  12  17
ENDBRANCH   1  15
BRANCH   6  21
ATOM     21  C   UNL     1       4.355   4.657  17.713  0.00  0.00    +0.000 C 
ATOM     22  C   UNL     1       3.375   3.701  17.094  0.00  0.00    +0.000 C 
ATOM     23  C   UNL     1       4.660   4.019  16.385  0.00  0.00    +0.000 C 
ENDBRANCH   6  21
TORSDOF 4
ENDMDL
MODEL 9
REMARK VINA RESULT:      -6.5      5.275      6.168
REMARK  Name = 
REMARK  4 active torsions:
REMARK  status: ('A' for Active; 'I' for Inactive)
REMARK    1  A    between atoms: O_1  and  N_2
REMARK    2  A    between atoms: N_2  and  C_3
REMARK    3  A    between atoms: C_6  and  N_7
REMARK    4  A    between atoms: N_12  and  C_13
REMARK                            x       y       z     vdW  Elec       q    Type
REMARK                         _______ _______ _______ _____ _____    ______ ____
ROOT
ATOM      1  N   UNL     1       2.353   6.899  19.465  0.00  0.00    +0.000 N 
ATOM      2  C   UNL     1       2.559   7.305  18.173  0.00  0.00    +0.000 A 
ATOM      3  N   UNL     1       2.070   8.507  17.944  0.00  0.00    +0.000 NA
ATOM      4  C   UNL     1       1.549   8.908  19.158  0.00  0.00    +0.000 A 
ATOM      5  C   UNL     1       0.897  10.091  19.554  0.00  0.00    +0.000 A 
ATOM      6  N   UNL     1       0.620  11.110  18.624  0.00  0.00    +0.000 N 
ATOM      7  N   UNL     1       0.527  10.199  20.860  0.00  0.00    +0.000 NA
ATOM      8  C   UNL     1       0.783   9.168  21.694  0.00  0.00    +0.000 A 
ATOM      9  N   UNL     1       1.379   7.990  21.417  0.00  0.00    +0.000 NA
ATOM     10  C   UNL     1       1.737   7.931  20.124  0.00  0.00    +0.000 A 
ATOM     11  H   UNL     1       1.094  10.920  17.744  0.00  0.00    +0.000 HD
ENDROOT
BRANCH   1  15
ATOM     12  C   UNL     1       2.387   3.413  18.935  0.00  0.00    +0.000 C 
ATOM     13  C   UNL     1       1.297   3.697  19.916  0.00  0.00    +0.000 C 
ATOM     14  C   UNL     1       1.472   4.863  20.546  0.00  0.00    +0.000 C 
ATOM     15  C   UNL     1       2.678   5.605  20.044  0.00  0.00    +0.000 C 
ATOM     16  C   UNL     1       3.324   4.631  19.042  0.00  0.00    +0.000 C 
BRANCH  12  17
ATOM     17  N   UNL     1       1.905   3.117  17.584  0.00  0.00    +0.000 NA
ATOM     18  H   UNL     1       2.685   3.216  16.929  0.00  0.00    +0.000 HD
BRANCH  17  19
ATOM     19  O   UNL     1       1.028   4.201  17.168  0.00  0.00    +0.000 OA
ATOM     20  H   UNL     1       0.794   4.604  18.028  0.00  0.00    +0.000 HD
ENDBRANCH  17  19
ENDBRANCH  12  17
ENDBRANCH   1  15
BRANCH   6  21
ATOM     21  C   UNL     1       0.440  12.483  19.075  0.00  0.00    +0.000 C 
ATOM     22  C   UNL     1       1.195  13.614  18.436  0.00  0.00    +0.000 C 
ATOM     23  C   UNL     1      -0.282  13.477  18.207  0.00  0.00    +0.000 C 
ENDBRANCH   6  21
TORSDOF 4
ENDMDL
