MODEL 1
REMARK VINA RESULT:      -8.7      0.000      0.000
REMARK  Name = 
REMARK  6 active torsions:
REMARK  status: ('A' for Active; 'I' for Inactive)
REMARK    1  A    between atoms: C_2  and  O_3
REMARK    2  A    between atoms: C_2  and  C_4
REMARK    3  A    between atoms: C_7  and  N_8
REMARK    4  A    between atoms: C_9  and  C_10
REMARK    5  A    between atoms: C_11  and  C_12
REMARK    6  A    between atoms: C_16  and  N_17
REMARK                            x       y       z     vdW  Elec       q    Type
REMARK                         _______ _______ _______ _____ _____    ______ ____
ROOT
ATOM      1  N   UNL     1       4.458   3.940  17.843  0.00  0.00    +0.000 N 
ATOM      2  C   UNL     1       4.549   4.784  18.931  0.00  0.00    +0.000 A 
ATOM      3  N   UNL     1       4.612   4.300  20.135  0.00  0.00    +0.000 NA
ATOM      4  C   UNL     1       3.538   3.419  20.371  0.00  0.00    +0.000 A 
ATOM      5  C   UNL     1       3.015   3.380  21.664  0.00  0.00    +0.000 A 
ATOM      6  C   UNL     1       1.683   3.012  21.842  0.00  0.00    +0.000 A 
ATOM      7  C   UNL     1       0.890   2.713  20.730  0.00  0.00    +0.000 A 
ATOM      8  C   UNL     1       1.449   2.646  19.446  0.00  0.00    +0.000 A 
ATOM      9 CL   UNL     1       0.378   2.453  18.108  0.00  0.00    +0.000 Cl
ATOM     10  C   UNL     1       2.802   2.923  19.281  0.00  0.00    +0.000 A 
ATOM     11  C   UNL     1       3.522   2.915  17.975  0.00  0.00    +0.000 A 
ATOM     12  O   UNL     1       3.278   2.035  17.160  0.00  0.00    +0.000 OA
ENDROOT
BRANCH   1  16
ATOM     13  C   UNL     1       6.934   4.722  14.468  0.00  0.00    +0.000 A 
ATOM     14  C   UNL     1       7.483   4.725  15.755  0.00  0.00    +0.000 A 
ATOM     15  C   UNL     1       6.679   4.444  16.868  0.00  0.00    +0.000 A 
ATOM     16  C   UNL     1       5.326   4.120  16.716  0.00  0.00    +0.000 A 
ATOM     17  C   UNL     1       4.819   3.998  15.408  0.00  0.00    +0.000 A 
ATOM     18  C   UNL     1       5.605   4.316  14.297  0.00  0.00    +0.000 A 
BRANCH  13  20
ATOM     19  O   UNL     1       8.639   5.931  13.330  0.00  0.00    +0.000 OA
ATOM     20  C   UNL     1       7.706   5.150  13.273  0.00  0.00    +0.000 C 
BRANCH  20  21
ATOM     21  O   UNL     1       7.323   4.543  12.129  0.00  0.00    +0.000 OA
ATOM     22  H   UNL     1       7.820   3.740  11.892  0.00  0.00    +0.000 HD
ENDBRANCH  20  21
ENDBRANCH  13  20
ENDBRANCH   1  16
BRANCH   2  23
ATOM     23  C   UNL     1       3.820   6.062  18.619  0.00  0.00    +0.000 C 
ATOM     24  C   UNL     1       2.958   6.591  19.500  0.00  0.00    +0.000 C 
BRANCH  24  25
ATOM     25  C   UNL     1       2.091   7.747  19.232  0.00  0.00    +0.000 A 
ATOM     26  C   UNL     1       1.952   8.315  17.957  0.00  0.00    +0.000 A 
ATOM     27  C   UNL     1       1.320   9.542  17.780  0.00  0.00    +0.000 A 
ATOM     28  C   UNL     1       0.789  10.217  18.879  0.00  0.00    +0.000 A 
ATOM     29  C   UNL     1       0.854   9.626  20.149  0.00  0.00    +0.000 A 
ATOM     30  C   UNL     1       1.479   8.375  20.320  0.00  0.00    +0.000 A 
BRANCH  29  31
ATOM     31  N   UNL     1       0.319  10.339  21.321  0.00  0.00    +0.000 N 
ATOM     32  O   UNL     1       0.742   9.991  22.431  0.00  0.00    +0.000 OA
ATOM     33  O   UNL     1      -0.497  11.246  21.107  0.00  0.00    +0.000 OA
ENDBRANCH  29  31
ENDBRANCH  24  25
ENDBRANCH   2  23
TORSDOF 6
ENDMDL
MODEL 2
REMARK VINA RESULT:      -8.5      0.533      1.269
REMARK  Name = 
REMARK  6 active torsions:
REMARK  status: ('A' for Active; 'I' for Inactive)
REMARK    1  A    between atoms: C_2  and  O_3
REMARK    2  A    between atoms: C_2  and  C_4
REMARK    3  A    between atoms: C_7  and  N_8
REMARK    4  A    between atoms: C_9  and  C_10
REMARK    5  A    between atoms: C_11  and  C_12
REMARK    6  A    between atoms: C_16  and  N_17
REMARK                            x       y       z     vdW  Elec       q    Type
REMARK                         _______ _______ _______ _____ _____    ______ ____
ROOT
ATOM      1  N   UNL     1       4.478   3.978  17.704  0.00  0.00    +0.000 N 
ATOM      2  C   UNL     1       4.807   4.519  18.930  0.00  0.00    +0.000 A 
ATOM      3  N   UNL     1       4.950   3.753  19.969  0.00  0.00    +0.000 NA
ATOM      4  C   UNL     1       3.808   2.949  20.154  0.00  0.00    +0.000 A 
ATOM      5  C   UNL     1       3.443   2.647  21.466  0.00  0.00    +0.000 A 
ATOM      6  C   UNL     1       2.106   2.378  21.749  0.00  0.00    +0.000 A 
ATOM      7  C   UNL     1       1.153   2.437  20.727  0.00  0.00    +0.000 A 
ATOM      8  C   UNL     1       1.542   2.630  19.394  0.00  0.00    +0.000 A 
ATOM      9 CL   UNL     1       0.303   2.873  18.220  0.00  0.00    +0.000 Cl
ATOM     10  C   UNL     1       2.890   2.806  19.099  0.00  0.00    +0.000 A 
ATOM     11  C   UNL     1       3.441   3.047  17.735  0.00  0.00    +0.000 A 
ATOM     12  O   UNL     1       2.989   2.419  16.786  0.00  0.00    +0.000 OA
ENDROOT
BRANCH   1  16
ATOM     13  C   UNL     1       6.790   4.809  14.226  0.00  0.00    +0.000 A 
ATOM     14  C   UNL     1       5.410   4.608  14.117  0.00  0.00    +0.000 A 
ATOM     15  C   UNL     1       4.640   4.358  15.261  0.00  0.00    +0.000 A 
ATOM     16  C   UNL     1       5.222   4.341  16.533  0.00  0.00    +0.000 A 
ATOM     17  C   UNL     1       6.588   4.671  16.638  0.00  0.00    +0.000 A 
ATOM     18  C   UNL     1       7.369   4.881  15.499  0.00  0.00    +0.000 A 
BRANCH  13  20
ATOM     19  O   UNL     1       7.451   4.368  11.983  0.00  0.00    +0.000 OA
ATOM     20  C   UNL     1       7.671   4.937  13.037  0.00  0.00    +0.000 C 
BRANCH  20  21
ATOM     21  O   UNL     1       8.702   5.793  13.209  0.00  0.00    +0.000 OA
ATOM     22  H   UNL     1       9.333   5.845  12.468  0.00  0.00    +0.000 HD
ENDBRANCH  20  21
ENDBRANCH  13  20
ENDBRANCH   1  16
BRANCH   2  23
ATOM     23  C   UNL     1       4.217   5.898  19.028  0.00  0.00    +0.000 C 
ATOM     24  C   UNL     1       2.897   6.069  19.187  0.00  0.00    +0.000 C 
BRANCH  24  25
ATOM     25  C   UNL     1       2.209   7.367  19.145  0.00  0.00    +0.000 A 
ATOM     26  C   UNL     1       2.194   8.184  18.004  0.00  0.00    +0.000 A 
ATOM     27  C   UNL     1       1.746   9.500  18.067  0.00  0.00    +0.000 A 
ATOM     28  C   UNL     1       1.277  10.020  19.274  0.00  0.00    +0.000 A 
ATOM     29  C   UNL     1       1.216   9.192  20.404  0.00  0.00    +0.000 A 
ATOM     30  C   UNL     1       1.654   7.855  20.331  0.00  0.00    +0.000 A 
BRANCH  29  31
ATOM     31  N   UNL     1       0.747   9.735  21.690  0.00  0.00    +0.000 N 
ATOM     32  O   UNL     1      -0.334  10.337  21.685  0.00  0.00    +0.000 OA
ATOM     33  O   UNL     1       1.459   9.531  22.683  0.00  0.00    +0.000 OA
ENDBRANCH  29  31
ENDBRANCH  24  25
ENDBRANCH   2  23
TORSDOF 6
ENDMDL
MODEL 3
REMARK VINA RESULT:      -7.8      4.105      7.449
REMARK  Name = 
REMARK  6 active torsions:
REMARK  status: ('A' for Active; 'I' for Inactive)
REMARK    1  A    between atoms: C_2  and  O_3
REMARK    2  A    between atoms: C_2  and  C_4
REMARK    3  A    between atoms: C_7  and  N_8
REMARK    4  A    between atoms: C_9  and  C_10
REMARK    5  A    between atoms: C_11  and  C_12
REMARK    6  A    between atoms: C_16  and  N_17
REMARK                            x       y       z     vdW  Elec       q    Type
REMARK                         _______ _______ _______ _____ _____    ______ ____
ROOT
ATOM      1  N   UNL     1       1.365   9.220  20.000  0.00  0.00    +0.000 N 
ATOM      2  C   UNL     1       1.243  10.211  19.047  0.00  0.00    +0.000 A 
ATOM      3  N   UNL     1       1.738  11.393  19.262  0.00  0.00    +0.000 NA
ATOM      4  C   UNL     1       1.263  11.916  20.481  0.00  0.00    +0.000 A 
ATOM      5  C   UNL     1       1.060  13.294  20.549  0.00  0.00    +0.000 A 
ATOM      6  C   UNL     1       0.110  13.792  21.440  0.00  0.00    +0.000 A 
ATOM      7  C   UNL     1      -0.634  12.909  22.228  0.00  0.00    +0.000 A 
ATOM      8  C   UNL     1      -0.348  11.537  22.235  0.00  0.00    +0.000 A 
ATOM      9 CL   UNL     1      -1.423  10.492  23.087  0.00  0.00    +0.000 Cl
ATOM     10  C   UNL     1       0.664  11.052  21.413  0.00  0.00    +0.000 A 
ATOM     11  C   UNL     1       1.058   9.618  21.300  0.00  0.00    +0.000 A 
ATOM     12  O   UNL     1       1.113   8.929  22.311  0.00  0.00    +0.000 OA
ENDROOT
BRANCH   1  16
ATOM     13  C   UNL     1       2.500   5.293  18.809  0.00  0.00    +0.000 A 
ATOM     14  C   UNL     1       2.888   6.396  18.041  0.00  0.00    +0.000 A 
ATOM     15  C   UNL     1       2.538   7.693  18.441  0.00  0.00    +0.000 A 
ATOM     16  C   UNL     1       1.831   7.916  19.627  0.00  0.00    +0.000 A 
ATOM     17  C   UNL     1       1.559   6.807  20.452  0.00  0.00    +0.000 A 
ATOM     18  C   UNL     1       1.869   5.508  20.040  0.00  0.00    +0.000 A 
BRANCH  13  20
ATOM     19  O   UNL     1       3.591   3.177  18.823  0.00  0.00    +0.000 OA
ATOM     20  C   UNL     1       2.722   3.894  18.359  0.00  0.00    +0.000 C 
BRANCH  20  21
ATOM     21  O   UNL     1       1.832   3.469  17.437  0.00  0.00    +0.000 OA
ATOM     22  H   UNL     1       2.067   2.644  16.975  0.00  0.00    +0.000 HD
ENDBRANCH  20  21
ENDBRANCH  13  20
ENDBRANCH   1  16
BRANCH   2  23
ATOM     23  C   UNL     1      -0.042  10.007  18.293  0.00  0.00    +0.000 C 
ATOM     24  C   UNL     1      -0.899  11.022  18.112  0.00  0.00    +0.000 C 
BRANCH  24  25
ATOM     25  C   UNL     1      -2.238  10.893  17.522  0.00  0.00    +0.000 A 
ATOM     26  C   UNL     1      -2.451  10.471  16.201  0.00  0.00    +0.000 A 
ATOM     27  C   UNL     1      -3.702  10.587  15.601  0.00  0.00    +0.000 A 
ATOM     28  C   UNL     1      -4.776  11.107  16.323  0.00  0.00    +0.000 A 
ATOM     29  C   UNL     1      -4.596  11.461  17.668  0.00  0.00    +0.000 A 
ATOM     30  C   UNL     1      -3.333  11.325  18.276  0.00  0.00    +0.000 A 
BRANCH  29  31
ATOM     31  N   UNL     1      -5.715  12.034  18.434  0.00  0.00    +0.000 N 
ATOM     32  O   UNL     1      -6.843  11.578  18.207  0.00  0.00    +0.000 OA
ATOM     33  O   UNL     1      -5.442  12.914  19.261  0.00  0.00    +0.000 OA
ENDBRANCH  29  31
ENDBRANCH  24  25
ENDBRANCH   2  23
TORSDOF 6
ENDMDL
MODEL 4
REMARK VINA RESULT:      -7.8      3.933      7.489
REMARK  Name = 
REMARK  6 active torsions:
REMARK  status: ('A' for Active; 'I' for Inactive)
REMARK    1  A    between atoms: C_2  and  O_3
REMARK    2  A    between atoms: C_2  and  C_4
REMARK    3  A    between atoms: C_7  and  N_8
REMARK    4  A    between atoms: C_9  and  C_10
REMARK    5  A    between atoms: C_11  and  C_12
REMARK    6  A    between atoms: C_16  and  N_17
REMARK                            x       y       z     vdW  Elec       q    Type
REMARK                         _______ _______ _______ _____ _____    ______ ____
ROOT
ATOM      1  N   UNL     1       1.307   9.359  20.042  0.00  0.00    +0.000 N 
ATOM      2  C   UNL     1       1.127  10.353  19.102  0.00  0.00    +0.000 A 
ATOM      3  N   UNL     1       1.606  11.543  19.305  0.00  0.00    +0.000 NA
ATOM      4  C   UNL     1       1.169  12.049  20.545  0.00  0.00    +0.000 A 
ATOM      5  C   UNL     1       0.940  13.422  20.631  0.00  0.00    +0.000 A 
ATOM      6  C   UNL     1       0.016  13.895  21.561  0.00  0.00    +0.000 A 
ATOM      7  C   UNL     1      -0.679  12.992  22.371  0.00  0.00    +0.000 A 
ATOM      8  C   UNL     1      -0.364  11.626  22.358  0.00  0.00    +0.000 A 
ATOM      9 CL   UNL     1      -1.384  10.554  23.244  0.00  0.00    +0.000 Cl
ATOM     10  C   UNL     1       0.625  11.167  21.495  0.00  0.00    +0.000 A 
ATOM     11  C   UNL     1       1.043   9.742  21.356  0.00  0.00    +0.000 A 
ATOM     12  O   UNL     1       1.152   9.048  22.359  0.00  0.00    +0.000 OA
ENDROOT
BRANCH   1  16
ATOM     13  C   UNL     1       2.973   5.599  18.937  0.00  0.00    +0.000 A 
ATOM     14  C   UNL     1       2.181   5.703  20.085  0.00  0.00    +0.000 A 
ATOM     15  C   UNL     1       1.609   6.932  20.441  0.00  0.00    +0.000 A 
ATOM     16  C   UNL     1       1.785   8.067  19.643  0.00  0.00    +0.000 A 
ATOM     17  C   UNL     1       2.479   7.917  18.425  0.00  0.00    +0.000 A 
ATOM     18  C   UNL     1       3.085   6.705  18.085  0.00  0.00    +0.000 A 
BRANCH  13  20
ATOM     19  O   UNL     1       3.398   3.631  17.668  0.00  0.00    +0.000 OA
ATOM     20  C   UNL     1       3.715   4.359  18.592  0.00  0.00    +0.000 C 
BRANCH  20  21
ATOM     21  O   UNL     1       4.809   4.147  19.354  0.00  0.00    +0.000 OA
ATOM     22  H   UNL     1       5.434   3.481  19.015  0.00  0.00    +0.000 HD
ENDBRANCH  20  21
ENDBRANCH  13  20
ENDBRANCH   1  16
BRANCH   2  23
ATOM     23  C   UNL     1      -0.181  10.127  18.396  0.00  0.00    +0.000 C 
ATOM     24  C   UNL     1      -0.984  11.158  18.095  0.00  0.00    +0.000 C 
BRANCH  24  25
ATOM     25  C   UNL     1      -2.340  11.030  17.544  0.00  0.00    +0.000 A 
ATOM     26  C   UNL     1      -2.589  10.699  16.204  0.00  0.00    +0.000 A 
ATOM     27  C   UNL     1      -3.863  10.820  15.657  0.00  0.00    +0.000 A 
ATOM     28  C   UNL     1      -4.924  11.252  16.452  0.00  0.00    +0.000 A 
ATOM     29  C   UNL     1      -4.706  11.513  17.813  0.00  0.00    +0.000 A 
ATOM     30  C   UNL     1      -3.418  11.372  18.366  0.00  0.00    +0.000 A 
BRANCH  29  31
ATOM     31  N   UNL     1      -5.812  11.994  18.657  0.00  0.00    +0.000 N 
ATOM     32  O   UNL     1      -6.926  12.087  18.125  0.00  0.00    +0.000 OA
ATOM     33  O   UNL     1      -5.550  12.249  19.840  0.00  0.00    +0.000 OA
ENDBRANCH  29  31
ENDBRANCH  24  25
ENDBRANCH   2  23
TORSDOF 6
ENDMDL
MODEL 5
REMARK VINA RESULT:      -7.7      4.237      7.818
REMARK  Name = 
REMARK  6 active torsions:
REMARK  status: ('A' for Active; 'I' for Inactive)
REMARK    1  A    between atoms: C_2  and  O_3
REMARK    2  A    between atoms: C_2  and  C_4
REMARK    3  A    between atoms: C_7  and  N_8
REMARK    4  A    between atoms: C_9  and  C_10
REMARK    5  A    between atoms: C_11  and  C_12
REMARK    6  A    between atoms: C_16  and  N_17
REMARK                            x       y       z     vdW  Elec       q    Type
REMARK                         _______ _______ _______ _____ _____    ______ ____
ROOT
ATOM      1  N   UNL     1       1.187   9.532  20.200  0.00  0.00    +0.000 N 
ATOM      2  C   UNL     1       1.100  10.554  19.278  0.00  0.00    +0.000 A 
ATOM      3  N   UNL     1       1.602  11.723  19.542  0.00  0.00    +0.000 NA
ATOM      4  C   UNL     1       1.102  12.212  20.765  0.00  0.00    +0.000 A 
ATOM      5  C   UNL     1       0.912  13.590  20.873  0.00  0.00    +0.000 A 
ATOM      6  C   UNL     1      -0.054  14.070  21.755  0.00  0.00    +0.000 A 
ATOM      7  C   UNL     1      -0.827  13.171  22.496  0.00  0.00    +0.000 A 
ATOM      8  C   UNL     1      -0.556  11.796  22.466  0.00  0.00    +0.000 A 
ATOM      9 CL   UNL     1      -1.663  10.738  23.258  0.00  0.00    +0.000 Cl
ATOM     10  C   UNL     1       0.471  11.325  21.655  0.00  0.00    +0.000 A 
ATOM     11  C   UNL     1       0.852   9.892  21.505  0.00  0.00    +0.000 A 
ATOM     12  O   UNL     1       0.875   9.170  22.494  0.00  0.00    +0.000 OA
ENDROOT
BRANCH   1  16
ATOM     13  C   UNL     1       2.806   5.759  19.074  0.00  0.00    +0.000 A 
ATOM     14  C   UNL     1       2.060   5.876  20.252  0.00  0.00    +0.000 A 
ATOM     15  C   UNL     1       1.504   7.110  20.616  0.00  0.00    +0.000 A 
ATOM     16  C   UNL     1       1.648   8.236  19.798  0.00  0.00    +0.000 A 
ATOM     17  C   UNL     1       2.293   8.071  18.556  0.00  0.00    +0.000 A 
ATOM     18  C   UNL     1       2.885   6.854  18.206  0.00  0.00    +0.000 A 
BRANCH  13  20
ATOM     19  O   UNL     1       3.112   3.709  17.903  0.00  0.00    +0.000 OA
ATOM     20  C   UNL     1       3.533   4.513  18.715  0.00  0.00    +0.000 C 
BRANCH  20  21
ATOM     21  O   UNL     1       4.734   4.387  19.321  0.00  0.00    +0.000 OA
ATOM     22  H   UNL     1       5.097   5.204  19.709  0.00  0.00    +0.000 HD
ENDBRANCH  20  21
ENDBRANCH  13  20
ENDBRANCH   1  16
BRANCH   2  23
ATOM     23  C   UNL     1      -0.168  10.389  18.485  0.00  0.00    +0.000 C 
ATOM     24  C   UNL     1      -0.905  11.456  18.143  0.00  0.00    +0.000 C 
BRANCH  24  25
ATOM     25  C   UNL     1      -2.226  11.390  17.503  0.00  0.00    +0.000 A 
ATOM     26  C   UNL     1      -3.422  11.622  18.199  0.00  0.00    +0.000 A 
ATOM     27  C   UNL     1      -4.656  11.320  17.631  0.00  0.00    +0.000 A 
ATOM     28  C   UNL     1      -4.720  10.800  16.339  0.00  0.00    +0.000 A 
ATOM     29  C   UNL     1      -3.538  10.633  15.603  0.00  0.00    +0.000 A 
ATOM     30  C   UNL     1      -2.292  10.957  16.175  0.00  0.00    +0.000 A 
BRANCH  29  31
ATOM     31  N   UNL     1      -3.590  10.061  14.247  0.00  0.00    +0.000 N 
ATOM     32  O   UNL     1      -2.513   9.928  13.653  0.00  0.00    +0.000 OA
ATOM     33  O   UNL     1      -4.703   9.738  13.812  0.00  0.00    +0.000 OA
ENDBRANCH  29  31
ENDBRANCH  24  25
ENDBRANCH   2  23
TORSDOF 6
ENDMDL
MODEL 6
REMARK VINA RESULT:      -7.6      4.329      8.011
REMARK  Name = 
REMARK  6 active torsions:
REMARK  status: ('A' for Active; 'I' for Inactive)
REMARK    1  A    between atoms: C_2  and  O_3
REMARK    2  A    between atoms: C_2  and  C_4
REMARK    3  A    between atoms: C_7  and  N_8
REMARK    4  A    between atoms: C_9  and  C_10
REMARK    5  A    between atoms: C_11  and  C_12
REMARK    6  A    between atoms: C_16  and  N_17
REMARK                            x       y       z     vdW  Elec       q    Type
REMARK                         _______ _______ _______ _____ _____    ______ ____
ROOT
ATOM      1  N   UNL     1       1.164   9.726  20.261  0.00  0.00    +0.000 N 
ATOM      2  C   UNL     1       1.112  10.727  19.313  0.00  0.00    +0.000 A 
ATOM      3  N   UNL     1       1.611  11.899  19.567  0.00  0.00    +0.000 NA
ATOM      4  C   UNL     1       1.075  12.419  20.762  0.00  0.00    +0.000 A 
ATOM      5  C   UNL     1       0.889  13.799  20.833  0.00  0.00    +0.000 A 
ATOM      6  C   UNL     1      -0.103  14.304  21.672  0.00  0.00    +0.000 A 
ATOM      7  C   UNL     1      -0.904  13.425  22.407  0.00  0.00    +0.000 A 
ATOM      8  C   UNL     1      -0.639  12.049  22.417  0.00  0.00    +0.000 A 
ATOM      9 CL   UNL     1      -1.777  11.013  23.196  0.00  0.00    +0.000 Cl
ATOM     10  C   UNL     1       0.411  11.555  21.650  0.00  0.00    +0.000 A 
ATOM     11  C   UNL     1       0.789  10.117  21.546  0.00  0.00    +0.000 A 
ATOM     12  O   UNL     1       0.776   9.418  22.551  0.00  0.00    +0.000 OA
ENDROOT
BRANCH   1  16
ATOM     13  C   UNL     1       2.297   5.777  19.144  0.00  0.00    +0.000 A 
ATOM     14  C   UNL     1       2.562   6.849  18.286  0.00  0.00    +0.000 A 
ATOM     15  C   UNL     1       2.214   8.155  18.658  0.00  0.00    +0.000 A 
ATOM     16  C   UNL     1       1.631   8.419  19.903  0.00  0.00    +0.000 A 
ATOM     17  C   UNL     1       1.487   7.346  20.805  0.00  0.00    +0.000 A 
ATOM     18  C   UNL     1       1.795   6.037  20.424  0.00  0.00    +0.000 A 
BRANCH  13  20
ATOM     19  O   UNL     1       3.068   3.546  19.456  0.00  0.00    +0.000 OA
ATOM     20  C   UNL     1       2.516   4.364  18.740  0.00  0.00    +0.000 C 
BRANCH  20  21
ATOM     21  O   UNL     1       1.991   4.051  17.536  0.00  0.00    +0.000 OA
ATOM     22  H   UNL     1       2.610   3.652  16.898  0.00  0.00    +0.000 HD
ENDBRANCH  20  21
ENDBRANCH  13  20
ENDBRANCH   1  16
BRANCH   2  23
ATOM     23  C   UNL     1      -0.130  10.550  18.484  0.00  0.00    +0.000 C 
ATOM     24  C   UNL     1      -0.970  11.575  18.281  0.00  0.00    +0.000 C 
BRANCH  24  25
ATOM     25  C   UNL     1      -2.276  11.469  17.615  0.00  0.00    +0.000 A 
ATOM     26  C   UNL     1      -3.492  11.661  18.289  0.00  0.00    +0.000 A 
ATOM     27  C   UNL     1      -4.704  11.321  17.697  0.00  0.00    +0.000 A 
ATOM     28  C   UNL     1      -4.727  10.802  16.402  0.00  0.00    +0.000 A 
ATOM     29  C   UNL     1      -3.527  10.676  15.689  0.00  0.00    +0.000 A 
ATOM     30  C   UNL     1      -2.303  11.038  16.286  0.00  0.00    +0.000 A 
BRANCH  29  31
ATOM     31  N   UNL     1      -3.534  10.107  14.331  0.00  0.00    +0.000 N 
ATOM     32  O   UNL     1      -2.434   9.878  13.812  0.00  0.00    +0.000 OA
ATOM     33  O   UNL     1      -4.638   9.882  13.818  0.00  0.00    +0.000 OA
ENDBRANCH  29  31
ENDBRANCH  24  25
ENDBRANCH   2  23
TORSDOF 6
ENDMDL
MODEL 7
REMARK VINA RESULT:      -7.5      5.320      9.627
REMARK  Name = 
REMARK  6 active torsions:
REMARK  status: ('A' for Active; 'I' for Inactive)
REMARK    1  A    between atoms: C_2  and  O_3
REMARK    2  A    between atoms: C_2  and  C_4
REMARK    3  A    between atoms: C_7  and  N_8
REMARK    4  A    between atoms: C_9  and  C_10
REMARK    5  A    between atoms: C_11  and  C_12
REMARK    6  A    between atoms: C_16  and  N_17
REMARK                            x       y       z     vdW  Elec       q    Type
REMARK                         _______ _______ _______ _____ _____    ______ ____
ROOT
ATOM      1  N   UNL     1       0.351  11.873  19.666  0.00  0.00    +0.000 N 
ATOM      2  C   UNL     1      -0.553  12.330  18.729  0.00  0.00    +0.000 A 
ATOM      3  N   UNL     1      -0.316  13.422  18.065  0.00  0.00    +0.000 NA
ATOM      4  C   UNL     1      -0.044  14.488  18.945  0.00  0.00    +0.000 A 
ATOM      5  C   UNL     1      -0.469  15.759  18.561  0.00  0.00    +0.000 A 
ATOM      6  C   UNL     1      -0.751  16.703  19.547  0.00  0.00    +0.000 A 
ATOM      7  C   UNL     1      -0.627  16.357  20.896  0.00  0.00    +0.000 A 
ATOM      8  C   UNL     1      -0.094  15.116  21.273  0.00  0.00    +0.000 A 
ATOM      9 CL   UNL     1      -0.143  14.691  22.944  0.00  0.00    +0.000 Cl
ATOM     10  C   UNL     1       0.275  14.209  20.286  0.00  0.00    +0.000 A 
ATOM     11  C   UNL     1       0.829  12.849  20.541  0.00  0.00    +0.000 A 
ATOM     12  O   UNL     1       1.649  12.692  21.436  0.00  0.00    +0.000 OA
ENDROOT
BRANCH   1  16
ATOM     13  C   UNL     1       1.851   7.889  19.659  0.00  0.00    +0.000 A 
ATOM     14  C   UNL     1       1.180   8.382  20.784  0.00  0.00    +0.000 A 
ATOM     15  C   UNL     1       0.662   9.684  20.783  0.00  0.00    +0.000 A 
ATOM     16  C   UNL     1       0.771  10.503  19.654  0.00  0.00    +0.000 A 
ATOM     17  C   UNL     1       1.336   9.948  18.488  0.00  0.00    +0.000 A 
ATOM     18  C   UNL     1       1.890   8.665  18.495  0.00  0.00    +0.000 A 
BRANCH  13  20
ATOM     19  O   UNL     1       3.219   6.178  18.727  0.00  0.00    +0.000 OA
ATOM     20  C   UNL     1       2.539   6.572  19.659  0.00  0.00    +0.000 C 
BRANCH  20  21
ATOM     21  O   UNL     1       2.396   5.879  20.810  0.00  0.00    +0.000 OA
ATOM     22  H   UNL     1       2.110   6.401  21.581  0.00  0.00    +0.000 HD
ENDBRANCH  20  21
ENDBRANCH  13  20
ENDBRANCH   1  16
BRANCH   2  23
ATOM     23  C   UNL     1      -1.940  11.940  19.158  0.00  0.00    +0.000 C 
ATOM     24  C   UNL     1      -2.949  11.915  18.274  0.00  0.00    +0.000 C 
BRANCH  24  25
ATOM     25  C   UNL     1      -4.359  11.693  18.620  0.00  0.00    +0.000 A 
ATOM     26  C   UNL     1      -5.334  11.361  17.666  0.00  0.00    +0.000 A 
ATOM     27  C   UNL     1      -6.689  11.393  17.981  0.00  0.00    +0.000 A 
ATOM     28  C   UNL     1      -7.097  11.735  19.270  0.00  0.00    +0.000 A 
ATOM     29  C   UNL     1      -6.133  11.995  20.254  0.00  0.00    +0.000 A 
ATOM     30  C   UNL     1      -4.761  11.943  19.935  0.00  0.00    +0.000 A 
BRANCH  29  31
ATOM     31  N   UNL     1      -6.550  12.380  21.611  0.00  0.00    +0.000 N 
ATOM     32  O   UNL     1      -5.667  12.441  22.475  0.00  0.00    +0.000 OA
ATOM     33  O   UNL     1      -7.751  12.635  21.782  0.00  0.00    +0.000 OA
ENDBRANCH  29  31
ENDBRANCH  24  25
ENDBRANCH   2  23
TORSDOF 6
ENDMDL
MODEL 8
REMARK VINA RESULT:      -7.4      4.380      8.144
REMARK  Name = 
REMARK  6 active torsions:
REMARK  status: ('A' for Active; 'I' for Inactive)
REMARK    1  A    between atoms: C_2  and  O_3
REMARK    2  A    between atoms: C_2  and  C_4
REMARK    3  A    between atoms: C_7  and  N_8
REMARK    4  A    between atoms: C_9  and  C_10
REMARK    5  A    between atoms: C_11  and  C_12
REMARK    6  A    between atoms: C_16  and  N_17
REMARK                            x       y       z     vdW  Elec       q    Type
REMARK                         _______ _______ _______ _____ _____    ______ ____
ROOT
ATOM      1  N   UNL     1       0.880  10.385  20.425  0.00  0.00    +0.000 N 
ATOM      2  C   UNL     1       1.006  11.478  19.592  0.00  0.00    +0.000 A 
ATOM      3  N   UNL     1       1.521  12.585  20.034  0.00  0.00    +0.000 NA
ATOM      4  C   UNL     1       0.852  13.014  21.197  0.00  0.00    +0.000 A 
ATOM      5  C   UNL     1       0.724  14.389  21.391  0.00  0.00    +0.000 A 
ATOM      6  C   UNL     1      -0.348  14.868  22.143  0.00  0.00    +0.000 A 
ATOM      7  C   UNL     1      -1.283  13.971  22.668  0.00  0.00    +0.000 A 
ATOM      8  C   UNL     1      -1.088  12.587  22.565  0.00  0.00    +0.000 A 
ATOM      9 CL   UNL     1      -2.370  11.551  23.072  0.00  0.00    +0.000 Cl
ATOM     10  C   UNL     1       0.033  12.109  21.893  0.00  0.00    +0.000 A 
ATOM     11  C   UNL     1       0.352  10.668  21.684  0.00  0.00    +0.000 A 
ATOM     12  O   UNL     1       0.169   9.873  22.598  0.00  0.00    +0.000 OA
ENDROOT
BRANCH   1  16
ATOM     13  C   UNL     1       2.467   6.635  19.181  0.00  0.00    +0.000 A 
ATOM     14  C   UNL     1       1.854   6.755  20.433  0.00  0.00    +0.000 A 
ATOM     15  C   UNL     1       1.308   7.980  20.838  0.00  0.00    +0.000 A 
ATOM     16  C   UNL     1       1.329   9.094  19.993  0.00  0.00    +0.000 A 
ATOM     17  C   UNL     1       1.836   8.924  18.689  0.00  0.00    +0.000 A 
ATOM     18  C   UNL     1       2.418   7.716  18.293  0.00  0.00    +0.000 A 
BRANCH  13  20
ATOM     19  O   UNL     1       4.041   4.868  19.443  0.00  0.00    +0.000 OA
ATOM     20  C   UNL     1       3.183   5.403  18.761  0.00  0.00    +0.000 C 
BRANCH  20  21
ATOM     21  O   UNL     1       2.753   4.893  17.587  0.00  0.00    +0.000 OA
ATOM     22  H   UNL     1       1.794   4.729  17.527  0.00  0.00    +0.000 HD
ENDBRANCH  20  21
ENDBRANCH  13  20
ENDBRANCH   1  16
BRANCH   2  23
ATOM     23  C   UNL     1      -0.118  11.462  18.593  0.00  0.00    +0.000 C 
ATOM     24  C   UNL     1      -1.256  10.801  18.853  0.00  0.00    +0.000 C 
BRANCH  24  25
ATOM     25  C   UNL     1      -2.347  10.601  17.889  0.00  0.00    +0.000 A 
ATOM     26  C   UNL     1      -2.152  10.018  16.628  0.00  0.00    +0.000 A 
ATOM     27  C   UNL     1      -3.144  10.061  15.654  0.00  0.00    +0.000 A 
ATOM     28  C   UNL     1      -4.368  10.669  15.932  0.00  0.00    +0.000 A 
ATOM     29  C   UNL     1      -4.605  11.189  17.212  0.00  0.00    +0.000 A 
ATOM     30  C   UNL     1      -3.604  11.128  18.201  0.00  0.00    +0.000 A 
BRANCH  29  31
ATOM     31  N   UNL     1      -5.883  11.856  17.511  0.00  0.00    +0.000 N 
ATOM     32  O   UNL     1      -6.698  11.227  18.197  0.00  0.00    +0.000 OA
ATOM     33  O   UNL     1      -6.038  13.004  17.071  0.00  0.00    +0.000 OA
ENDBRANCH  29  31
ENDBRANCH  24  25
ENDBRANCH   2  23
TORSDOF 6
ENDMDL
MODEL 9
REMARK VINA RESULT:      -7.4      8.669     10.453
REMARK  Name = 
REMARK  6 active torsions:
REMARK  status: ('A' for Active; 'I' for Inactive)
REMARK    1  A    between atoms: C_2  and  O_3
REMARK    2  A    between atoms: C_2  and  C_4
REMARK    3  A    between atoms: C_7  and  N_8
REMARK    4  A    between atoms: C_9  and  C_10
REMARK    5  A    between atoms: C_11  and  C_12
REMARK    6  A    between atoms: C_16  and  N_17
REMARK                            x       y       z     vdW  Elec       q    Type
REMARK                         _______ _______ _______ _____ _____    ______ ____
ROOT
ATOM      1  N   UNL     1      -2.688  11.825  19.037  0.00  0.00    +0.000 N 
ATOM      2  C   UNL     1      -1.399  11.889  19.526  0.00  0.00    +0.000 A 
ATOM      3  N   UNL     1      -1.138  11.506  20.739  0.00  0.00    +0.000 NA
ATOM      4  C   UNL     1      -1.974  12.168  21.660  0.00  0.00    +0.000 A 
ATOM      5  C   UNL     1      -1.436  12.470  22.911  0.00  0.00    +0.000 A 
ATOM      6  C   UNL     1      -1.945  13.558  23.619  0.00  0.00    +0.000 A 
ATOM      7  C   UNL     1      -2.962  14.336  23.060  0.00  0.00    +0.000 A 
ATOM      8  C   UNL     1      -3.574  13.962  21.855  0.00  0.00    +0.000 A 
ATOM      9 CL   UNL     1      -4.689  15.065  21.139  0.00  0.00    +0.000 Cl
ATOM     10  C   UNL     1      -3.128  12.822  21.194  0.00  0.00    +0.000 A 
ATOM     11  C   UNL     1      -3.666  12.322  19.897  0.00  0.00    +0.000 A 
ATOM     12  O   UNL     1      -4.873  12.351  19.697  0.00  0.00    +0.000 OA
ENDROOT
BRANCH   1  16
ATOM     13  C   UNL     1      -3.332  10.267  15.127  0.00  0.00    +0.000 A 
ATOM     14  C   UNL     1      -2.332   9.724  15.940  0.00  0.00    +0.000 A 
ATOM     15  C   UNL     1      -2.131  10.215  17.237  0.00  0.00    +0.000 A 
ATOM     16  C   UNL     1      -2.944  11.228  17.758  0.00  0.00    +0.000 A 
ATOM     17  C   UNL     1      -4.026  11.675  16.974  0.00  0.00    +0.000 A 
ATOM     18  C   UNL     1      -4.206  11.218  15.666  0.00  0.00    +0.000 A 
BRANCH  13  20
ATOM     19  O   UNL     1      -4.581   9.786  13.158  0.00  0.00    +0.000 OA
ATOM     20  C   UNL     1      -3.494   9.881  13.701  0.00  0.00    +0.000 C 
BRANCH  20  21
ATOM     21  O   UNL     1      -2.326   9.708  13.045  0.00  0.00    +0.000 OA
ATOM     22  H   UNL     1      -1.603   9.321  13.570  0.00  0.00    +0.000 HD
ENDBRANCH  20  21
ENDBRANCH  13  20
ENDBRANCH   1  16
BRANCH   2  23
ATOM     23  C   UNL     1      -0.691  13.049  18.883  0.00  0.00    +0.000 C 
ATOM     24  C   UNL     1      -0.019  13.940  19.628  0.00  0.00    +0.000 C 
BRANCH  24  25
ATOM     25  C   UNL     1       0.577  15.180  19.114  0.00  0.00    +0.000 A 
ATOM     26  C   UNL     1      -0.190  16.242  18.611  0.00  0.00    +0.000 A 
ATOM     27  C   UNL     1       0.403  17.293  17.917  0.00  0.00    +0.000 A 
ATOM     28  C   UNL     1       1.786  17.315  17.735  0.00  0.00    +0.000 A 
ATOM     29  C   UNL     1       2.573  16.301  18.297  0.00  0.00    +0.000 A 
ATOM     30  C   UNL     1       1.970  15.248  19.014  0.00  0.00    +0.000 A 
BRANCH  29  31
ATOM     31  N   UNL     1       4.030  16.299  18.091  0.00  0.00    +0.000 N 
ATOM     32  O   UNL     1       4.660  17.273  18.524  0.00  0.00    +0.000 OA
ATOM     33  O   UNL     1       4.519  15.316  17.518  0.00  0.00    +0.000 OA
ENDBRANCH  29  31
ENDBRANCH  24  25
ENDBRANCH   2  23
TORSDOF 6
ENDMDL
