MODEL 1
REMARK VINA RESULT:      -7.1      0.000      0.000
REMARK  Name = 
REMARK  9 active torsions:
REMARK  status: ('A' for Active; 'I' for Inactive)
REMARK    1  A    between atoms: C_1  and  C_2
REMARK    2  A    between atoms: C_2  and  N_3
REMARK    3  A    between atoms: C_4  and  C_6
REMARK    4  A    between atoms: C_6  and  C_7
REMARK    5  A    between atoms: C_6  and  C_8
REMARK    6  A    between atoms: C_10  and  C_11
REMARK    7  A    between atoms: C_20  and  O_21
REMARK    8  A    between atoms: O_21  and  C_22
REMARK    9  A    between atoms: C_27  and  C_28
REMARK                            x       y       z     vdW  Elec       q    Type
REMARK                         _______ _______ _______ _____ _____    ______ ____
ROOT
ATOM      1  C   UNL     1      -2.487  11.538  18.638  0.00  0.00    +0.000 C 
ATOM      2  N   UNL     1      -1.484  10.498  18.870  0.00  0.00    +0.000 NA
ATOM      3  C   UNL     1      -0.240  10.787  19.027  0.00  0.00    +0.000 C 
ATOM      4  C   UNL     1       0.320  12.180  19.115  0.00  0.00    +0.000 A 
ATOM      5  C   UNL     1       1.565  12.435  18.510  0.00  0.00    +0.000 A 
ATOM      6  C   UNL     1       2.208  13.669  18.657  0.00  0.00    +0.000 A 
ATOM      7  C   UNL     1       1.583  14.683  19.373  0.00  0.00    +0.000 A 
ATOM      8  C   UNL     1       0.335  14.461  19.954  0.00  0.00    +0.000 A 
ATOM      9  C   UNL     1      -0.296  13.210  19.849  0.00  0.00    +0.000 A 
ATOM     10  N   UNL     1      -1.576  13.054  20.431  0.00  0.00    +0.000 N 
ATOM     11  C   UNL     1      -2.100  13.629  21.579  0.00  0.00    +0.000 A 
ATOM     12  C   UNL     1      -1.344  14.298  22.667  0.00  0.00    +0.000 C 
ATOM     13  N   UNL     1      -3.395  13.392  21.629  0.00  0.00    +0.000 NA
ATOM     14  N   UNL     1      -3.727  12.612  20.560  0.00  0.00    +0.000 NA
ATOM     15  C   UNL     1      -2.629  12.354  19.881  0.00  0.00    +0.000 A 
ENDROOT
BRANCH   3  16
ATOM     16  C   UNL     1       0.700   9.615  19.129  0.00  0.00    +0.000 A 
ATOM     17  C   UNL     1       1.332   9.151  17.965  0.00  0.00    +0.000 A 
ATOM     18  C   UNL     1       2.209   8.064  18.019  0.00  0.00    +0.000 A 
ATOM     19  C   UNL     1       2.455   7.440  19.242  0.00  0.00    +0.000 A 
ATOM     20 CL   UNL     1       3.533   6.100  19.319  0.00  0.00    +0.000 Cl
ATOM     21  C   UNL     1       1.829   7.889  20.405  0.00  0.00    +0.000 A 
ATOM     22  C   UNL     1       0.944   8.969  20.349  0.00  0.00    +0.000 A 
ENDBRANCH   3  16
BRANCH   1  23
ATOM     23  C   UNL     1      -3.829  10.891  18.207  0.00  0.00    +0.000 C 
ATOM     24  C   UNL     1      -3.670   9.482  17.613  0.00  0.00    +0.000 C 
BRANCH  23  26
ATOM     25  N   UNL     1      -5.501  12.629  17.834  0.00  0.00    +0.000 N 
ATOM     26  C   UNL     1      -4.585  11.792  17.224  0.00  0.00    +0.000 C 
ATOM     27  O   UNL     1      -4.398  11.806  16.011  0.00  0.00    +0.000 OA
ATOM     28  H   UNL     1      -5.434  12.780  18.833  0.00  0.00    +0.000 HD
BRANCH  25  30
ATOM     29  C   UNL     1      -7.741  13.630  17.702  0.00  0.00    +0.000 C 
ATOM     30  C   UNL     1      -6.379  13.475  17.052  0.00  0.00    +0.000 C 
ENDBRANCH  25  30
ENDBRANCH  23  26
ENDBRANCH   1  23
BRANCH   6  31
ATOM     31  O   UNL     1       3.438  13.755  18.063  0.00  0.00    +0.000 OA
ATOM     32  C   UNL     1       4.231  14.891  18.388  0.00  0.00    +0.000 C 
ENDBRANCH   6  31
TORSDOF 5
ENDMDL
MODEL 2
REMARK VINA RESULT:      -6.9      1.412      2.103
REMARK  Name = 
REMARK  9 active torsions:
REMARK  status: ('A' for Active; 'I' for Inactive)
REMARK    1  A    between atoms: C_1  and  C_2
REMARK    2  A    between atoms: C_2  and  N_3
REMARK    3  A    between atoms: C_4  and  C_6
REMARK    4  A    between atoms: C_6  and  C_7
REMARK    5  A    between atoms: C_6  and  C_8
REMARK    6  A    between atoms: C_10  and  C_11
REMARK    7  A    between atoms: C_20  and  O_21
REMARK    8  A    between atoms: O_21  and  C_22
REMARK    9  A    between atoms: C_27  and  C_28
REMARK                            x       y       z     vdW  Elec       q    Type
REMARK                         _______ _______ _______ _____ _____    ______ ____
ROOT
ATOM      1  C   UNL     1      -2.157  11.433  18.061  0.00  0.00    +0.000 C 
ATOM      2  N   UNL     1      -1.198  10.373  18.377  0.00  0.00    +0.000 NA
ATOM      3  C   UNL     1       0.023  10.642  18.681  0.00  0.00    +0.000 C 
ATOM      4  C   UNL     1       0.584  12.024  18.870  0.00  0.00    +0.000 A 
ATOM      5  C   UNL     1       1.892  12.278  18.418  0.00  0.00    +0.000 A 
ATOM      6  C   UNL     1       2.528  13.499  18.670  0.00  0.00    +0.000 A 
ATOM      7  C   UNL     1       1.835  14.503  19.339  0.00  0.00    +0.000 A 
ATOM      8  C   UNL     1       0.527  14.282  19.768  0.00  0.00    +0.000 A 
ATOM      9  C   UNL     1      -0.101  13.043  19.558  0.00  0.00    +0.000 A 
ATOM     10  N   UNL     1      -1.440  12.889  19.986  0.00  0.00    +0.000 N 
ATOM     11  C   UNL     1      -2.086  13.441  21.083  0.00  0.00    +0.000 A 
ATOM     12  C   UNL     1      -1.451  14.071  22.267  0.00  0.00    +0.000 C 
ATOM     13  N   UNL     1      -3.380  13.220  20.980  0.00  0.00    +0.000 NA
ATOM     14  N   UNL     1      -3.597  12.473  19.859  0.00  0.00    +0.000 NA
ATOM     15  C   UNL     1      -2.431  12.218  19.301  0.00  0.00    +0.000 A 
ENDROOT
BRANCH   3  16
ATOM     16  C   UNL     1       0.933   9.455  18.857  0.00  0.00    +0.000 A 
ATOM     17  C   UNL     1       1.041   8.868  20.128  0.00  0.00    +0.000 A 
ATOM     18  C   UNL     1       1.876   7.766  20.332  0.00  0.00    +0.000 A 
ATOM     19  C   UNL     1       2.605   7.249  19.261  0.00  0.00    +0.000 A 
ATOM     20 CL   UNL     1       3.638   5.893  19.502  0.00  0.00    +0.000 Cl
ATOM     21  C   UNL     1       2.510   7.827  17.995  0.00  0.00    +0.000 A 
ATOM     22  C   UNL     1       1.682   8.935  17.793  0.00  0.00    +0.000 A 
ENDBRANCH   3  16
BRANCH   1  23
ATOM     23  C   UNL     1      -3.448  10.816  17.462  0.00  0.00    +0.000 C 
ATOM     24  C   UNL     1      -3.655   9.339  17.837  0.00  0.00    +0.000 C 
BRANCH  23  26
ATOM     25  N   UNL     1      -3.084   9.848  15.252  0.00  0.00    +0.000 N 
ATOM     26  C   UNL     1      -3.484  10.980  15.939  0.00  0.00    +0.000 C 
ATOM     27  O   UNL     1      -3.851  11.997  15.360  0.00  0.00    +0.000 OA
ATOM     28  H   UNL     1      -3.052   8.965  15.745  0.00  0.00    +0.000 HD
BRANCH  25  30
ATOM     29  C   UNL     1      -4.301   9.702  13.123  0.00  0.00    +0.000 C 
ATOM     30  C   UNL     1      -2.956   9.854  13.809  0.00  0.00    +0.000 C 
ENDBRANCH  25  30
ENDBRANCH  23  26
ENDBRANCH   1  23
BRANCH   6  31
ATOM     31  O   UNL     1       3.817  13.584  18.223  0.00  0.00    +0.000 OA
ATOM     32  C   UNL     1       4.495  14.816  18.443  0.00  0.00    +0.000 C 
ENDBRANCH   6  31
TORSDOF 5
ENDMDL
MODEL 3
REMARK VINA RESULT:      -6.7      1.611      1.950
REMARK  Name = 
REMARK  9 active torsions:
REMARK  status: ('A' for Active; 'I' for Inactive)
REMARK    1  A    between atoms: C_1  and  C_2
REMARK    2  A    between atoms: C_2  and  N_3
REMARK    3  A    between atoms: C_4  and  C_6
REMARK    4  A    between atoms: C_6  and  C_7
REMARK    5  A    between atoms: C_6  and  C_8
REMARK    6  A    between atoms: C_10  and  C_11
REMARK    7  A    between atoms: C_20  and  O_21
REMARK    8  A    between atoms: O_21  and  C_22
REMARK    9  A    between atoms: C_27  and  C_28
REMARK                            x       y       z     vdW  Elec       q    Type
REMARK                         _______ _______ _______ _____ _____    ______ ____
ROOT
ATOM      1  C   UNL     1      -2.322  11.384  17.831  0.00  0.00    +0.000 C 
ATOM      2  N   UNL     1      -1.360  10.353  18.225  0.00  0.00    +0.000 NA
ATOM      3  C   UNL     1      -0.194  10.659  18.676  0.00  0.00    +0.000 C 
ATOM      4  C   UNL     1       0.280  12.056  18.970  0.00  0.00    +0.000 A 
ATOM      5  C   UNL     1       1.619  12.377  18.681  0.00  0.00    +0.000 A 
ATOM      6  C   UNL     1       2.168  13.613  19.042  0.00  0.00    +0.000 A 
ATOM      7  C   UNL     1       1.360  14.564  19.655  0.00  0.00    +0.000 A 
ATOM      8  C   UNL     1       0.022  14.277  19.924  0.00  0.00    +0.000 A 
ATOM      9  C   UNL     1      -0.522  13.021  19.604  0.00  0.00    +0.000 A 
ATOM     10  N   UNL     1      -1.895  12.800  19.870  0.00  0.00    +0.000 N 
ATOM     11  C   UNL     1      -2.684  13.286  20.901  0.00  0.00    +0.000 A 
ATOM     12  C   UNL     1      -2.218  13.900  22.169  0.00  0.00    +0.000 C 
ATOM     13  N   UNL     1      -3.948  13.018  20.642  0.00  0.00    +0.000 NA
ATOM     14  N   UNL     1      -4.002  12.302  19.481  0.00  0.00    +0.000 NA
ATOM     15  C   UNL     1      -2.770  12.114  19.055  0.00  0.00    +0.000 A 
ENDROOT
BRANCH   3  16
ATOM     16  C   UNL     1       0.740   9.504  18.921  0.00  0.00    +0.000 A 
ATOM     17  C   UNL     1       1.450   8.967  17.835  0.00  0.00    +0.000 A 
ATOM     18  C   UNL     1       2.325   7.894  18.022  0.00  0.00    +0.000 A 
ATOM     19  C   UNL     1       2.491   7.355  19.298  0.00  0.00    +0.000 A 
ATOM     20 CL   UNL     1       3.565   6.032  19.538  0.00  0.00    +0.000 Cl
ATOM     21  C   UNL     1       1.787   7.877  20.383  0.00  0.00    +0.000 A 
ATOM     22  C   UNL     1       0.904   8.945  20.196  0.00  0.00    +0.000 A 
ENDBRANCH   3  16
BRANCH   1  23
ATOM     23  C   UNL     1      -3.507  10.737  17.069  0.00  0.00    +0.000 C 
ATOM     24  C   UNL     1      -3.805   9.294  17.506  0.00  0.00    +0.000 C 
BRANCH  23  26
ATOM     25  N   UNL     1      -4.183  10.021  14.837  0.00  0.00    +0.000 N 
ATOM     26  C   UNL     1      -3.285  10.791  15.554  0.00  0.00    +0.000 C 
ATOM     27  O   UNL     1      -2.418  11.462  15.004  0.00  0.00    +0.000 OA
ATOM     28  H   UNL     1      -5.030   9.709  15.293  0.00  0.00    +0.000 HD
BRANCH  25  30
ATOM     29  C   UNL     1      -5.361   9.417  12.767  0.00  0.00    +0.000 C 
ATOM     30  C   UNL     1      -4.059   9.870  13.401  0.00  0.00    +0.000 C 
ENDBRANCH  25  30
ENDBRANCH  23  26
ENDBRANCH   1  23
BRANCH   6  31
ATOM     31  O   UNL     1       3.495  13.765  18.749  0.00  0.00    +0.000 OA
ATOM     32  C   UNL     1       3.907  15.040  18.269  0.00  0.00    +0.000 C 
ENDBRANCH   6  31
TORSDOF 5
ENDMDL
MODEL 4
REMARK VINA RESULT:      -6.6      2.007      3.217
REMARK  Name = 
REMARK  9 active torsions:
REMARK  status: ('A' for Active; 'I' for Inactive)
REMARK    1  A    between atoms: C_1  and  C_2
REMARK    2  A    between atoms: C_2  and  N_3
REMARK    3  A    between atoms: C_4  and  C_6
REMARK    4  A    between atoms: C_6  and  C_7
REMARK    5  A    between atoms: C_6  and  C_8
REMARK    6  A    between atoms: C_10  and  C_11
REMARK    7  A    between atoms: C_20  and  O_21
REMARK    8  A    between atoms: O_21  and  C_22
REMARK    9  A    between atoms: C_27  and  C_28
REMARK                            x       y       z     vdW  Elec       q    Type
REMARK                         _______ _______ _______ _____ _____    ______ ____
ROOT
ATOM      1  C   UNL     1      -4.528  12.494  19.700  0.00  0.00    +0.000 C 
ATOM      2  N   UNL     1      -3.370  11.616  19.527  0.00  0.00    +0.000 NA
ATOM      3  C   UNL     1      -2.208  11.940  19.975  0.00  0.00    +0.000 C 
ATOM      4  C   UNL     1      -1.911  13.153  20.812  0.00  0.00    +0.000 A 
ATOM      5  C   UNL     1      -0.700  13.834  20.590  0.00  0.00    +0.000 A 
ATOM      6  C   UNL     1      -0.296  14.893  21.411  0.00  0.00    +0.000 A 
ATOM      7  C   UNL     1      -1.131  15.315  22.439  0.00  0.00    +0.000 A 
ATOM      8  C   UNL     1      -2.350  14.673  22.658  0.00  0.00    +0.000 A 
ATOM      9  C   UNL     1      -2.741  13.581  21.865  0.00  0.00    +0.000 A 
ATOM     10  N   UNL     1      -4.003  12.992  22.113  0.00  0.00    +0.000 N 
ATOM     11  C   UNL     1      -4.684  12.832  23.310  0.00  0.00    +0.000 A 
ATOM     12  C   UNL     1      -4.122  12.947  24.679  0.00  0.00    +0.000 C 
ATOM     13  N   UNL     1      -5.917  12.442  23.058  0.00  0.00    +0.000 NA
ATOM     14  N   UNL     1      -6.045  12.278  21.710  0.00  0.00    +0.000 NA
ATOM     15  C   UNL     1      -4.882  12.541  21.150  0.00  0.00    +0.000 A 
ENDROOT
BRANCH   3  16
ATOM     16  C   UNL     1      -1.082  11.007  19.617  0.00  0.00    +0.000 A 
ATOM     17  C   UNL     1      -0.384  10.361  20.649  0.00  0.00    +0.000 A 
ATOM     18  C   UNL     1       0.669   9.489  20.357  0.00  0.00    +0.000 A 
ATOM     19  C   UNL     1       1.024   9.262  19.027  0.00  0.00    +0.000 A 
ATOM     20 CL   UNL     1       2.320   8.192  18.656  0.00  0.00    +0.000 Cl
ATOM     21  C   UNL     1       0.341   9.902  17.993  0.00  0.00    +0.000 A 
ATOM     22  C   UNL     1      -0.706  10.782  18.285  0.00  0.00    +0.000 A 
ENDBRANCH   3  16
BRANCH   1  23
ATOM     23  C   UNL     1      -5.707  11.993  18.826  0.00  0.00    +0.000 C 
ATOM     24  C   UNL     1      -6.169  10.569  19.176  0.00  0.00    +0.000 C 
BRANCH  23  26
ATOM     25  N   UNL     1      -4.497  11.095  16.907  0.00  0.00    +0.000 N 
ATOM     26  C   UNL     1      -5.366  12.082  17.335  0.00  0.00    +0.000 C 
ATOM     27  O   UNL     1      -5.825  12.922  16.567  0.00  0.00    +0.000 OA
ATOM     28  H   UNL     1      -4.360  10.280  17.491  0.00  0.00    +0.000 HD
BRANCH  25  30
ATOM     29  C   UNL     1      -2.829  10.114  15.393  0.00  0.00    +0.000 C 
ATOM     30  C   UNL     1      -3.984  11.084  15.552  0.00  0.00    +0.000 C 
ENDBRANCH  25  30
ENDBRANCH  23  26
ENDBRANCH   1  23
BRANCH   6  31
ATOM     31  O   UNL     1       0.929  15.422  21.112  0.00  0.00    +0.000 OA
ATOM     32  C   UNL     1       2.020  14.511  21.030  0.00  0.00    +0.000 C 
ENDBRANCH   6  31
TORSDOF 5
ENDMDL
MODEL 5
REMARK VINA RESULT:      -6.6      3.578      6.230
REMARK  Name = 
REMARK  9 active torsions:
REMARK  status: ('A' for Active; 'I' for Inactive)
REMARK    1  A    between atoms: C_1  and  C_2
REMARK    2  A    between atoms: C_2  and  N_3
REMARK    3  A    between atoms: C_4  and  C_6
REMARK    4  A    between atoms: C_6  and  C_7
REMARK    5  A    between atoms: C_6  and  C_8
REMARK    6  A    between atoms: C_10  and  C_11
REMARK    7  A    between atoms: C_20  and  O_21
REMARK    8  A    between atoms: O_21  and  C_22
REMARK    9  A    between atoms: C_27  and  C_28
REMARK                            x       y       z     vdW  Elec       q    Type
REMARK                         _______ _______ _______ _____ _____    ______ ____
ROOT
ATOM      1  C   UNL     1      -4.942  12.258  20.139  0.00  0.00    +0.000 C 
ATOM      2  N   UNL     1      -4.108  13.419  20.454  0.00  0.00    +0.000 NA
ATOM      3  C   UNL     1      -2.824  13.334  20.495  0.00  0.00    +0.000 C 
ATOM      4  C   UNL     1      -2.026  12.116  20.119  0.00  0.00    +0.000 A 
ATOM      5  C   UNL     1      -0.880  11.813  20.876  0.00  0.00    +0.000 A 
ATOM      6  C   UNL     1      -0.018  10.772  20.511  0.00  0.00    +0.000 A 
ATOM      7  C   UNL     1      -0.326   9.988  19.406  0.00  0.00    +0.000 A 
ATOM      8  C   UNL     1      -1.474  10.252  18.659  0.00  0.00    +0.000 A 
ATOM      9  C   UNL     1      -2.319  11.324  18.994  0.00  0.00    +0.000 A 
ATOM     10  N   UNL     1      -3.487  11.522  18.220  0.00  0.00    +0.000 N 
ATOM     11  C   UNL     1      -3.697  11.302  16.866  0.00  0.00    +0.000 A 
ATOM     12  C   UNL     1      -2.661  11.112  15.821  0.00  0.00    +0.000 C 
ATOM     13  N   UNL     1      -4.985  11.401  16.608  0.00  0.00    +0.000 NA
ATOM     14  N   UNL     1      -5.627  11.747  17.761  0.00  0.00    +0.000 NA
ATOM     15  C   UNL     1      -4.724  11.885  18.710  0.00  0.00    +0.000 A 
ENDROOT
BRANCH   3  16
ATOM     16  C   UNL     1      -2.097  14.569  20.956  0.00  0.00    +0.000 A 
ATOM     17  C   UNL     1      -1.208  15.200  20.072  0.00  0.00    +0.000 A 
ATOM     18  C   UNL     1      -0.513  16.348  20.464  0.00  0.00    +0.000 A 
ATOM     19  C   UNL     1      -0.709  16.866  21.744  0.00  0.00    +0.000 A 
ATOM     20 CL   UNL     1       0.143  18.278  22.237  0.00  0.00    +0.000 Cl
ATOM     21  C   UNL     1      -1.586  16.245  22.633  0.00  0.00    +0.000 A 
ATOM     22  C   UNL     1      -2.274  15.091  22.245  0.00  0.00    +0.000 A 
ENDBRANCH   3  16
BRANCH   1  23
ATOM     23  C   UNL     1      -6.429  12.578  20.440  0.00  0.00    +0.000 C 
ATOM     24  C   UNL     1      -6.830  14.021  20.092  0.00  0.00    +0.000 C 
BRANCH  23  26
ATOM     25  N   UNL     1      -6.087  13.066  22.806  0.00  0.00    +0.000 N 
ATOM     26  C   UNL     1      -6.774  12.277  21.902  0.00  0.00    +0.000 C 
ATOM     27  O   UNL     1      -7.594  11.439  22.262  0.00  0.00    +0.000 OA
ATOM     28  H   UNL     1      -5.637  13.909  22.473  0.00  0.00    +0.000 HD
BRANCH  25  30
ATOM     29  C   UNL     1      -4.947  12.256  24.826  0.00  0.00    +0.000 C 
ATOM     30  C   UNL     1      -6.210  12.851  24.233  0.00  0.00    +0.000 C 
ENDBRANCH  25  30
ENDBRANCH  23  26
ENDBRANCH   1  23
BRANCH   6  31
ATOM     31  O   UNL     1       1.086  10.630  21.306  0.00  0.00    +0.000 OA
ATOM     32  C   UNL     1       1.272   9.364  21.930  0.00  0.00    +0.000 C 
ENDBRANCH   6  31
TORSDOF 5
ENDMDL
MODEL 6
REMARK VINA RESULT:      -6.6      3.099      6.038
REMARK  Name = 
REMARK  9 active torsions:
REMARK  status: ('A' for Active; 'I' for Inactive)
REMARK    1  A    between atoms: C_1  and  C_2
REMARK    2  A    between atoms: C_2  and  N_3
REMARK    3  A    between atoms: C_4  and  C_6
REMARK    4  A    between atoms: C_6  and  C_7
REMARK    5  A    between atoms: C_6  and  C_8
REMARK    6  A    between atoms: C_10  and  C_11
REMARK    7  A    between atoms: C_20  and  O_21
REMARK    8  A    between atoms: O_21  and  C_22
REMARK    9  A    between atoms: C_27  and  C_28
REMARK                            x       y       z     vdW  Elec       q    Type
REMARK                         _______ _______ _______ _____ _____    ______ ____
ROOT
ATOM      1  C   UNL     1      -3.740  12.546  20.717  0.00  0.00    +0.000 C 
ATOM      2  N   UNL     1      -2.689  13.546  20.532  0.00  0.00    +0.000 NA
ATOM      3  C   UNL     1      -1.592  13.264  19.919  0.00  0.00    +0.000 C 
ATOM      4  C   UNL     1      -1.299  11.962  19.227  0.00  0.00    +0.000 A 
ATOM      5  C   UNL     1       0.008  11.446  19.308  0.00  0.00    +0.000 A 
ATOM      6  C   UNL     1       0.390  10.308  18.589  0.00  0.00    +0.000 A 
ATOM      7  C   UNL     1      -0.554   9.642  17.815  0.00  0.00    +0.000 A 
ATOM      8  C   UNL     1      -1.863  10.119  17.745  0.00  0.00    +0.000 A 
ATOM      9  C   UNL     1      -2.241  11.287  18.430  0.00  0.00    +0.000 A 
ATOM     10  N   UNL     1      -3.591  11.703  18.348  0.00  0.00    +0.000 N 
ATOM     11  C   UNL     1      -4.487  11.594  17.295  0.00  0.00    +0.000 A 
ATOM     12  C   UNL     1      -4.164  11.307  15.875  0.00  0.00    +0.000 C 
ATOM     13  N   UNL     1      -5.694  11.902  17.721  0.00  0.00    +0.000 NA
ATOM     14  N   UNL     1      -5.602  12.277  19.029  0.00  0.00    +0.000 NA
ATOM     15  C   UNL     1      -4.336  12.223  19.386  0.00  0.00    +0.000 A 
ENDROOT
BRANCH   3  16
ATOM     16  C   UNL     1      -0.546  14.347  19.912  0.00  0.00    +0.000 A 
ATOM     17  C   UNL     1       0.080  14.690  21.120  0.00  0.00    +0.000 A 
ATOM     18  C   UNL     1       1.055  15.691  21.154  0.00  0.00    +0.000 A 
ATOM     19  C   UNL     1       1.405  16.351  19.976  0.00  0.00    +0.000 A 
ATOM     20 CL   UNL     1       2.603  17.585  20.008  0.00  0.00    +0.000 Cl
ATOM     21  C   UNL     1       0.786  16.021  18.770  0.00  0.00    +0.000 A 
ATOM     22  C   UNL     1      -0.197  15.027  18.737  0.00  0.00    +0.000 A 
ENDBRANCH   3  16
BRANCH   1  23
ATOM     23  C   UNL     1      -4.800  13.071  21.719  0.00  0.00    +0.000 C 
ATOM     24  C   UNL     1      -5.366  14.451  21.348  0.00  0.00    +0.000 C 
BRANCH  23  26
ATOM     25  N   UNL     1      -3.678  14.313  23.494  0.00  0.00    +0.000 N 
ATOM     26  C   UNL     1      -4.243  13.100  23.147  0.00  0.00    +0.000 C 
ATOM     27  O   UNL     1      -4.303  12.161  23.934  0.00  0.00    +0.000 OA
ATOM     28  H   UNL     1      -3.887  15.128  22.931  0.00  0.00    +0.000 HD
BRANCH  25  30
ATOM     29  C   UNL     1      -1.573  14.945  24.594  0.00  0.00    +0.000 C 
ATOM     30  C   UNL     1      -3.010  14.491  24.768  0.00  0.00    +0.000 C 
ENDBRANCH  25  30
ENDBRANCH  23  26
ENDBRANCH   1  23
BRANCH   6  31
ATOM     31  O   UNL     1       1.705   9.956  18.719  0.00  0.00    +0.000 OA
ATOM     32  C   UNL     1       2.179   8.916  17.869  0.00  0.00    +0.000 C 
ENDBRANCH   6  31
TORSDOF 5
ENDMDL
MODEL 7
REMARK VINA RESULT:      -6.5      2.120      3.102
REMARK  Name = 
REMARK  9 active torsions:
REMARK  status: ('A' for Active; 'I' for Inactive)
REMARK    1  A    between atoms: C_1  and  C_2
REMARK    2  A    between atoms: C_2  and  N_3
REMARK    3  A    between atoms: C_4  and  C_6
REMARK    4  A    between atoms: C_6  and  C_7
REMARK    5  A    between atoms: C_6  and  C_8
REMARK    6  A    between atoms: C_10  and  C_11
REMARK    7  A    between atoms: C_20  and  O_21
REMARK    8  A    between atoms: O_21  and  C_22
REMARK    9  A    between atoms: C_27  and  C_28
REMARK                            x       y       z     vdW  Elec       q    Type
REMARK                         _______ _______ _______ _____ _____    ______ ____
ROOT
ATOM      1  C   UNL     1      -4.593  12.489  19.609  0.00  0.00    +0.000 C 
ATOM      2  N   UNL     1      -3.418  11.637  19.416  0.00  0.00    +0.000 NA
ATOM      3  C   UNL     1      -2.257  11.986  19.847  0.00  0.00    +0.000 C 
ATOM      4  C   UNL     1      -1.974  13.204  20.682  0.00  0.00    +0.000 A 
ATOM      5  C   UNL     1      -0.782  13.912  20.442  0.00  0.00    +0.000 A 
ATOM      6  C   UNL     1      -0.389  14.979  21.259  0.00  0.00    +0.000 A 
ATOM      7  C   UNL     1      -1.217  15.380  22.301  0.00  0.00    +0.000 A 
ATOM      8  C   UNL     1      -2.418  14.711  22.537  0.00  0.00    +0.000 A 
ATOM      9  C   UNL     1      -2.796  13.611  21.748  0.00  0.00    +0.000 A 
ATOM     10  N   UNL     1      -4.041  12.994  22.014  0.00  0.00    +0.000 N 
ATOM     11  C   UNL     1      -4.700  12.818  23.222  0.00  0.00    +0.000 A 
ATOM     12  C   UNL     1      -4.118  12.942  24.582  0.00  0.00    +0.000 C 
ATOM     13  N   UNL     1      -5.927  12.400  22.988  0.00  0.00    +0.000 NA
ATOM     14  N   UNL     1      -6.072  12.235  21.642  0.00  0.00    +0.000 NA
ATOM     15  C   UNL     1      -4.925  12.525  21.064  0.00  0.00    +0.000 A 
ENDROOT
BRANCH   3  16
ATOM     16  C   UNL     1      -1.116  11.079  19.469  0.00  0.00    +0.000 A 
ATOM     17  C   UNL     1      -0.291  10.571  20.485  0.00  0.00    +0.000 A 
ATOM     18  C   UNL     1       0.779   9.727  20.174  0.00  0.00    +0.000 A 
ATOM     19  C   UNL     1       1.025   9.391  18.842  0.00  0.00    +0.000 A 
ATOM     20 CL   UNL     1       2.342   8.354  18.449  0.00  0.00    +0.000 Cl
ATOM     21  C   UNL     1       0.216   9.894  17.824  0.00  0.00    +0.000 A 
ATOM     22  C   UNL     1      -0.849  10.746  18.134  0.00  0.00    +0.000 A 
ENDBRANCH   3  16
BRANCH   1  23
ATOM     23  C   UNL     1      -5.773  11.963  18.753  0.00  0.00    +0.000 C 
ATOM     24  C   UNL     1      -5.329  11.219  17.482  0.00  0.00    +0.000 C 
BRANCH  23  26
ATOM     25  N   UNL     1      -6.229  13.970  17.443  0.00  0.00    +0.000 N 
ATOM     26  C   UNL     1      -6.738  13.096  18.386  0.00  0.00    +0.000 C 
ATOM     27  O   UNL     1      -7.865  13.225  18.851  0.00  0.00    +0.000 OA
ATOM     28  H   UNL     1      -5.427  13.684  16.895  0.00  0.00    +0.000 HD
BRANCH  25  30
ATOM     29  C   UNL     1      -6.625  16.344  17.938  0.00  0.00    +0.000 C 
ATOM     30  C   UNL     1      -6.960  15.159  17.052  0.00  0.00    +0.000 C 
ENDBRANCH  25  30
ENDBRANCH  23  26
ENDBRANCH   1  23
BRANCH   6  31
ATOM     31  O   UNL     1       0.820  15.535  20.942  0.00  0.00    +0.000 OA
ATOM     32  C   UNL     1       1.950  14.670  20.958  0.00  0.00    +0.000 C 
ENDBRANCH   6  31
TORSDOF 5
ENDMDL
MODEL 8
REMARK VINA RESULT:      -6.5      2.409      3.406
REMARK  Name = 
REMARK  9 active torsions:
REMARK  status: ('A' for Active; 'I' for Inactive)
REMARK    1  A    between atoms: C_1  and  C_2
REMARK    2  A    between atoms: C_2  and  N_3
REMARK    3  A    between atoms: C_4  and  C_6
REMARK    4  A    between atoms: C_6  and  C_7
REMARK    5  A    between atoms: C_6  and  C_8
REMARK    6  A    between atoms: C_10  and  C_11
REMARK    7  A    between atoms: C_20  and  O_21
REMARK    8  A    between atoms: O_21  and  C_22
REMARK    9  A    between atoms: C_27  and  C_28
REMARK                            x       y       z     vdW  Elec       q    Type
REMARK                         _______ _______ _______ _____ _____    ______ ____
ROOT
ATOM      1  C   UNL     1      -4.911  12.779  19.816  0.00  0.00    +0.000 C 
ATOM      2  N   UNL     1      -3.746  11.955  19.492  0.00  0.00    +0.000 NA
ATOM      3  C   UNL     1      -2.565  12.271  19.895  0.00  0.00    +0.000 C 
ATOM      4  C   UNL     1      -2.244  13.413  20.820  0.00  0.00    +0.000 A 
ATOM      5  C   UNL     1      -1.066  14.147  20.586  0.00  0.00    +0.000 A 
ATOM      6  C   UNL     1      -0.636  15.138  21.475  0.00  0.00    +0.000 A 
ATOM      7  C   UNL     1      -1.413  15.441  22.587  0.00  0.00    +0.000 A 
ATOM      8  C   UNL     1      -2.599  14.746  22.821  0.00  0.00    +0.000 A 
ATOM      9  C   UNL     1      -3.014  13.719  21.957  0.00  0.00    +0.000 A 
ATOM     10  N   UNL     1      -4.243  13.073  22.227  0.00  0.00    +0.000 N 
ATOM     11  C   UNL     1      -4.841  12.786  23.445  0.00  0.00    +0.000 A 
ATOM     12  C   UNL     1      -4.195  12.793  24.781  0.00  0.00    +0.000 C 
ATOM     13  N   UNL     1      -6.078  12.383  23.235  0.00  0.00    +0.000 NA
ATOM     14  N   UNL     1      -6.289  12.338  21.888  0.00  0.00    +0.000 NA
ATOM     15  C   UNL     1      -5.171  12.685  21.284  0.00  0.00    +0.000 A 
ENDROOT
BRANCH   3  16
ATOM     16  C   UNL     1      -1.442  11.409  19.383  0.00  0.00    +0.000 A 
ATOM     17  C   UNL     1      -1.573  10.807  18.121  0.00  0.00    +0.000 A 
ATOM     18  C   UNL     1      -0.553   9.998  17.612  0.00  0.00    +0.000 A 
ATOM     19  C   UNL     1       0.601   9.790  18.368  0.00  0.00    +0.000 A 
ATOM     20 CL   UNL     1       1.862   8.794  17.751  0.00  0.00    +0.000 Cl
ATOM     21  C   UNL     1       0.740  10.378  19.625  0.00  0.00    +0.000 A 
ATOM     22  C   UNL     1      -0.284  11.180  20.139  0.00  0.00    +0.000 A 
ENDBRANCH   3  16
BRANCH   1  23
ATOM     23  C   UNL     1      -6.131  12.324  18.975  0.00  0.00    +0.000 C 
ATOM     24  C   UNL     1      -5.865  11.062  18.139  0.00  0.00    +0.000 C 
BRANCH  23  26
ATOM     25  N   UNL     1      -6.208  14.710  18.470  0.00  0.00    +0.000 N 
ATOM     26  C   UNL     1      -6.631  13.456  18.071  0.00  0.00    +0.000 C 
ATOM     27  O   UNL     1      -7.322  13.290  17.070  0.00  0.00    +0.000 OA
ATOM     28  H   UNL     1      -5.437  14.780  19.121  0.00  0.00    +0.000 HD
BRANCH  25  30
ATOM     29  C   UNL     1      -6.317  17.163  18.568  0.00  0.00    +0.000 C 
ATOM     30  C   UNL     1      -6.668  15.906  17.794  0.00  0.00    +0.000 C 
ENDBRANCH  25  30
ENDBRANCH  23  26
ENDBRANCH   1  23
BRANCH   6  31
ATOM     31  O   UNL     1       0.555  15.728  21.150  0.00  0.00    +0.000 OA
ATOM     32  C   UNL     1       0.696  17.109  21.466  0.00  0.00    +0.000 C 
ENDBRANCH   6  31
TORSDOF 5
ENDMDL
MODEL 9
REMARK VINA RESULT:      -6.5      3.291      6.783
REMARK  Name = 
REMARK  9 active torsions:
REMARK  status: ('A' for Active; 'I' for Inactive)
REMARK    1  A    between atoms: C_1  and  C_2
REMARK    2  A    between atoms: C_2  and  N_3
REMARK    3  A    between atoms: C_4  and  C_6
REMARK    4  A    between atoms: C_6  and  C_7
REMARK    5  A    between atoms: C_6  and  C_8
REMARK    6  A    between atoms: C_10  and  C_11
REMARK    7  A    between atoms: C_20  and  O_21
REMARK    8  A    between atoms: O_21  and  C_22
REMARK    9  A    between atoms: C_27  and  C_28
REMARK                            x       y       z     vdW  Elec       q    Type
REMARK                         _______ _______ _______ _____ _____    ______ ____
ROOT
ATOM      1  C   UNL     1      -0.143  14.001  18.807  0.00  0.00    +0.000 C 
ATOM      2  N   UNL     1      -0.882  13.739  20.042  0.00  0.00    +0.000 NA
ATOM      3  C   UNL     1      -1.797  12.835  20.099  0.00  0.00    +0.000 C 
ATOM      4  C   UNL     1      -2.137  11.877  18.991  0.00  0.00    +0.000 A 
ATOM      5  C   UNL     1      -3.489  11.542  18.793  0.00  0.00    +0.000 A 
ATOM      6  C   UNL     1      -3.871  10.564  17.868  0.00  0.00    +0.000 A 
ATOM      7  C   UNL     1      -2.899   9.943  17.091  0.00  0.00    +0.000 A 
ATOM      8  C   UNL     1      -1.555  10.283  17.250  0.00  0.00    +0.000 A 
ATOM      9  C   UNL     1      -1.162  11.232  18.209  0.00  0.00    +0.000 A 
ATOM     10  N   UNL     1       0.212  11.559  18.301  0.00  0.00    +0.000 N 
ATOM     11  C   UNL     1       1.327  10.757  18.105  0.00  0.00    +0.000 A 
ATOM     12  C   UNL     1       1.363   9.274  18.067  0.00  0.00    +0.000 C 
ATOM     13  N   UNL     1       2.403  11.515  18.068  0.00  0.00    +0.000 NA
ATOM     14  N   UNL     1       2.025  12.805  18.301  0.00  0.00    +0.000 NA
ATOM     15  C   UNL     1       0.725  12.823  18.508  0.00  0.00    +0.000 A 
ENDROOT
BRANCH   3  16
ATOM     16  C   UNL     1      -2.566  12.758  21.392  0.00  0.00    +0.000 A 
ATOM     17  C   UNL     1      -3.764  13.480  21.511  0.00  0.00    +0.000 A 
ATOM     18  C   UNL     1      -4.504  13.435  22.695  0.00  0.00    +0.000 A 
ATOM     19  C   UNL     1      -4.045  12.666  23.764  0.00  0.00    +0.000 A 
ATOM     20 CL   UNL     1      -4.949  12.606  25.228  0.00  0.00    +0.000 Cl
ATOM     21  C   UNL     1      -2.854  11.949  23.660  0.00  0.00    +0.000 A 
ATOM     22  C   UNL     1      -2.107  12.001  22.479  0.00  0.00    +0.000 A 
ENDBRANCH   3  16
BRANCH   1  23
ATOM     23  C   UNL     1       0.676  15.309  18.949  0.00  0.00    +0.000 C 
ATOM     24  C   UNL     1       1.282  15.507  20.348  0.00  0.00    +0.000 C 
BRANCH  23  26
ATOM     25  N   UNL     1      -1.344  16.637  19.276  0.00  0.00    +0.000 N 
ATOM     26  C   UNL     1      -0.164  16.532  18.564  0.00  0.00    +0.000 C 
ATOM     27  O   UNL     1       0.167  17.365  17.726  0.00  0.00    +0.000 OA
ATOM     28  H   UNL     1      -1.450  16.099  20.127  0.00  0.00    +0.000 HD
BRANCH  25  30
ATOM     29  C   UNL     1      -2.499  18.628  20.137  0.00  0.00    +0.000 C 
ATOM     30  C   UNL     1      -2.311  17.672  18.974  0.00  0.00    +0.000 C 
ENDBRANCH  25  30
ENDBRANCH  23  26
ENDBRANCH   1  23
BRANCH   6  31
ATOM     31  O   UNL     1      -5.213  10.302  17.824  0.00  0.00    +0.000 OA
ATOM     32  C   UNL     1      -6.090  11.413  17.970  0.00  0.00    +0.000 C 
ENDBRANCH   6  31
TORSDOF 5
ENDMDL
