MODEL 1
REMARK VINA RESULT:      -7.5      0.000      0.000
REMARK  Name = 
REMARK  9 active torsions:
REMARK  status: ('A' for Active; 'I' for Inactive)
REMARK    1  A    between atoms: C_1  and  C_2
REMARK    2  A    between atoms: C_2  and  N_3
REMARK    3  A    between atoms: N_3  and  C_4
REMARK    4  A    between atoms: N_3  and  S_23
REMARK    5  A    between atoms: C_4  and  C_5
REMARK    6  A    between atoms: C_5  and  O_6
REMARK    7  A    between atoms: C_5  and  C_7
REMARK    8  A    between atoms: C_7  and  N_8
REMARK    9  A    between atoms: S_23  and  C_24
REMARK                            x       y       z     vdW  Elec       q    Type
REMARK                         _______ _______ _______ _____ _____    ______ ____
ROOT
ATOM      1  N   UNL     1       3.442   5.997  18.469  0.00  0.00    +0.000 N 
ATOM      2  C   UNL     1       4.688   5.947  17.877  0.00  0.00    +0.000 A 
ATOM      3  C   UNL     1       5.690   6.923  17.759  0.00  0.00    +0.000 A 
ATOM      4  C   UNL     1       6.854   6.572  17.081  0.00  0.00    +0.000 A 
ATOM      5  F   UNL     1       7.830   7.485  16.958  0.00  0.00    +0.000 F 
ATOM      6  C   UNL     1       7.033   5.312  16.542  0.00  0.00    +0.000 A 
ATOM      7  C   UNL     1       6.037   4.344  16.677  0.00  0.00    +0.000 A 
ATOM      8  C   UNL     1       4.842   4.658  17.363  0.00  0.00    +0.000 A 
ATOM      9  C   UNL     1       3.674   3.911  17.715  0.00  0.00    +0.000 A 
ATOM     10  C   UNL     1       3.284   2.565  17.521  0.00  0.00    +0.000 A 
ATOM     11  C   UNL     1       2.063   2.115  18.035  0.00  0.00    +0.000 A 
ATOM     12  C   UNL     1       1.232   2.993  18.715  0.00  0.00    +0.000 A 
ATOM     13  F   UNL     1       0.072   2.539  19.210  0.00  0.00    +0.000 F 
ATOM     14  C   UNL     1       1.574   4.331  18.906  0.00  0.00    +0.000 A 
ATOM     15  C   UNL     1       2.814   4.768  18.405  0.00  0.00    +0.000 A 
ENDROOT
BRANCH   1  16
ATOM     16  C   UNL     1       2.945   7.143  19.218  0.00  0.00    +0.000 C 
BRANCH  16  17
ATOM     17  C   UNL     1       1.965   8.036  18.449  0.00  0.00    +0.000 C 
BRANCH  17  18
ATOM     18  O   UNL     1       2.564   8.445  17.204  0.00  0.00    +0.000 OA
ATOM     19  H   UNL     1       3.483   8.130  17.161  0.00  0.00    +0.000 HD
ENDBRANCH  17  18
BRANCH  17  20
ATOM     20  C   UNL     1       1.606   9.321  19.229  0.00  0.00    +0.000 C 
BRANCH  20  21
ATOM     21  N   UNL     1       0.238   9.401  19.825  0.00  0.00    +0.000 NA
BRANCH  21  22
ATOM     22  S   UNL     1       0.189   9.128  21.514  0.00  0.00    +0.000 S 
ATOM     23  C   UNL     1      -0.472  10.665  22.132  0.00  0.00    +0.000 C 
ATOM     24  O   UNL     1      -0.785   8.092  21.768  0.00  0.00    +0.000 OA
ATOM     25  O   UNL     1       1.561   8.997  21.952  0.00  0.00    +0.000 OA
ENDBRANCH  21  22
BRANCH  21  27
ATOM     26  C   UNL     1      -1.239  10.174  17.936  0.00  0.00    +0.000 C 
ATOM     27  C   UNL     1      -0.695  10.448  19.326  0.00  0.00    +0.000 C 
ENDBRANCH  21  27
ENDBRANCH  20  21
ENDBRANCH  17  20
ENDBRANCH  16  17
ENDBRANCH   1  16
TORSDOF 7
ENDMDL
MODEL 2
REMARK VINA RESULT:      -7.4      1.504      4.564
REMARK  Name = 
REMARK  9 active torsions:
REMARK  status: ('A' for Active; 'I' for Inactive)
REMARK    1  A    between atoms: C_1  and  C_2
REMARK    2  A    between atoms: C_2  and  N_3
REMARK    3  A    between atoms: N_3  and  C_4
REMARK    4  A    between atoms: N_3  and  S_23
REMARK    5  A    between atoms: C_4  and  C_5
REMARK    6  A    between atoms: C_5  and  O_6
REMARK    7  A    between atoms: C_5  and  C_7
REMARK    8  A    between atoms: C_7  and  N_8
REMARK    9  A    between atoms: S_23  and  C_24
REMARK                            x       y       z     vdW  Elec       q    Type
REMARK                         _______ _______ _______ _____ _____    ______ ____
ROOT
ATOM      1  N   UNL     1       3.291   6.004  17.989  0.00  0.00    +0.000 N 
ATOM      2  C   UNL     1       2.848   4.705  18.127  0.00  0.00    +0.000 A 
ATOM      3  C   UNL     1       1.553   4.186  18.287  0.00  0.00    +0.000 A 
ATOM      4  C   UNL     1       1.423   2.807  18.417  0.00  0.00    +0.000 A 
ATOM      5  F   UNL     1       0.196   2.285  18.567  0.00  0.00    +0.000 F 
ATOM      6  C   UNL     1       2.518   1.965  18.388  0.00  0.00    +0.000 A 
ATOM      7  C   UNL     1       3.801   2.487  18.215  0.00  0.00    +0.000 A 
ATOM      8  C   UNL     1       3.975   3.883  18.073  0.00  0.00    +0.000 A 
ATOM      9  C   UNL     1       5.110   4.722  17.838  0.00  0.00    +0.000 A 
ATOM     10  C   UNL     1       6.487   4.465  17.640  0.00  0.00    +0.000 A 
ATOM     11  C   UNL     1       7.361   5.527  17.384  0.00  0.00    +0.000 A 
ATOM     12  C   UNL     1       6.879   6.827  17.344  0.00  0.00    +0.000 A 
ATOM     13  F   UNL     1       7.732   7.829  17.084  0.00  0.00    +0.000 F 
ATOM     14  C   UNL     1       5.533   7.119  17.554  0.00  0.00    +0.000 A 
ATOM     15  C   UNL     1       4.657   6.043  17.790  0.00  0.00    +0.000 A 
ENDROOT
BRANCH   1  16
ATOM     16  C   UNL     1       2.407   7.156  17.885  0.00  0.00    +0.000 C 
BRANCH  16  17
ATOM     17  C   UNL     1       2.315   8.012  19.153  0.00  0.00    +0.000 C 
BRANCH  17  18
ATOM     18  O   UNL     1       2.151   7.154  20.300  0.00  0.00    +0.000 OA
ATOM     19  H   UNL     1       2.548   6.285  20.120  0.00  0.00    +0.000 HD
ENDBRANCH  17  18
BRANCH  17  20
ATOM     20  C   UNL     1       1.107   8.976  19.125  0.00  0.00    +0.000 C 
BRANCH  20  21
ATOM     21  N   UNL     1       0.908   9.859  20.315  0.00  0.00    +0.000 NA
BRANCH  21  22
ATOM     22  S   UNL     1       1.020  11.533  19.974  0.00  0.00    +0.000 S 
ATOM     23  C   UNL     1      -0.692  12.004  19.803  0.00  0.00    +0.000 C 
ATOM     24  O   UNL     1       1.546  12.190  21.148  0.00  0.00    +0.000 OA
ATOM     25  O   UNL     1       1.670  11.651  18.688  0.00  0.00    +0.000 OA
ENDBRANCH  21  22
BRANCH  21  27
ATOM     26  C   UNL     1       0.398   9.351  22.729  0.00  0.00    +0.000 C 
ATOM     27  C   UNL     1      -0.131   9.484  21.312  0.00  0.00    +0.000 C 
ENDBRANCH  21  27
ENDBRANCH  20  21
ENDBRANCH  17  20
ENDBRANCH  16  17
ENDBRANCH   1  16
TORSDOF 7
ENDMDL
MODEL 3
REMARK VINA RESULT:      -7.4      1.132      1.249
REMARK  Name = 
REMARK  9 active torsions:
REMARK  status: ('A' for Active; 'I' for Inactive)
REMARK    1  A    between atoms: C_1  and  C_2
REMARK    2  A    between atoms: C_2  and  N_3
REMARK    3  A    between atoms: N_3  and  C_4
REMARK    4  A    between atoms: N_3  and  S_23
REMARK    5  A    between atoms: C_4  and  C_5
REMARK    6  A    between atoms: C_5  and  O_6
REMARK    7  A    between atoms: C_5  and  C_7
REMARK    8  A    between atoms: C_7  and  N_8
REMARK    9  A    between atoms: S_23  and  C_24
REMARK                            x       y       z     vdW  Elec       q    Type
REMARK                         _______ _______ _______ _____ _____    ______ ____
ROOT
ATOM      1  N   UNL     1       3.122   5.945  17.845  0.00  0.00    +0.000 N 
ATOM      2  C   UNL     1       4.487   6.030  17.660  0.00  0.00    +0.000 A 
ATOM      3  C   UNL     1       5.328   7.145  17.519  0.00  0.00    +0.000 A 
ATOM      4  C   UNL     1       6.686   6.907  17.329  0.00  0.00    +0.000 A 
ATOM      5  F   UNL     1       7.513   7.955  17.195  0.00  0.00    +0.000 F 
ATOM      6  C   UNL     1       7.204   5.626  17.283  0.00  0.00    +0.000 A 
ATOM      7  C   UNL     1       6.362   4.524  17.439  0.00  0.00    +0.000 A 
ATOM      8  C   UNL     1       4.977   4.723  17.639  0.00  0.00    +0.000 A 
ATOM      9  C   UNL     1       3.873   3.844  17.876  0.00  0.00    +0.000 A 
ATOM     10  C   UNL     1       3.757   2.441  18.017  0.00  0.00    +0.000 A 
ATOM     11  C   UNL     1       2.509   1.872  18.294  0.00  0.00    +0.000 A 
ATOM     12  C   UNL     1       1.389   2.681  18.410  0.00  0.00    +0.000 A 
ATOM     13  F   UNL     1       0.205   2.117  18.688  0.00  0.00    +0.000 F 
ATOM     14  C   UNL     1       1.462   4.065  18.258  0.00  0.00    +0.000 A 
ATOM     15  C   UNL     1       2.725   4.631  18.001  0.00  0.00    +0.000 A 
ENDROOT
BRANCH   1  16
ATOM     16  C   UNL     1       2.255   7.099  18.031  0.00  0.00    +0.000 C 
BRANCH  16  17
ATOM     17  C   UNL     1       2.399   7.799  19.387  0.00  0.00    +0.000 C 
BRANCH  17  18
ATOM     18  O   UNL     1       1.770   7.000  20.409  0.00  0.00    +0.000 OA
ATOM     19  H   UNL     1       1.895   7.418  21.277  0.00  0.00    +0.000 HD
ENDBRANCH  17  18
BRANCH  17  20
ATOM     20  C   UNL     1       1.719   9.187  19.407  0.00  0.00    +0.000 C 
BRANCH  20  21
ATOM     21  N   UNL     1       0.535   9.357  20.302  0.00  0.00    +0.000 NA
BRANCH  21  22
ATOM     22  S   UNL     1       0.888  10.109  21.799  0.00  0.00    +0.000 S 
ATOM     23  C   UNL     1      -0.674  10.012  22.654  0.00  0.00    +0.000 C 
ATOM     24  O   UNL     1       1.833   9.273  22.503  0.00  0.00    +0.000 OA
ATOM     25  O   UNL     1       1.178  11.495  21.507  0.00  0.00    +0.000 OA
ENDBRANCH  21  22
BRANCH  21  27
ATOM     26  C   UNL     1      -0.635  10.540  18.410  0.00  0.00    +0.000 C 
ATOM     27  C   UNL     1      -0.768   9.740  19.693  0.00  0.00    +0.000 C 
ENDBRANCH  21  27
ENDBRANCH  20  21
ENDBRANCH  17  20
ENDBRANCH  16  17
ENDBRANCH   1  16
TORSDOF 7
ENDMDL
MODEL 4
REMARK VINA RESULT:      -7.4      1.097      4.258
REMARK  Name = 
REMARK  9 active torsions:
REMARK  status: ('A' for Active; 'I' for Inactive)
REMARK    1  A    between atoms: C_1  and  C_2
REMARK    2  A    between atoms: C_2  and  N_3
REMARK    3  A    between atoms: N_3  and  C_4
REMARK    4  A    between atoms: N_3  and  S_23
REMARK    5  A    between atoms: C_4  and  C_5
REMARK    6  A    between atoms: C_5  and  O_6
REMARK    7  A    between atoms: C_5  and  C_7
REMARK    8  A    between atoms: C_7  and  N_8
REMARK    9  A    between atoms: S_23  and  C_24
REMARK                            x       y       z     vdW  Elec       q    Type
REMARK                         _______ _______ _______ _____ _____    ______ ____
ROOT
ATOM      1  N   UNL     1       3.215   5.984  18.067  0.00  0.00    +0.000 N 
ATOM      2  C   UNL     1       2.788   4.675  18.155  0.00  0.00    +0.000 A 
ATOM      3  C   UNL     1       1.506   4.136  18.345  0.00  0.00    +0.000 A 
ATOM      4  C   UNL     1       1.391   2.751  18.406  0.00  0.00    +0.000 A 
ATOM      5  F   UNL     1       0.176   2.210  18.583  0.00  0.00    +0.000 F 
ATOM      6  C   UNL     1       2.490   1.921  18.281  0.00  0.00    +0.000 A 
ATOM      7  C   UNL     1       3.760   2.465  18.078  0.00  0.00    +0.000 A 
ATOM      8  C   UNL     1       3.917   3.868  18.005  0.00  0.00    +0.000 A 
ATOM      9  C   UNL     1       5.035   4.729  17.765  0.00  0.00    +0.000 A 
ATOM     10  C   UNL     1       6.402   4.496  17.490  0.00  0.00    +0.000 A 
ATOM     11  C   UNL     1       7.257   5.579  17.253  0.00  0.00    +0.000 A 
ATOM     12  C   UNL     1       6.764   6.874  17.305  0.00  0.00    +0.000 A 
ATOM     13  F   UNL     1       7.597   7.897  17.062  0.00  0.00    +0.000 F 
ATOM     14  C   UNL     1       5.427   7.142  17.592  0.00  0.00    +0.000 A 
ATOM     15  C   UNL     1       4.571   6.046  17.808  0.00  0.00    +0.000 A 
ENDROOT
BRANCH   1  16
ATOM     16  C   UNL     1       2.319   7.132  18.067  0.00  0.00    +0.000 C 
BRANCH  16  17
ATOM     17  C   UNL     1       2.268   7.907  19.387  0.00  0.00    +0.000 C 
BRANCH  17  18
ATOM     18  O   UNL     1       1.562   7.129  20.374  0.00  0.00    +0.000 OA
ATOM     19  H   UNL     1       0.765   7.606  20.661  0.00  0.00    +0.000 HD
ENDBRANCH  17  18
BRANCH  17  20
ATOM     20  C   UNL     1       1.525   9.255  19.249  0.00  0.00    +0.000 C 
BRANCH  20  21
ATOM     21  N   UNL     1       0.391   9.513  20.188  0.00  0.00    +0.000 NA
BRANCH  21  22
ATOM     22  S   UNL     1       0.839  10.335  21.621  0.00  0.00    +0.000 S 
ATOM     23  C   UNL     1      -0.729  10.557  22.442  0.00  0.00    +0.000 C 
ATOM     24  O   UNL     1       1.635   9.431  22.421  0.00  0.00    +0.000 OA
ATOM     25  O   UNL     1       1.345  11.627  21.216  0.00  0.00    +0.000 OA
ENDBRANCH  21  22
BRANCH  21  27
ATOM     26  C   UNL     1      -0.831  10.793  18.395  0.00  0.00    +0.000 C 
ATOM     27  C   UNL     1      -0.928   9.903  19.621  0.00  0.00    +0.000 C 
ENDBRANCH  21  27
ENDBRANCH  20  21
ENDBRANCH  17  20
ENDBRANCH  16  17
ENDBRANCH   1  16
TORSDOF 7
ENDMDL
MODEL 5
REMARK VINA RESULT:      -7.4      1.518      1.996
REMARK  Name = 
REMARK  9 active torsions:
REMARK  status: ('A' for Active; 'I' for Inactive)
REMARK    1  A    between atoms: C_1  and  C_2
REMARK    2  A    between atoms: C_2  and  N_3
REMARK    3  A    between atoms: N_3  and  C_4
REMARK    4  A    between atoms: N_3  and  S_23
REMARK    5  A    between atoms: C_4  and  C_5
REMARK    6  A    between atoms: C_5  and  O_6
REMARK    7  A    between atoms: C_5  and  C_7
REMARK    8  A    between atoms: C_7  and  N_8
REMARK    9  A    between atoms: S_23  and  C_24
REMARK                            x       y       z     vdW  Elec       q    Type
REMARK                         _______ _______ _______ _____ _____    ______ ____
ROOT
ATOM      1  N   UNL     1       3.192   6.001  17.790  0.00  0.00    +0.000 N 
ATOM      2  C   UNL     1       4.562   6.072  17.641  0.00  0.00    +0.000 A 
ATOM      3  C   UNL     1       5.417   7.177  17.502  0.00  0.00    +0.000 A 
ATOM      4  C   UNL     1       6.777   6.925  17.352  0.00  0.00    +0.000 A 
ATOM      5  F   UNL     1       7.616   7.965  17.222  0.00  0.00    +0.000 F 
ATOM      6  C   UNL     1       7.284   5.640  17.343  0.00  0.00    +0.000 A 
ATOM      7  C   UNL     1       6.429   4.547  17.496  0.00  0.00    +0.000 A 
ATOM      8  C   UNL     1       5.042   4.761  17.656  0.00  0.00    +0.000 A 
ATOM      9  C   UNL     1       3.924   3.895  17.879  0.00  0.00    +0.000 A 
ATOM     10  C   UNL     1       3.793   2.497  18.041  0.00  0.00    +0.000 A 
ATOM     11  C   UNL     1       2.533   1.942  18.295  0.00  0.00    +0.000 A 
ATOM     12  C   UNL     1       1.417   2.763  18.367  0.00  0.00    +0.000 A 
ATOM     13  F   UNL     1       0.221   2.213  18.623  0.00  0.00    +0.000 F 
ATOM     14  C   UNL     1       1.506   4.143  18.192  0.00  0.00    +0.000 A 
ATOM     15  C   UNL     1       2.780   4.693  17.959  0.00  0.00    +0.000 A 
ENDROOT
BRANCH   1  16
ATOM     16  C   UNL     1       2.330   7.166  17.933  0.00  0.00    +0.000 C 
BRANCH  16  17
ATOM     17  C   UNL     1       2.352   7.815  19.321  0.00  0.00    +0.000 C 
BRANCH  17  18
ATOM     18  O   UNL     1       2.247   6.791  20.331  0.00  0.00    +0.000 OA
ATOM     19  H   UNL     1       1.600   7.058  21.004  0.00  0.00    +0.000 HD
ENDBRANCH  17  18
BRANCH  17  20
ATOM     20  C   UNL     1       1.171   8.789  19.532  0.00  0.00    +0.000 C 
BRANCH  20  21
ATOM     21  N   UNL     1       1.290   9.779  20.646  0.00  0.00    +0.000 NA
BRANCH  21  22
ATOM     22  S   UNL     1       0.848  11.376  20.217  0.00  0.00    +0.000 S 
ATOM     23  C   UNL     1      -0.824  11.167  19.632  0.00  0.00    +0.000 C 
ATOM     24  O   UNL     1       0.798  12.162  21.429  0.00  0.00    +0.000 OA
ATOM     25  O   UNL     1       1.691  11.756  19.107  0.00  0.00    +0.000 OA
ENDBRANCH  21  22
BRANCH  21  27
ATOM     26  C   UNL     1      -0.412   8.582  22.066  0.00  0.00    +0.000 C 
ATOM     27  C   UNL     1       0.892   9.358  22.017  0.00  0.00    +0.000 C 
ENDBRANCH  21  27
ENDBRANCH  20  21
ENDBRANCH  17  20
ENDBRANCH  16  17
ENDBRANCH   1  16
TORSDOF 7
ENDMDL
MODEL 6
REMARK VINA RESULT:      -7.3      3.884      6.394
REMARK  Name = 
REMARK  9 active torsions:
REMARK  status: ('A' for Active; 'I' for Inactive)
REMARK    1  A    between atoms: C_1  and  C_2
REMARK    2  A    between atoms: C_2  and  N_3
REMARK    3  A    between atoms: N_3  and  C_4
REMARK    4  A    between atoms: N_3  and  S_23
REMARK    5  A    between atoms: C_4  and  C_5
REMARK    6  A    between atoms: C_5  and  O_6
REMARK    7  A    between atoms: C_5  and  C_7
REMARK    8  A    between atoms: C_7  and  N_8
REMARK    9  A    between atoms: S_23  and  C_24
REMARK                            x       y       z     vdW  Elec       q    Type
REMARK                         _______ _______ _______ _____ _____    ______ ____
ROOT
ATOM      1  N   UNL     1       3.081   6.140  18.320  0.00  0.00    +0.000 N 
ATOM      2  C   UNL     1       2.398   7.207  18.866  0.00  0.00    +0.000 A 
ATOM      3  C   UNL     1       2.120   8.483  18.350  0.00  0.00    +0.000 A 
ATOM      4  C   UNL     1       1.409   9.365  19.159  0.00  0.00    +0.000 A 
ATOM      5  F   UNL     1       1.127  10.589  18.688  0.00  0.00    +0.000 F 
ATOM      6  C   UNL     1       0.982   9.011  20.424  0.00  0.00    +0.000 A 
ATOM      7  C   UNL     1       1.250   7.735  20.924  0.00  0.00    +0.000 A 
ATOM      8  C   UNL     1       1.965   6.809  20.132  0.00  0.00    +0.000 A 
ATOM      9  C   UNL     1       2.356   5.444  20.312  0.00  0.00    +0.000 A 
ATOM     10  C   UNL     1       2.157   4.502  21.348  0.00  0.00    +0.000 A 
ATOM     11  C   UNL     1       2.640   3.197  21.202  0.00  0.00    +0.000 A 
ATOM     12  C   UNL     1       3.328   2.838  20.053  0.00  0.00    +0.000 A 
ATOM     13  F   UNL     1       3.772   1.579  19.928  0.00  0.00    +0.000 F 
ATOM     14  C   UNL     1       3.561   3.745  19.021  0.00  0.00    +0.000 A 
ATOM     15  C   UNL     1       3.052   5.049  19.167  0.00  0.00    +0.000 A 
ENDROOT
BRANCH   1  16
ATOM     16  C   UNL     1       3.599   6.118  16.959  0.00  0.00    +0.000 C 
BRANCH  16  17
ATOM     17  C   UNL     1       4.649   7.192  16.655  0.00  0.00    +0.000 C 
BRANCH  17  18
ATOM     18  O   UNL     1       4.995   7.141  15.256  0.00  0.00    +0.000 OA
ATOM     19  H   UNL     1       5.594   6.393  15.092  0.00  0.00    +0.000 HD
ENDBRANCH  17  18
BRANCH  17  20
ATOM     20  C   UNL     1       5.953   6.983  17.458  0.00  0.00    +0.000 C 
BRANCH  20  21
ATOM     21  N   UNL     1       6.361   5.574  17.747  0.00  0.00    +0.000 NA
BRANCH  21  22
ATOM     22  S   UNL     1       7.227   4.819  16.479  0.00  0.00    +0.000 S 
ATOM     23  C   UNL     1       5.995   3.751  15.757  0.00  0.00    +0.000 C 
ATOM     24  O   UNL     1       7.561   5.833  15.505  0.00  0.00    +0.000 OA
ATOM     25  O   UNL     1       8.247   4.006  17.101  0.00  0.00    +0.000 OA
ENDBRANCH  21  22
BRANCH  21  27
ATOM     26  C   UNL     1       8.035   6.035  19.573  0.00  0.00    +0.000 C 
ATOM     27  C   UNL     1       6.826   5.237  19.120  0.00  0.00    +0.000 C 
ENDBRANCH  21  27
ENDBRANCH  20  21
ENDBRANCH  17  20
ENDBRANCH  16  17
ENDBRANCH   1  16
TORSDOF 7
ENDMDL
MODEL 7
REMARK VINA RESULT:      -7.2      1.423      4.385
REMARK  Name = 
REMARK  9 active torsions:
REMARK  status: ('A' for Active; 'I' for Inactive)
REMARK    1  A    between atoms: C_1  and  C_2
REMARK    2  A    between atoms: C_2  and  N_3
REMARK    3  A    between atoms: N_3  and  C_4
REMARK    4  A    between atoms: N_3  and  S_23
REMARK    5  A    between atoms: C_4  and  C_5
REMARK    6  A    between atoms: C_5  and  O_6
REMARK    7  A    between atoms: C_5  and  C_7
REMARK    8  A    between atoms: C_7  and  N_8
REMARK    9  A    between atoms: S_23  and  C_24
REMARK                            x       y       z     vdW  Elec       q    Type
REMARK                         _______ _______ _______ _____ _____    ______ ____
ROOT
ATOM      1  N   UNL     1       3.259   6.115  17.870  0.00  0.00    +0.000 N 
ATOM      2  C   UNL     1       2.832   4.829  18.130  0.00  0.00    +0.000 A 
ATOM      3  C   UNL     1       1.538   4.293  18.237  0.00  0.00    +0.000 A 
ATOM      4  C   UNL     1       1.425   2.937  18.526  0.00  0.00    +0.000 A 
ATOM      5  F   UNL     1       0.200   2.399  18.629  0.00  0.00    +0.000 F 
ATOM      6  C   UNL     1       2.535   2.133  18.701  0.00  0.00    +0.000 A 
ATOM      7  C   UNL     1       3.817   2.671  18.579  0.00  0.00    +0.000 A 
ATOM      8  C   UNL     1       3.975   4.043  18.280  0.00  0.00    +0.000 A 
ATOM      9  C   UNL     1       5.110   4.883  18.044  0.00  0.00    +0.000 A 
ATOM     10  C   UNL     1       6.504   4.647  18.004  0.00  0.00    +0.000 A 
ATOM     11  C   UNL     1       7.377   5.696  17.696  0.00  0.00    +0.000 A 
ATOM     12  C   UNL     1       6.874   6.966  17.451  0.00  0.00    +0.000 A 
ATOM     13  F   UNL     1       7.727   7.955  17.145  0.00  0.00    +0.000 F 
ATOM     14  C   UNL     1       5.509   7.239  17.502  0.00  0.00    +0.000 A 
ATOM     15  C   UNL     1       4.637   6.172  17.790  0.00  0.00    +0.000 A 
ENDROOT
BRANCH   1  16
ATOM     16  C   UNL     1       2.365   7.217  17.544  0.00  0.00    +0.000 C 
BRANCH  16  17
ATOM     17  C   UNL     1       2.294   8.322  18.604  0.00  0.00    +0.000 C 
BRANCH  17  18
ATOM     18  O   UNL     1       1.785   7.774  19.836  0.00  0.00    +0.000 OA
ATOM     19  H   UNL     1       1.051   8.321  20.161  0.00  0.00    +0.000 HD
ENDBRANCH  17  18
BRANCH  17  20
ATOM     20  C   UNL     1       1.351   9.474  18.190  0.00  0.00    +0.000 C 
BRANCH  20  21
ATOM     21  N   UNL     1       0.396   9.982  19.221  0.00  0.00    +0.000 NA
BRANCH  21  22
ATOM     22  S   UNL     1       0.943  11.368  20.064  0.00  0.00    +0.000 S 
ATOM     23  C   UNL     1      -0.535  12.361  20.170  0.00  0.00    +0.000 C 
ATOM     24  O   UNL     1       1.300  10.959  21.404  0.00  0.00    +0.000 OA
ATOM     25  O   UNL     1       1.894  12.030  19.199  0.00  0.00    +0.000 OA
ENDBRANCH  21  22
BRANCH  21  27
ATOM     26  C   UNL     1      -1.373   9.953  17.427  0.00  0.00    +0.000 C 
ATOM     27  C   UNL     1      -1.060   9.963  18.913  0.00  0.00    +0.000 C 
ENDBRANCH  21  27
ENDBRANCH  20  21
ENDBRANCH  17  20
ENDBRANCH  16  17
ENDBRANCH   1  16
TORSDOF 7
ENDMDL
MODEL 8
REMARK VINA RESULT:      -7.2      0.874      1.084
REMARK  Name = 
REMARK  9 active torsions:
REMARK  status: ('A' for Active; 'I' for Inactive)
REMARK    1  A    between atoms: C_1  and  C_2
REMARK    2  A    between atoms: C_2  and  N_3
REMARK    3  A    between atoms: N_3  and  C_4
REMARK    4  A    between atoms: N_3  and  S_23
REMARK    5  A    between atoms: C_4  and  C_5
REMARK    6  A    between atoms: C_5  and  O_6
REMARK    7  A    between atoms: C_5  and  C_7
REMARK    8  A    between atoms: C_7  and  N_8
REMARK    9  A    between atoms: S_23  and  C_24
REMARK                            x       y       z     vdW  Elec       q    Type
REMARK                         _______ _______ _______ _____ _____    ______ ____
ROOT
ATOM      1  N   UNL     1       3.443   5.989  18.441  0.00  0.00    +0.000 N 
ATOM      2  C   UNL     1       4.691   5.937  17.856  0.00  0.00    +0.000 A 
ATOM      3  C   UNL     1       5.693   6.913  17.739  0.00  0.00    +0.000 A 
ATOM      4  C   UNL     1       6.861   6.561  17.069  0.00  0.00    +0.000 A 
ATOM      5  F   UNL     1       7.836   7.474  16.947  0.00  0.00    +0.000 F 
ATOM      6  C   UNL     1       7.044   5.299  16.536  0.00  0.00    +0.000 A 
ATOM      7  C   UNL     1       6.048   4.330  16.669  0.00  0.00    +0.000 A 
ATOM      8  C   UNL     1       4.850   4.646  17.348  0.00  0.00    +0.000 A 
ATOM      9  C   UNL     1       3.680   3.899  17.696  0.00  0.00    +0.000 A 
ATOM     10  C   UNL     1       3.292   2.552  17.506  0.00  0.00    +0.000 A 
ATOM     11  C   UNL     1       2.069   2.103  18.016  0.00  0.00    +0.000 A 
ATOM     12  C   UNL     1       1.234   2.983  18.687  0.00  0.00    +0.000 A 
ATOM     13  F   UNL     1       0.071   2.530  19.178  0.00  0.00    +0.000 F 
ATOM     14  C   UNL     1       1.573   4.322  18.875  0.00  0.00    +0.000 A 
ATOM     15  C   UNL     1       2.816   4.759  18.378  0.00  0.00    +0.000 A 
ENDROOT
BRANCH   1  16
ATOM     16  C   UNL     1       2.940   7.137  19.182  0.00  0.00    +0.000 C 
BRANCH  16  17
ATOM     17  C   UNL     1       1.999   8.050  18.391  0.00  0.00    +0.000 C 
BRANCH  17  18
ATOM     18  O   UNL     1       2.573   8.326  17.097  0.00  0.00    +0.000 OA
ATOM     19  H   UNL     1       2.031   7.915  16.403  0.00  0.00    +0.000 HD
ENDBRANCH  17  18
BRANCH  17  20
ATOM     20  C   UNL     1       1.772   9.409  19.091  0.00  0.00    +0.000 C 
BRANCH  20  21
ATOM     21  N   UNL     1       0.359   9.811  19.367  0.00  0.00    +0.000 NA
BRANCH  21  22
ATOM     22  S   UNL     1       0.044  10.195  21.005  0.00  0.00    +0.000 S 
ATOM     23  C   UNL     1      -0.397   8.609  21.692  0.00  0.00    +0.000 C 
ATOM     24  O   UNL     1       1.289  10.610  21.610  0.00  0.00    +0.000 OA
ATOM     25  O   UNL     1      -1.121  11.051  21.013  0.00  0.00    +0.000 OA
ENDBRANCH  21  22
BRANCH  21  27
ATOM     26  C   UNL     1      -1.450   9.946  17.618  0.00  0.00    +0.000 C 
ATOM     27  C   UNL     1      -0.344  10.664  18.370  0.00  0.00    +0.000 C 
ENDBRANCH  21  27
ENDBRANCH  20  21
ENDBRANCH  17  20
ENDBRANCH  16  17
ENDBRANCH   1  16
TORSDOF 7
ENDMDL
MODEL 9
REMARK VINA RESULT:      -7.2      1.702      1.972
REMARK  Name = 
REMARK  9 active torsions:
REMARK  status: ('A' for Active; 'I' for Inactive)
REMARK    1  A    between atoms: C_1  and  C_2
REMARK    2  A    between atoms: C_2  and  N_3
REMARK    3  A    between atoms: N_3  and  C_4
REMARK    4  A    between atoms: N_3  and  S_23
REMARK    5  A    between atoms: C_4  and  C_5
REMARK    6  A    between atoms: C_5  and  O_6
REMARK    7  A    between atoms: C_5  and  C_7
REMARK    8  A    between atoms: C_7  and  N_8
REMARK    9  A    between atoms: S_23  and  C_24
REMARK                            x       y       z     vdW  Elec       q    Type
REMARK                         _______ _______ _______ _____ _____    ______ ____
ROOT
ATOM      1  N   UNL     1       3.401   6.051  18.283  0.00  0.00    +0.000 N 
ATOM      2  C   UNL     1       4.692   6.029  17.797  0.00  0.00    +0.000 A 
ATOM      3  C   UNL     1       5.654   7.047  17.698  0.00  0.00    +0.000 A 
ATOM      4  C   UNL     1       6.886   6.717  17.140  0.00  0.00    +0.000 A 
ATOM      5  F   UNL     1       7.825   7.670  17.038  0.00  0.00    +0.000 F 
ATOM      6  C   UNL     1       7.168   5.438  16.699  0.00  0.00    +0.000 A 
ATOM      7  C   UNL     1       6.210   4.429  16.814  0.00  0.00    +0.000 A 
ATOM      8  C   UNL     1       4.949   4.722  17.380  0.00  0.00    +0.000 A 
ATOM      9  C   UNL     1       3.790   3.938  17.683  0.00  0.00    +0.000 A 
ATOM     10  C   UNL     1       3.481   2.564  17.545  0.00  0.00    +0.000 A 
ATOM     11  C   UNL     1       2.243   2.084  17.986  0.00  0.00    +0.000 A 
ATOM     12  C   UNL     1       1.319   2.957  18.540  0.00  0.00    +0.000 A 
ATOM     13  F   UNL     1       0.143   2.474  18.968  0.00  0.00    +0.000 F 
ATOM     14  C   UNL     1       1.581   4.319  18.673  0.00  0.00    +0.000 A 
ATOM     15  C   UNL     1       2.837   4.790  18.246  0.00  0.00    +0.000 A 
ENDROOT
BRANCH   1  16
ATOM     16  C   UNL     1       2.790   7.212  18.914  0.00  0.00    +0.000 C 
BRANCH  16  17
ATOM     17  C   UNL     1       1.963   8.095  17.973  0.00  0.00    +0.000 C 
BRANCH  17  18
ATOM     18  O   UNL     1       2.821   9.080  17.363  0.00  0.00    +0.000 OA
ATOM     19  H   UNL     1       3.493   8.638  16.818  0.00  0.00    +0.000 HD
ENDBRANCH  17  18
BRANCH  17  20
ATOM     20  C   UNL     1       0.843   8.858  18.716  0.00  0.00    +0.000 C 
BRANCH  20  21
ATOM     21  N   UNL     1       1.262   9.903  19.699  0.00  0.00    +0.000 NA
BRANCH  21  22
ATOM     22  S   UNL     1       1.022  11.510  19.161  0.00  0.00    +0.000 S 
ATOM     23  C   UNL     1       1.048  12.433  20.687  0.00  0.00    +0.000 C 
ATOM     24  O   UNL     1       2.181  11.897  18.388  0.00  0.00    +0.000 OA
ATOM     25  O   UNL     1      -0.310  11.565  18.601  0.00  0.00    +0.000 OA
ENDBRANCH  21  22
BRANCH  21  27
ATOM     26  C   UNL     1      -0.194   8.756  21.405  0.00  0.00    +0.000 C 
ATOM     27  C   UNL     1       0.988   9.672  21.143  0.00  0.00    +0.000 C 
ENDBRANCH  21  27
ENDBRANCH  20  21
ENDBRANCH  17  20
ENDBRANCH  16  17
ENDBRANCH   1  16
TORSDOF 7
ENDMDL
