MODEL 1
REMARK VINA RESULT:      -6.8      0.000      0.000
REMARK  Name = 
REMARK  3 active torsions:
REMARK  status: ('A' for Active; 'I' for Inactive)
REMARK    1  A    between atoms: C_1  and  O_2
REMARK    2  A    between atoms: O_2  and  C_3
REMARK    3  A    between atoms: C_6  and  C_7
REMARK                            x       y       z     vdW  Elec       q    Type
REMARK                         _______ _______ _______ _____ _____    ______ ____
ROOT
ATOM      1  C   UNL     1       7.008   7.107  17.573  0.00  0.00    +0.000 A 
ATOM      2  C   UNL     1       5.779   7.082  16.909  0.00  0.00    +0.000 A 
ATOM      3  C   UNL     1       4.830   6.102  17.196  0.00  0.00    +0.000 A 
ATOM      4  C   UNL     1       5.073   5.120  18.173  0.00  0.00    +0.000 A 
ATOM      5  C   UNL     1       6.302   5.153  18.860  0.00  0.00    +0.000 A 
ATOM      6  C   UNL     1       7.269   6.126  18.559  0.00  0.00    +0.000 A 
ATOM      7  F   UNL     1       8.451   6.086  19.224  0.00  0.00    +0.000 F 
ENDROOT
BRANCH   4   8
ATOM      8  C   UNL     1       4.061   4.048  18.436  0.00  0.00    +0.000 C 
ATOM      9  C   UNL     1       3.936   2.944  17.672  0.00  0.00    +0.000 C 
ATOM     10  S   UNL     1       2.665   1.755  18.194  0.00  0.00    +0.000 S 
ATOM     11  C   UNL     1       2.239   3.002  19.379  0.00  0.00    +0.000 C 
ATOM     12  N   UNL     1       1.116   3.182  19.950  0.00  0.00    +0.000 NA
ATOM     13  C   UNL     1       1.115   4.485  20.586  0.00  0.00    +0.000 C 
ATOM     14  C   UNL     1       2.504   5.104  20.250  0.00  0.00    +0.000 C 
ATOM     15  N   UNL     1       3.112   4.052  19.483  0.00  0.00    +0.000 N 
ENDBRANCH   4   8
BRANCH   1  17
ATOM     16  C   UNL     1       8.248   9.190  17.953  0.00  0.00    +0.000 C 
ATOM     17  O   UNL     1       7.885   8.084  17.217  0.00  0.00    +0.000 OA
ENDBRANCH   1  17
TORSDOF 2
ENDMDL
MODEL 2
REMARK VINA RESULT:      -6.7      2.294      2.774
REMARK  Name = 
REMARK  3 active torsions:
REMARK  status: ('A' for Active; 'I' for Inactive)
REMARK    1  A    between atoms: C_1  and  O_2
REMARK    2  A    between atoms: O_2  and  C_3
REMARK    3  A    between atoms: C_6  and  C_7
REMARK                            x       y       z     vdW  Elec       q    Type
REMARK                         _______ _______ _______ _____ _____    ______ ____
ROOT
ATOM      1  C   UNL     1       6.818   5.226  15.854  0.00  0.00    +0.000 A 
ATOM      2  C   UNL     1       5.558   5.730  15.519  0.00  0.00    +0.000 A 
ATOM      3  C   UNL     1       4.495   5.656  16.417  0.00  0.00    +0.000 A 
ATOM      4  C   UNL     1       4.660   5.088  17.693  0.00  0.00    +0.000 A 
ATOM      5  C   UNL     1       5.933   4.598  18.044  0.00  0.00    +0.000 A 
ATOM      6  C   UNL     1       7.002   4.652  17.134  0.00  0.00    +0.000 A 
ATOM      7  F   UNL     1       8.195   4.128  17.511  0.00  0.00    +0.000 F 
ENDROOT
BRANCH   4   8
ATOM      8  C   UNL     1       3.497   4.976  18.628  0.00  0.00    +0.000 C 
ATOM      9  C   UNL     1       3.359   5.736  19.734  0.00  0.00    +0.000 C 
ATOM     10  S   UNL     1       1.851   5.458  20.708  0.00  0.00    +0.000 S 
ATOM     11  C   UNL     1       1.583   4.118  19.579  0.00  0.00    +0.000 C 
ATOM     12  N   UNL     1       0.901   3.061  19.774  0.00  0.00    +0.000 NA
ATOM     13  C   UNL     1       1.209   2.104  18.729  0.00  0.00    +0.000 C 
ATOM     14  C   UNL     1       2.282   2.801  17.841  0.00  0.00    +0.000 C 
ATOM     15  N   UNL     1       2.419   4.072  18.495  0.00  0.00    +0.000 N 
ENDBRANCH   4   8
BRANCH   1  17
ATOM     16  C   UNL     1       7.662   5.133  13.552  0.00  0.00    +0.000 C 
ATOM     17  O   UNL     1       7.793   5.319  14.911  0.00  0.00    +0.000 OA
ENDBRANCH   1  17
TORSDOF 2
ENDMDL
MODEL 3
REMARK VINA RESULT:      -6.5      2.349      2.818
REMARK  Name = 
REMARK  3 active torsions:
REMARK  status: ('A' for Active; 'I' for Inactive)
REMARK    1  A    between atoms: C_1  and  O_2
REMARK    2  A    between atoms: O_2  and  C_3
REMARK    3  A    between atoms: C_6  and  C_7
REMARK                            x       y       z     vdW  Elec       q    Type
REMARK                         _______ _______ _______ _____ _____    ______ ____
ROOT
ATOM      1  C   UNL     1       6.662   5.394  16.053  0.00  0.00    +0.000 A 
ATOM      2  C   UNL     1       5.408   5.964  15.820  0.00  0.00    +0.000 A 
ATOM      3  C   UNL     1       4.419   5.945  16.801  0.00  0.00    +0.000 A 
ATOM      4  C   UNL     1       4.657   5.367  18.062  0.00  0.00    +0.000 A 
ATOM      5  C   UNL     1       5.926   4.811  18.310  0.00  0.00    +0.000 A 
ATOM      6  C   UNL     1       6.919   4.810  17.316  0.00  0.00    +0.000 A 
ATOM      7  F   UNL     1       8.110   4.224  17.596  0.00  0.00    +0.000 F 
ENDROOT
BRANCH   4   8
ATOM      8  C   UNL     1       3.569   5.315  19.088  0.00  0.00    +0.000 C 
ATOM      9  C   UNL     1       2.921   6.410  19.537  0.00  0.00    +0.000 C 
ATOM     10  S   UNL     1       1.610   6.113  20.759  0.00  0.00    +0.000 S 
ATOM     11  C   UNL     1       2.190   4.439  20.711  0.00  0.00    +0.000 C 
ATOM     12  N   UNL     1       2.082   3.551  21.618  0.00  0.00    +0.000 NA
ATOM     13  C   UNL     1       2.963   2.445  21.298  0.00  0.00    +0.000 C 
ATOM     14  C   UNL     1       3.684   2.862  19.983  0.00  0.00    +0.000 C 
ATOM     15  N   UNL     1       3.093   4.147  19.724  0.00  0.00    +0.000 N 
ENDBRANCH   4   8
BRANCH   1  17
ATOM     16  C   UNL     1       7.428   4.886  13.778  0.00  0.00    +0.000 C 
ATOM     17  O   UNL     1       7.561   5.438  15.034  0.00  0.00    +0.000 OA
ENDBRANCH   1  17
TORSDOF 2
ENDMDL
MODEL 4
REMARK VINA RESULT:      -6.5      2.192      2.384
REMARK  Name = 
REMARK  3 active torsions:
REMARK  status: ('A' for Active; 'I' for Inactive)
REMARK    1  A    between atoms: C_1  and  O_2
REMARK    2  A    between atoms: O_2  and  C_3
REMARK    3  A    between atoms: C_6  and  C_7
REMARK                            x       y       z     vdW  Elec       q    Type
REMARK                         _______ _______ _______ _____ _____    ______ ____
ROOT
ATOM      1  C   UNL     1       6.798   4.931  15.632  0.00  0.00    +0.000 A 
ATOM      2  C   UNL     1       5.495   4.980  15.131  0.00  0.00    +0.000 A 
ATOM      3  C   UNL     1       4.411   4.584  15.913  0.00  0.00    +0.000 A 
ATOM      4  C   UNL     1       4.593   4.140  17.235  0.00  0.00    +0.000 A 
ATOM      5  C   UNL     1       5.902   4.109  17.753  0.00  0.00    +0.000 A 
ATOM      6  C   UNL     1       6.999   4.488  16.961  0.00  0.00    +0.000 A 
ATOM      7  F   UNL     1       8.242   4.400  17.498  0.00  0.00    +0.000 F 
ENDROOT
BRANCH   4   8
ATOM      8  C   UNL     1       3.423   3.676  18.046  0.00  0.00    +0.000 C 
ATOM      9  C   UNL     1       2.649   2.628  17.696  0.00  0.00    +0.000 C 
ATOM     10  S   UNL     1       1.303   2.216  18.844  0.00  0.00    +0.000 S 
ATOM     11  C   UNL     1       1.799   3.699  19.678  0.00  0.00    +0.000 C 
ATOM     12  N   UNL     1       1.092   4.441  20.433  0.00  0.00    +0.000 NA
ATOM     13  C   UNL     1       1.785   5.698  20.638  0.00  0.00    +0.000 C 
ATOM     14  C   UNL     1       3.092   5.586  19.798  0.00  0.00    +0.000 C 
ATOM     15  N   UNL     1       2.970   4.264  19.247  0.00  0.00    +0.000 N 
ENDBRANCH   4   8
BRANCH   1  17
ATOM     16  C   UNL     1       7.833   5.193  13.423  0.00  0.00    +0.000 C 
ATOM     17  O   UNL     1       7.798   5.315  14.795  0.00  0.00    +0.000 OA
ENDBRANCH   1  17
TORSDOF 2
ENDMDL
MODEL 5
REMARK VINA RESULT:      -6.4      3.788      5.964
REMARK  Name = 
REMARK  3 active torsions:
REMARK  status: ('A' for Active; 'I' for Inactive)
REMARK    1  A    between atoms: C_1  and  O_2
REMARK    2  A    between atoms: O_2  and  C_3
REMARK    3  A    between atoms: C_6  and  C_7
REMARK                            x       y       z     vdW  Elec       q    Type
REMARK                         _______ _______ _______ _____ _____    ______ ____
ROOT
ATOM      1  C   UNL     1       2.261   2.793  19.630  0.00  0.00    +0.000 A 
ATOM      2  C   UNL     1       1.848   3.388  18.435  0.00  0.00    +0.000 A 
ATOM      3  C   UNL     1       2.779   3.870  17.516  0.00  0.00    +0.000 A 
ATOM      4  C   UNL     1       4.161   3.757  17.755  0.00  0.00    +0.000 A 
ATOM      5  C   UNL     1       4.582   3.138  18.947  0.00  0.00    +0.000 A 
ATOM      6  C   UNL     1       3.647   2.670  19.885  0.00  0.00    +0.000 A 
ATOM      7  F   UNL     1       4.110   2.118  21.035  0.00  0.00    +0.000 F 
ENDROOT
BRANCH   4   8
ATOM      8  C   UNL     1       5.146   4.320  16.778  0.00  0.00    +0.000 C 
ATOM      9  C   UNL     1       5.501   3.692  15.639  0.00  0.00    +0.000 C 
ATOM     10  S   UNL     1       6.687   4.573  14.581  0.00  0.00    +0.000 S 
ATOM     11  C   UNL     1       6.765   5.720  15.930  0.00  0.00    +0.000 C 
ATOM     12  N   UNL     1       7.720   6.508  16.227  0.00  0.00    +0.000 NA
ATOM     13  C   UNL     1       7.504   7.024  17.565  0.00  0.00    +0.000 C 
ATOM     14  C   UNL     1       6.194   6.342  18.059  0.00  0.00    +0.000 C 
ATOM     15  N   UNL     1       5.834   5.546  16.919  0.00  0.00    +0.000 N 
ENDBRANCH   4   8
BRANCH   1  17
ATOM     16  C   UNL     1       1.185   2.629  21.829  0.00  0.00    +0.000 C 
ATOM     17  O   UNL     1       1.287   2.370  20.479  0.00  0.00    +0.000 OA
ENDBRANCH   1  17
TORSDOF 2
ENDMDL
MODEL 6
REMARK VINA RESULT:      -6.4      4.045      6.238
REMARK  Name = 
REMARK  3 active torsions:
REMARK  status: ('A' for Active; 'I' for Inactive)
REMARK    1  A    between atoms: C_1  and  O_2
REMARK    2  A    between atoms: O_2  and  C_3
REMARK    3  A    between atoms: C_6  and  C_7
REMARK                            x       y       z     vdW  Elec       q    Type
REMARK                         _______ _______ _______ _____ _____    ______ ____
ROOT
ATOM      1  C   UNL     1       2.299   2.704  19.707  0.00  0.00    +0.000 A 
ATOM      2  C   UNL     1       3.661   2.769  20.011  0.00  0.00    +0.000 A 
ATOM      3  C   UNL     1       4.573   3.302  19.102  0.00  0.00    +0.000 A 
ATOM      4  C   UNL     1       4.150   3.807  17.860  0.00  0.00    +0.000 A 
ATOM      5  C   UNL     1       2.775   3.764  17.557  0.00  0.00    +0.000 A 
ATOM      6  C   UNL     1       1.856   3.208  18.462  0.00  0.00    +0.000 A 
ATOM      7  F   UNL     1       0.549   3.156  18.101  0.00  0.00    +0.000 F 
ENDROOT
BRANCH   4   8
ATOM      8  C   UNL     1       5.148   4.336  16.877  0.00  0.00    +0.000 C 
ATOM      9  C   UNL     1       5.519   3.667  15.767  0.00  0.00    +0.000 C 
ATOM     10  S   UNL     1       6.719   4.510  14.694  0.00  0.00    +0.000 S 
ATOM     11  C   UNL     1       6.778   5.706  16.000  0.00  0.00    +0.000 C 
ATOM     12  N   UNL     1       7.728   6.505  16.281  0.00  0.00    +0.000 NA
ATOM     13  C   UNL     1       7.493   7.069  17.597  0.00  0.00    +0.000 C 
ATOM     14  C   UNL     1       6.177   6.405  18.097  0.00  0.00    +0.000 C 
ATOM     15  N   UNL     1       5.833   5.567  16.982  0.00  0.00    +0.000 N 
ENDBRANCH   4   8
BRANCH   1  17
ATOM     16  C   UNL     1       1.369   2.501  21.969  0.00  0.00    +0.000 C 
ATOM     17  O   UNL     1       1.482   2.149  20.641  0.00  0.00    +0.000 OA
ENDBRANCH   1  17
TORSDOF 2
ENDMDL
MODEL 7
REMARK VINA RESULT:      -6.3      2.675      3.144
REMARK  Name = 
REMARK  3 active torsions:
REMARK  status: ('A' for Active; 'I' for Inactive)
REMARK    1  A    between atoms: C_1  and  O_2
REMARK    2  A    between atoms: O_2  and  C_3
REMARK    3  A    between atoms: C_6  and  C_7
REMARK                            x       y       z     vdW  Elec       q    Type
REMARK                         _______ _______ _______ _____ _____    ______ ____
ROOT
ATOM      1  C   UNL     1       6.841   5.029  15.539  0.00  0.00    +0.000 A 
ATOM      2  C   UNL     1       7.270   5.187  16.860  0.00  0.00    +0.000 A 
ATOM      3  C   UNL     1       6.437   4.860  17.928  0.00  0.00    +0.000 A 
ATOM      4  C   UNL     1       5.146   4.344  17.711  0.00  0.00    +0.000 A 
ATOM      5  C   UNL     1       4.717   4.162  16.382  0.00  0.00    +0.000 A 
ATOM      6  C   UNL     1       5.546   4.511  15.303  0.00  0.00    +0.000 A 
ATOM      7  F   UNL     1       5.065   4.352  14.044  0.00  0.00    +0.000 F 
ENDROOT
BRANCH   4   8
ATOM      8  C   UNL     1       4.248   4.040  18.869  0.00  0.00    +0.000 C 
ATOM      9  C   UNL     1       3.999   2.788  19.304  0.00  0.00    +0.000 C 
ATOM     10  S   UNL     1       2.905   2.650  20.749  0.00  0.00    +0.000 S 
ATOM     11  C   UNL     1       2.702   4.398  20.537  0.00  0.00    +0.000 C 
ATOM     12  N   UNL     1       1.720   5.118  20.910  0.00  0.00    +0.000 NA
ATOM     13  C   UNL     1       1.813   6.411  20.261  0.00  0.00    +0.000 C 
ATOM     14  C   UNL     1       3.079   6.325  19.357  0.00  0.00    +0.000 C 
ATOM     15  N   UNL     1       3.543   4.994  19.636  0.00  0.00    +0.000 N 
ENDBRANCH   4   8
BRANCH   1  17
ATOM     16  C   UNL     1       7.673   5.025  13.231  0.00  0.00    +0.000 C 
ATOM     17  O   UNL     1       7.709   5.393  14.559  0.00  0.00    +0.000 OA
ENDBRANCH   1  17
TORSDOF 2
ENDMDL
MODEL 8
REMARK VINA RESULT:      -6.2      4.253      5.100
REMARK  Name = 
REMARK  3 active torsions:
REMARK  status: ('A' for Active; 'I' for Inactive)
REMARK    1  A    between atoms: C_1  and  O_2
REMARK    2  A    between atoms: O_2  and  C_3
REMARK    3  A    between atoms: C_6  and  C_7
REMARK                            x       y       z     vdW  Elec       q    Type
REMARK                         _______ _______ _______ _____ _____    ______ ____
ROOT
ATOM      1  C   UNL     1       1.068   9.788  19.056  0.00  0.00    +0.000 A 
ATOM      2  C   UNL     1       1.661   9.173  17.950  0.00  0.00    +0.000 A 
ATOM      3  C   UNL     1       2.270   7.925  18.065  0.00  0.00    +0.000 A 
ATOM      4  C   UNL     1       2.292   7.238  19.292  0.00  0.00    +0.000 A 
ATOM      5  C   UNL     1       1.677   7.843  20.405  0.00  0.00    +0.000 A 
ATOM      6  C   UNL     1       1.080   9.110  20.298  0.00  0.00    +0.000 A 
ATOM      7  F   UNL     1       0.538   9.663  21.412  0.00  0.00    +0.000 F 
ENDROOT
BRANCH   4   8
ATOM      8  C   UNL     1       2.990   5.919  19.409  0.00  0.00    +0.000 C 
ATOM      9  C   UNL     1       4.173   5.653  18.819  0.00  0.00    +0.000 C 
ATOM     10  S   UNL     1       4.858   3.997  19.122  0.00  0.00    +0.000 S 
ATOM     11  C   UNL     1       3.308   3.697  19.926  0.00  0.00    +0.000 C 
ATOM     12  N   UNL     1       2.730   2.578  20.110  0.00  0.00    +0.000 NA
ATOM     13  C   UNL     1       1.358   2.819  20.512  0.00  0.00    +0.000 C 
ATOM     14  C   UNL     1       1.196   4.368  20.506  0.00  0.00    +0.000 C 
ATOM     15  N   UNL     1       2.512   4.795  20.119  0.00  0.00    +0.000 N 
ENDBRANCH   4   8
BRANCH   1  17
ATOM     16  C   UNL     1      -0.825  11.327  18.798  0.00  0.00    +0.000 C 
ATOM     17  O   UNL     1       0.515  11.015  18.860  0.00  0.00    +0.000 OA
ENDBRANCH   1  17
TORSDOF 2
ENDMDL
MODEL 9
REMARK VINA RESULT:      -6.2      1.301      1.742
REMARK  Name = 
REMARK  3 active torsions:
REMARK  status: ('A' for Active; 'I' for Inactive)
REMARK    1  A    between atoms: C_1  and  O_2
REMARK    2  A    between atoms: O_2  and  C_3
REMARK    3  A    between atoms: C_6  and  C_7
REMARK                            x       y       z     vdW  Elec       q    Type
REMARK                         _______ _______ _______ _____ _____    ______ ____
ROOT
ATOM      1  C   UNL     1       6.757   6.816  17.274  0.00  0.00    +0.000 A 
ATOM      2  C   UNL     1       6.981   6.051  18.422  0.00  0.00    +0.000 A 
ATOM      3  C   UNL     1       6.074   5.071  18.818  0.00  0.00    +0.000 A 
ATOM      4  C   UNL     1       4.914   4.807  18.066  0.00  0.00    +0.000 A 
ATOM      5  C   UNL     1       4.694   5.559  16.896  0.00  0.00    +0.000 A 
ATOM      6  C   UNL     1       5.596   6.563  16.505  0.00  0.00    +0.000 A 
ATOM      7  F   UNL     1       5.313   7.284  15.391  0.00  0.00    +0.000 F 
ENDROOT
BRANCH   4   8
ATOM      8  C   UNL     1       3.928   3.781  18.530  0.00  0.00    +0.000 C 
ATOM      9  C   UNL     1       3.800   2.566  17.959  0.00  0.00    +0.000 C 
ATOM     10  S   UNL     1       2.564   1.463  18.705  0.00  0.00    +0.000 S 
ATOM     11  C   UNL     1       2.150   2.881  19.684  0.00  0.00    +0.000 C 
ATOM     12  N   UNL     1       1.041   3.138  20.252  0.00  0.00    +0.000 NA
ATOM     13  C   UNL     1       1.037   4.527  20.668  0.00  0.00    +0.000 C 
ATOM     14  C   UNL     1       2.405   5.100  20.194  0.00  0.00    +0.000 C 
ATOM     15  N   UNL     1       3.009   3.944  19.590  0.00  0.00    +0.000 N 
ENDBRANCH   4   8
BRANCH   1  17
ATOM     16  C   UNL     1       8.072   8.830  17.755  0.00  0.00    +0.000 C 
ATOM     17  O   UNL     1       7.681   7.766  16.972  0.00  0.00    +0.000 OA
ENDBRANCH   1  17
TORSDOF 2
ENDMDL
