MODEL 1
REMARK VINA RESULT:      -8.1      0.000      0.000
REMARK  Name = 
REMARK  6 active torsions:
REMARK  status: ('A' for Active; 'I' for Inactive)
REMARK    1  A    between atoms: C_1  and  O_2
REMARK    2  A    between atoms: O_2  and  C_3
REMARK    3  A    between atoms: C_9  and  C_11
REMARK    4  A    between atoms: C_11  and  C_12
REMARK    5  A    between atoms: C_21  and  N_22
REMARK    6  A    between atoms: C_25  and  O_26
REMARK                            x       y       z     vdW  Elec       q    Type
REMARK                         _______ _______ _______ _____ _____    ______ ____
ROOT
ATOM      1  C   UNL     1      -3.228  12.214  22.640  0.00  0.00    +0.000 C 
ATOM      2  O   UNL     1      -4.182  12.631  21.994  0.00  0.00    +0.000 OA
ATOM      3  N   UNL     1      -1.981  11.958  22.102  0.00  0.00    +0.000 N 
ATOM      4  C   UNL     1      -0.898  11.328  22.845  0.00  0.00    +0.000 C 
ATOM      5  C   UNL     1      -0.380  10.079  22.128  0.00  0.00    +0.000 C 
ATOM      6  N   UNL     1      -0.152  10.239  20.676  0.00  0.00    +0.000 N 
ATOM      7  C   UNL     1       0.742   9.383  20.020  0.00  0.00    +0.000 C 
ATOM      8  O   UNL     1       0.871   9.362  18.795  0.00  0.00    +0.000 OA
ATOM      9  C   UNL     1      -1.298  10.920  19.938  0.00  0.00    +0.000 C 
ATOM     10  C   UNL     1      -1.154  11.265  18.403  0.00  0.00    +0.000 C 
ATOM     11  C   UNL     1       0.056  12.214  18.257  0.00  0.00    +0.000 C 
ATOM     12  C   UNL     1       0.043  13.443  19.161  0.00  0.00    +0.000 C 
ATOM     13  C   UNL     1      -0.686  13.353  20.501  0.00  0.00    +0.000 C 
ATOM     14  C   UNL     1      -1.716  12.222  20.673  0.00  0.00    +0.000 C 
ENDROOT
BRANCH  10  15
ATOM     15  N   UNL     1      -2.354  11.903  17.755  0.00  0.00    +0.000 NA
ATOM     16  C   UNL     1      -2.622  11.349  16.402  0.00  0.00    +0.000 C 
ATOM     17  C   UNL     1      -4.106  11.016  16.317  0.00  0.00    +0.000 C 
ATOM     18  C   UNL     1      -4.471  10.749  17.759  0.00  0.00    +0.000 C 
ATOM     19  C   UNL     1      -3.628  11.793  18.491  0.00  0.00    +0.000 C 
BRANCH  18  20
ATOM     20  O   UNL     1      -5.865  10.875  17.982  0.00  0.00    +0.000 OA
ATOM     21  H   UNL     1      -6.051  11.786  18.269  0.00  0.00    +0.000 HD
ENDBRANCH  18  20
ENDBRANCH  10  15
BRANCH   1  23
ATOM     22  C   UNL     1      -4.429  12.478  24.646  0.00  0.00    +0.000 C 
ATOM     23  O   UNL     1      -3.290  11.938  23.972  0.00  0.00    +0.000 OA
ENDBRANCH   1  23
BRANCH   7  24
ATOM     24  C   UNL     1       1.571   8.390  20.836  0.00  0.00    +0.000 C 
BRANCH  24  25
ATOM     25  C   UNL     1       1.961   7.073  20.193  0.00  0.00    +0.000 A 
ATOM     26  C   UNL     1       2.628   6.987  18.967  0.00  0.00    +0.000 A 
ATOM     27  C   UNL     1       2.851   5.739  18.363  0.00  0.00    +0.000 A 
ATOM     28  C   UNL     1       2.408   4.578  18.967  0.00  0.00    +0.000 A 
ATOM     29  F   UNL     1       2.615   3.397  18.366  0.00  0.00    +0.000 F 
ATOM     30  C   UNL     1       1.735   4.635  20.189  0.00  0.00    +0.000 A 
ATOM     31 CL   UNL     1       1.147   3.208  20.952  0.00  0.00    +0.000 Cl
ATOM     32  C   UNL     1       1.506   5.877  20.789  0.00  0.00    +0.000 A 
ENDBRANCH  24  25
ENDBRANCH   7  24
TORSDOF 5
ENDMDL
MODEL 2
REMARK VINA RESULT:      -8.0      5.296      9.566
REMARK  Name = 
REMARK  6 active torsions:
REMARK  status: ('A' for Active; 'I' for Inactive)
REMARK    1  A    between atoms: C_1  and  O_2
REMARK    2  A    between atoms: O_2  and  C_3
REMARK    3  A    between atoms: C_9  and  C_11
REMARK    4  A    between atoms: C_11  and  C_12
REMARK    5  A    between atoms: C_21  and  N_22
REMARK    6  A    between atoms: C_25  and  O_26
REMARK                            x       y       z     vdW  Elec       q    Type
REMARK                         _______ _______ _______ _____ _____    ______ ____
ROOT
ATOM      1  C   UNL     1       3.712   2.783  19.799  0.00  0.00    +0.000 C 
ATOM      2  O   UNL     1       4.879   2.490  20.029  0.00  0.00    +0.000 OA
ATOM      3  N   UNL     1       3.319   3.715  18.858  0.00  0.00    +0.000 N 
ATOM      4  C   UNL     1       1.942   4.160  18.692  0.00  0.00    +0.000 C 
ATOM      5  C   UNL     1       1.828   5.682  18.812  0.00  0.00    +0.000 C 
ATOM      6  N   UNL     1       2.843   6.448  18.058  0.00  0.00    +0.000 N 
ATOM      7  C   UNL     1       2.575   7.773  17.690  0.00  0.00    +0.000 C 
ATOM      8  O   UNL     1       3.425   8.514  17.193  0.00  0.00    +0.000 OA
ATOM      9  C   UNL     1       4.268   5.939  18.241  0.00  0.00    +0.000 C 
ATOM     10  C   UNL     1       5.448   6.583  17.411  0.00  0.00    +0.000 C 
ATOM     11  C   UNL     1       5.123   6.377  15.916  0.00  0.00    +0.000 C 
ATOM     12  C   UNL     1       4.796   4.946  15.502  0.00  0.00    +0.000 C 
ATOM     13  C   UNL     1       4.177   4.012  16.542  0.00  0.00    +0.000 C 
ATOM     14  C   UNL     1       4.326   4.403  18.024  0.00  0.00    +0.000 C 
ENDROOT
BRANCH  10  15
ATOM     15  N   UNL     1       6.824   6.037  17.690  0.00  0.00    +0.000 NA
ATOM     16  C   UNL     1       7.821   7.117  17.917  0.00  0.00    +0.000 C 
ATOM     17  C   UNL     1       8.609   6.771  19.173  0.00  0.00    +0.000 C 
ATOM     18  C   UNL     1       7.631   5.929  19.959  0.00  0.00    +0.000 C 
ATOM     19  C   UNL     1       6.945   5.133  18.849  0.00  0.00    +0.000 C 
BRANCH  18  20
ATOM     20  O   UNL     1       8.286   5.124  20.925  0.00  0.00    +0.000 OA
ATOM     21  H   UNL     1       8.749   4.403  20.463  0.00  0.00    +0.000 HD
ENDBRANCH  18  20
ENDBRANCH  10  15
BRANCH   1  23
ATOM     22  C   UNL     1       2.379   2.807  21.737  0.00  0.00    +0.000 C 
ATOM     23  O   UNL     1       2.658   2.230  20.460  0.00  0.00    +0.000 OA
ENDBRANCH   1  23
BRANCH   7  24
ATOM     24  C   UNL     1       1.187   8.361  17.950  0.00  0.00    +0.000 C 
BRANCH  24  25
ATOM     25  C   UNL     1       1.045   9.439  19.007  0.00  0.00    +0.000 A 
ATOM     26  C   UNL     1       0.941   9.163  20.374  0.00  0.00    +0.000 A 
ATOM     27  C   UNL     1       0.687  10.194  21.293  0.00  0.00    +0.000 A 
ATOM     28  C   UNL     1       0.530  11.497  20.859  0.00  0.00    +0.000 A 
ATOM     29  F   UNL     1       0.271  12.466  21.750  0.00  0.00    +0.000 F 
ATOM     30  C   UNL     1       0.625  11.800  19.499  0.00  0.00    +0.000 A 
ATOM     31 CL   UNL     1       0.407  13.409  18.926  0.00  0.00    +0.000 Cl
ATOM     32  C   UNL     1       0.871  10.774  18.583  0.00  0.00    +0.000 A 
ENDBRANCH  24  25
ENDBRANCH   7  24
TORSDOF 5
ENDMDL
MODEL 3
REMARK VINA RESULT:      -8.0      5.235      9.454
REMARK  Name = 
REMARK  6 active torsions:
REMARK  status: ('A' for Active; 'I' for Inactive)
REMARK    1  A    between atoms: C_1  and  O_2
REMARK    2  A    between atoms: O_2  and  C_3
REMARK    3  A    between atoms: C_9  and  C_11
REMARK    4  A    between atoms: C_11  and  C_12
REMARK    5  A    between atoms: C_21  and  N_22
REMARK    6  A    between atoms: C_25  and  O_26
REMARK                            x       y       z     vdW  Elec       q    Type
REMARK                         _______ _______ _______ _____ _____    ______ ____
ROOT
ATOM      1  C   UNL     1       3.705   2.760  19.715  0.00  0.00    +0.000 C 
ATOM      2  O   UNL     1       4.870   2.472  19.965  0.00  0.00    +0.000 OA
ATOM      3  N   UNL     1       3.324   3.697  18.773  0.00  0.00    +0.000 N 
ATOM      4  C   UNL     1       1.947   4.135  18.584  0.00  0.00    +0.000 C 
ATOM      5  C   UNL     1       1.822   5.655  18.713  0.00  0.00    +0.000 C 
ATOM      6  N   UNL     1       2.846   6.432  17.984  0.00  0.00    +0.000 N 
ATOM      7  C   UNL     1       2.577   7.758  17.620  0.00  0.00    +0.000 C 
ATOM      8  O   UNL     1       3.431   8.508  17.144  0.00  0.00    +0.000 OA
ATOM      9  C   UNL     1       4.270   5.931  18.190  0.00  0.00    +0.000 C 
ATOM     10  C   UNL     1       5.462   6.587  17.386  0.00  0.00    +0.000 C 
ATOM     11  C   UNL     1       5.166   6.391  15.884  0.00  0.00    +0.000 C 
ATOM     12  C   UNL     1       4.856   4.960  15.454  0.00  0.00    +0.000 C 
ATOM     13  C   UNL     1       4.224   4.015  16.476  0.00  0.00    +0.000 C 
ATOM     14  C   UNL     1       4.342   4.397  17.962  0.00  0.00    +0.000 C 
ENDROOT
BRANCH  10  15
ATOM     15  N   UNL     1       6.835   6.048  17.687  0.00  0.00    +0.000 NA
ATOM     16  C   UNL     1       7.822   7.133  17.937  0.00  0.00    +0.000 C 
ATOM     17  C   UNL     1       8.590   6.785  19.205  0.00  0.00    +0.000 C 
ATOM     18  C   UNL     1       7.603   5.934  19.970  0.00  0.00    +0.000 C 
ATOM     19  C   UNL     1       6.941   5.139  18.845  0.00  0.00    +0.000 C 
BRANCH  18  20
ATOM     20  O   UNL     1       8.246   5.128  20.943  0.00  0.00    +0.000 OA
ATOM     21  H   UNL     1       8.613   4.343  20.501  0.00  0.00    +0.000 HD
ENDBRANCH  18  20
ENDBRANCH  10  15
BRANCH   1  23
ATOM     22  C   UNL     1       2.375   2.719  21.655  0.00  0.00    +0.000 C 
ATOM     23  O   UNL     1       2.642   2.196  20.352  0.00  0.00    +0.000 OA
ENDBRANCH   1  23
BRANCH   7  24
ATOM     24  C   UNL     1       1.181   8.336  17.858  0.00  0.00    +0.000 C 
BRANCH  24  25
ATOM     25  C   UNL     1       1.043   9.543  18.766  0.00  0.00    +0.000 A 
ATOM     26  C   UNL     1       1.425  10.833  18.388  0.00  0.00    +0.000 A 
ATOM     27  C   UNL     1       1.390  11.888  19.314  0.00  0.00    +0.000 A 
ATOM     28  C   UNL     1       0.984  11.665  20.616  0.00  0.00    +0.000 A 
ATOM     29  F   UNL     1       0.973  12.681  21.492  0.00  0.00    +0.000 F 
ATOM     30  C   UNL     1       0.601  10.384  21.022  0.00  0.00    +0.000 A 
ATOM     31 CL   UNL     1       0.117  10.070  22.645  0.00  0.00    +0.000 Cl
ATOM     32  C   UNL     1       0.642   9.332  20.104  0.00  0.00    +0.000 A 
ENDBRANCH  24  25
ENDBRANCH   7  24
TORSDOF 5
ENDMDL
MODEL 4
REMARK VINA RESULT:      -7.9      1.004      1.325
REMARK  Name = 
REMARK  6 active torsions:
REMARK  status: ('A' for Active; 'I' for Inactive)
REMARK    1  A    between atoms: C_1  and  O_2
REMARK    2  A    between atoms: O_2  and  C_3
REMARK    3  A    between atoms: C_9  and  C_11
REMARK    4  A    between atoms: C_11  and  C_12
REMARK    5  A    between atoms: C_21  and  N_22
REMARK    6  A    between atoms: C_25  and  O_26
REMARK                            x       y       z     vdW  Elec       q    Type
REMARK                         _______ _______ _______ _____ _____    ______ ____
ROOT
ATOM      1  C   UNL     1      -3.228  12.215  22.654  0.00  0.00    +0.000 C 
ATOM      2  O   UNL     1      -4.174  12.640  22.002  0.00  0.00    +0.000 OA
ATOM      3  N   UNL     1      -1.980  11.948  22.125  0.00  0.00    +0.000 N 
ATOM      4  C   UNL     1      -0.907  11.309  22.875  0.00  0.00    +0.000 C 
ATOM      5  C   UNL     1      -0.396  10.054  22.163  0.00  0.00    +0.000 C 
ATOM      6  N   UNL     1      -0.156  10.211  20.712  0.00  0.00    +0.000 N 
ATOM      7  C   UNL     1       0.734   9.347  20.062  0.00  0.00    +0.000 C 
ATOM      8  O   UNL     1       0.871   9.324  18.838  0.00  0.00    +0.000 OA
ATOM      9  C   UNL     1      -1.292  10.902  19.966  0.00  0.00    +0.000 C 
ATOM     10  C   UNL     1      -1.135  11.245  18.431  0.00  0.00    +0.000 C 
ATOM     11  C   UNL     1       0.084  12.182  18.293  0.00  0.00    +0.000 C 
ATOM     12  C   UNL     1       0.076  13.413  19.195  0.00  0.00    +0.000 C 
ATOM     13  C   UNL     1      -0.663  13.330  20.531  0.00  0.00    +0.000 C 
ATOM     14  C   UNL     1      -1.704  12.208  20.697  0.00  0.00    +0.000 C 
ENDROOT
BRANCH  10  15
ATOM     15  N   UNL     1      -2.325  11.892  17.775  0.00  0.00    +0.000 NA
ATOM     16  C   UNL     1      -2.587  11.343  16.419  0.00  0.00    +0.000 C 
ATOM     17  C   UNL     1      -4.072  11.021  16.322  0.00  0.00    +0.000 C 
ATOM     18  C   UNL     1      -4.450  10.754  17.760  0.00  0.00    +0.000 C 
ATOM     19  C   UNL     1      -3.606  11.791  18.501  0.00  0.00    +0.000 C 
BRANCH  18  20
ATOM     20  O   UNL     1      -5.845  10.889  17.972  0.00  0.00    +0.000 OA
ATOM     21  H   UNL     1      -6.262  10.018  17.857  0.00  0.00    +0.000 HD
ENDBRANCH  18  20
ENDBRANCH  10  15
BRANCH   1  23
ATOM     22  C   UNL     1      -4.466  12.447  24.641  0.00  0.00    +0.000 C 
ATOM     23  O   UNL     1      -3.302  11.940  23.986  0.00  0.00    +0.000 OA
ENDBRANCH   1  23
BRANCH   7  24
ATOM     24  C   UNL     1       1.549   8.348  20.885  0.00  0.00    +0.000 C 
BRANCH  24  25
ATOM     25  C   UNL     1       1.888   7.007  20.263  0.00  0.00    +0.000 A 
ATOM     26  C   UNL     1       1.523   5.784  20.832  0.00  0.00    +0.000 A 
ATOM     27  C   UNL     1       1.972   4.575  20.276  0.00  0.00    +0.000 A 
ATOM     28  C   UNL     1       2.789   4.577  19.161  0.00  0.00    +0.000 A 
ATOM     29  F   UNL     1       3.222   3.413  18.654  0.00  0.00    +0.000 F 
ATOM     30  C   UNL     1       3.173   5.785  18.574  0.00  0.00    +0.000 A 
ATOM     31 CL   UNL     1       4.211   5.820  17.201  0.00  0.00    +0.000 Cl
ATOM     32  C   UNL     1       2.732   6.989  19.130  0.00  0.00    +0.000 A 
ENDBRANCH  24  25
ENDBRANCH   7  24
TORSDOF 5
ENDMDL
MODEL 5
REMARK VINA RESULT:      -7.6      5.296      9.639
REMARK  Name = 
REMARK  6 active torsions:
REMARK  status: ('A' for Active; 'I' for Inactive)
REMARK    1  A    between atoms: C_1  and  O_2
REMARK    2  A    between atoms: O_2  and  C_3
REMARK    3  A    between atoms: C_9  and  C_11
REMARK    4  A    between atoms: C_11  and  C_12
REMARK    5  A    between atoms: C_21  and  N_22
REMARK    6  A    between atoms: C_25  and  O_26
REMARK                            x       y       z     vdW  Elec       q    Type
REMARK                         _______ _______ _______ _____ _____    ______ ____
ROOT
ATOM      1  C   UNL     1       3.952   2.803  19.723  0.00  0.00    +0.000 C 
ATOM      2  O   UNL     1       5.136   2.577  19.939  0.00  0.00    +0.000 OA
ATOM      3  N   UNL     1       3.496   3.705  18.781  0.00  0.00    +0.000 N 
ATOM      4  C   UNL     1       2.094   4.073  18.630  0.00  0.00    +0.000 C 
ATOM      5  C   UNL     1       1.898   5.587  18.742  0.00  0.00    +0.000 C 
ATOM      6  N   UNL     1       2.859   6.402  17.969  0.00  0.00    +0.000 N 
ATOM      7  C   UNL     1       2.514   7.707  17.595  0.00  0.00    +0.000 C 
ATOM      8  O   UNL     1       3.315   8.490  17.082  0.00  0.00    +0.000 OA
ATOM      9  C   UNL     1       4.312   5.973  18.136  0.00  0.00    +0.000 C 
ATOM     10  C   UNL     1       5.445   6.674  17.285  0.00  0.00    +0.000 C 
ATOM     11  C   UNL     1       5.112   6.440  15.796  0.00  0.00    +0.000 C 
ATOM     12  C   UNL     1       4.858   4.990  15.397  0.00  0.00    +0.000 C 
ATOM     13  C   UNL     1       4.306   4.031  16.452  0.00  0.00    +0.000 C 
ATOM     14  C   UNL     1       4.452   4.441  17.928  0.00  0.00    +0.000 C 
ENDROOT
BRANCH  10  15
ATOM     15  N   UNL     1       6.852   6.207  17.549  0.00  0.00    +0.000 NA
ATOM     16  C   UNL     1       7.764   7.334  17.882  0.00  0.00    +0.000 C 
ATOM     17  C   UNL     1       8.556   6.945  19.123  0.00  0.00    +0.000 C 
ATOM     18  C   UNL     1       7.630   5.976  19.820  0.00  0.00    +0.000 C 
ATOM     19  C   UNL     1       7.020   5.224  18.636  0.00  0.00    +0.000 C 
BRANCH  18  20
ATOM     20  O   UNL     1       8.326   5.144  20.732  0.00  0.00    +0.000 OA
ATOM     21  H   UNL     1       9.106   4.776  20.282  0.00  0.00    +0.000 HD
ENDBRANCH  18  20
ENDBRANCH  10  15
BRANCH   1  23
ATOM     22  C   UNL     1       2.572   2.834  21.628  0.00  0.00    +0.000 C 
ATOM     23  O   UNL     1       2.938   2.198  20.402  0.00  0.00    +0.000 OA
ENDBRANCH   1  23
BRANCH   7  24
ATOM     24  C   UNL     1       1.099   8.220  17.870  0.00  0.00    +0.000 C 
BRANCH  24  25
ATOM     25  C   UNL     1       0.903   9.703  18.113  0.00  0.00    +0.000 A 
ATOM     26  C   UNL     1       1.962  10.594  18.314  0.00  0.00    +0.000 A 
ATOM     27  C   UNL     1       1.714  11.933  18.658  0.00  0.00    +0.000 A 
ATOM     28  C   UNL     1       0.418  12.389  18.810  0.00  0.00    +0.000 A 
ATOM     29  F   UNL     1       0.200  13.666  19.156  0.00  0.00    +0.000 F 
ATOM     30  C   UNL     1      -0.659  11.520  18.620  0.00  0.00    +0.000 A 
ATOM     31 CL   UNL     1      -2.283  12.052  18.830  0.00  0.00    +0.000 Cl
ATOM     32  C   UNL     1      -0.413  10.185  18.284  0.00  0.00    +0.000 A 
ENDBRANCH  24  25
ENDBRANCH   7  24
TORSDOF 5
ENDMDL
MODEL 6
REMARK VINA RESULT:      -7.3      4.810      7.996
REMARK  Name = 
REMARK  6 active torsions:
REMARK  status: ('A' for Active; 'I' for Inactive)
REMARK    1  A    between atoms: C_1  and  O_2
REMARK    2  A    between atoms: O_2  and  C_3
REMARK    3  A    between atoms: C_9  and  C_11
REMARK    4  A    between atoms: C_11  and  C_12
REMARK    5  A    between atoms: C_21  and  N_22
REMARK    6  A    between atoms: C_25  and  O_26
REMARK                            x       y       z     vdW  Elec       q    Type
REMARK                         _______ _______ _______ _____ _____    ______ ____
ROOT
ATOM      1  C   UNL     1      -0.149  10.671  19.890  0.00  0.00    +0.000 C 
ATOM      2  O   UNL     1      -0.964   9.853  19.480  0.00  0.00    +0.000 OA
ATOM      3  N   UNL     1      -0.481  11.796  20.620  0.00  0.00    +0.000 N 
ATOM      4  C   UNL     1       0.475  12.835  20.978  0.00  0.00    +0.000 C 
ATOM      5  C   UNL     1       0.012  14.212  20.496  0.00  0.00    +0.000 C 
ATOM      6  N   UNL     1      -1.406  14.527  20.769  0.00  0.00    +0.000 N 
ATOM      7  C   UNL     1      -1.817  15.865  20.831  0.00  0.00    +0.000 C 
ATOM      8  O   UNL     1      -3.001  16.199  20.908  0.00  0.00    +0.000 OA
ATOM      9  C   UNL     1      -2.373  13.408  20.400  0.00  0.00    +0.000 C 
ATOM     10  C   UNL     1      -3.910  13.550  20.739  0.00  0.00    +0.000 C 
ATOM     11  C   UNL     1      -4.030  13.715  22.269  0.00  0.00    +0.000 C 
ATOM     12  C   UNL     1      -3.317  12.657  23.105  0.00  0.00    +0.000 C 
ATOM     13  C   UNL     1      -2.082  11.976  22.516  0.00  0.00    +0.000 C 
ATOM     14  C   UNL     1      -1.887  12.057  20.991  0.00  0.00    +0.000 C 
ENDROOT
BRANCH  10  15
ATOM     15  N   UNL     1      -4.789  12.408  20.302  0.00  0.00    +0.000 NA
ATOM     16  C   UNL     1      -6.196  12.577  20.754  0.00  0.00    +0.000 C 
ATOM     17  C   UNL     1      -7.107  12.313  19.563  0.00  0.00    +0.000 C 
ATOM     18  C   UNL     1      -6.230  12.673  18.386  0.00  0.00    +0.000 C 
ATOM     19  C   UNL     1      -4.865  12.162  18.849  0.00  0.00    +0.000 C 
BRANCH  18  20
ATOM     20  O   UNL     1      -6.690  12.077  17.185  0.00  0.00    +0.000 OA
ATOM     21  H   UNL     1      -6.647  11.110  17.282  0.00  0.00    +0.000 HD
ENDBRANCH  18  20
ENDBRANCH  10  15
BRANCH   1  23
ATOM     22  C   UNL     1       1.541  10.093  18.358  0.00  0.00    +0.000 C 
ATOM     23  O   UNL     1       1.189  10.574  19.657  0.00  0.00    +0.000 OA
ENDBRANCH   1  23
BRANCH   7  24
ATOM     24  C   UNL     1      -0.770  16.978  20.754  0.00  0.00    +0.000 C 
BRANCH  24  25
ATOM     25  C   UNL     1      -0.389  17.519  19.390  0.00  0.00    +0.000 A 
ATOM     26  C   UNL     1      -1.284  18.195  18.556  0.00  0.00    +0.000 A 
ATOM     27  C   UNL     1      -0.908  18.562  17.254  0.00  0.00    +0.000 A 
ATOM     28  C   UNL     1       0.351  18.255  16.775  0.00  0.00    +0.000 A 
ATOM     29  F   UNL     1       0.687  18.598  15.522  0.00  0.00    +0.000 F 
ATOM     30  C   UNL     1       1.264  17.576  17.585  0.00  0.00    +0.000 A 
ATOM     31 CL   UNL     1       2.831  17.156  17.006  0.00  0.00    +0.000 Cl
ATOM     32  C   UNL     1       0.889  17.204  18.879  0.00  0.00    +0.000 A 
ENDBRANCH  24  25
ENDBRANCH   7  24
TORSDOF 5
ENDMDL
MODEL 7
REMARK VINA RESULT:      -7.1      4.541      8.292
REMARK  Name = 
REMARK  6 active torsions:
REMARK  status: ('A' for Active; 'I' for Inactive)
REMARK    1  A    between atoms: C_1  and  O_2
REMARK    2  A    between atoms: O_2  and  C_3
REMARK    3  A    between atoms: C_9  and  C_11
REMARK    4  A    between atoms: C_11  and  C_12
REMARK    5  A    between atoms: C_21  and  N_22
REMARK    6  A    between atoms: C_25  and  O_26
REMARK                            x       y       z     vdW  Elec       q    Type
REMARK                         _______ _______ _______ _____ _____    ______ ____
ROOT
ATOM      1  C   UNL     1       1.547  10.568  18.243  0.00  0.00    +0.000 C 
ATOM      2  O   UNL     1       2.641  10.989  17.888  0.00  0.00    +0.000 OA
ATOM      3  N   UNL     1       0.619  11.317  18.943  0.00  0.00    +0.000 N 
ATOM      4  C   UNL     1      -0.617  10.766  19.484  0.00  0.00    +0.000 C 
ATOM      5  C   UNL     1      -0.731  11.023  20.989  0.00  0.00    +0.000 C 
ATOM      6  N   UNL     1      -0.403  12.400  21.416  0.00  0.00    +0.000 N 
ATOM      7  C   UNL     1      -0.917  12.889  22.624  0.00  0.00    +0.000 C 
ATOM      8  O   UNL     1      -0.570  13.966  23.112  0.00  0.00    +0.000 OA
ATOM      9  C   UNL     1       0.884  12.948  20.812  0.00  0.00    +0.000 C 
ATOM     10  C   UNL     1       1.308  14.446  21.083  0.00  0.00    +0.000 C 
ATOM     11  C   UNL     1       0.178  15.348  20.540  0.00  0.00    +0.000 C 
ATOM     12  C   UNL     1      -0.241  15.084  19.097  0.00  0.00    +0.000 C 
ATOM     13  C   UNL     1      -0.070  13.672  18.537  0.00  0.00    +0.000 C 
ATOM     14  C   UNL     1       0.897  12.729  19.275  0.00  0.00    +0.000 C 
ENDROOT
BRANCH  10  15
ATOM     15  N   UNL     1       2.614  14.882  20.474  0.00  0.00    +0.000 NA
ATOM     16  C   UNL     1       2.850  16.341  20.636  0.00  0.00    +0.000 C 
ATOM     17  C   UNL     1       4.271  16.532  21.153  0.00  0.00    +0.000 C 
ATOM     18  C   UNL     1       4.534  15.238  21.888  0.00  0.00    +0.000 C 
ATOM     19  C   UNL     1       3.828  14.222  20.991  0.00  0.00    +0.000 C 
BRANCH  18  20
ATOM     20  O   UNL     1       5.922  14.998  22.049  0.00  0.00    +0.000 OA
ATOM     21  H   UNL     1       6.058  14.517  22.885  0.00  0.00    +0.000 HD
ENDBRANCH  18  20
ENDBRANCH  10  15
BRANCH   1  23
ATOM     22  C   UNL     1       2.152   8.309  17.986  0.00  0.00    +0.000 C 
ATOM     23  O   UNL     1       1.119   9.298  18.002  0.00  0.00    +0.000 OA
ENDBRANCH   1  23
BRANCH   7  24
ATOM     24  C   UNL     1      -1.919  12.044  23.413  0.00  0.00    +0.000 C 
BRANCH  24  25
ATOM     25  C   UNL     1      -3.383  12.434  23.372  0.00  0.00    +0.000 A 
ATOM     26  C   UNL     1      -4.207  12.438  24.502  0.00  0.00    +0.000 A 
ATOM     27  C   UNL     1      -5.584  12.688  24.380  0.00  0.00    +0.000 A 
ATOM     28  C   UNL     1      -6.146  12.928  23.141  0.00  0.00    +0.000 A 
ATOM     29  F   UNL     1      -7.466  13.148  23.042  0.00  0.00    +0.000 F 
ATOM     30  C   UNL     1      -5.347  12.927  21.995  0.00  0.00    +0.000 A 
ATOM     31 CL   UNL     1      -6.023  13.195  20.435  0.00  0.00    +0.000 Cl
ATOM     32  C   UNL     1      -3.978  12.671  22.114  0.00  0.00    +0.000 A 
ENDBRANCH  24  25
ENDBRANCH   7  24
TORSDOF 5
ENDMDL
MODEL 8
REMARK VINA RESULT:      -7.0      1.035      1.053
REMARK  Name = 
REMARK  6 active torsions:
REMARK  status: ('A' for Active; 'I' for Inactive)
REMARK    1  A    between atoms: C_1  and  O_2
REMARK    2  A    between atoms: O_2  and  C_3
REMARK    3  A    between atoms: C_9  and  C_11
REMARK    4  A    between atoms: C_11  and  C_12
REMARK    5  A    between atoms: C_21  and  N_22
REMARK    6  A    between atoms: C_25  and  O_26
REMARK                            x       y       z     vdW  Elec       q    Type
REMARK                         _______ _______ _______ _____ _____    ______ ____
ROOT
ATOM      1  C   UNL     1      -3.020  13.502  22.831  0.00  0.00    +0.000 C 
ATOM      2  O   UNL     1      -4.081  13.853  22.328  0.00  0.00    +0.000 OA
ATOM      3  N   UNL     1      -1.940  13.030  22.110  0.00  0.00    +0.000 N 
ATOM      4  C   UNL     1      -0.739  12.481  22.725  0.00  0.00    +0.000 C 
ATOM      5  C   UNL     1      -0.446  11.067  22.216  0.00  0.00    +0.000 C 
ATOM      6  N   UNL     1      -0.550  10.894  20.751  0.00  0.00    +0.000 N 
ATOM      7  C   UNL     1       0.137   9.844  20.129  0.00  0.00    +0.000 C 
ATOM      8  O   UNL     1      -0.019   9.552  18.942  0.00  0.00    +0.000 OA
ATOM      9  C   UNL     1      -1.809  11.500  20.142  0.00  0.00    +0.000 C 
ATOM     10  C   UNL     1      -2.008  11.497  18.575  0.00  0.00    +0.000 C 
ATOM     11  C   UNL     1      -0.830  12.284  17.961  0.00  0.00    +0.000 C 
ATOM     12  C   UNL     1      -0.591  13.674  18.543  0.00  0.00    +0.000 C 
ATOM     13  C   UNL     1      -0.996  13.934  19.993  0.00  0.00    +0.000 C 
ATOM     14  C   UNL     1      -2.000  12.960  20.635  0.00  0.00    +0.000 C 
ENDROOT
BRANCH  10  15
ATOM     15  N   UNL     1      -3.301  12.084  18.073  0.00  0.00    +0.000 NA
ATOM     16  C   UNL     1      -3.672  11.561  16.731  0.00  0.00    +0.000 C 
ATOM     17  C   UNL     1      -5.136  11.144  16.779  0.00  0.00    +0.000 C 
ATOM     18  C   UNL     1      -5.339  10.808  18.238  0.00  0.00    +0.000 C 
ATOM     19  C   UNL     1      -4.487  11.875  18.925  0.00  0.00    +0.000 C 
BRANCH  18  20
ATOM     20  O   UNL     1      -6.709  10.844  18.601  0.00  0.00    +0.000 OA
ATOM     21  H   UNL     1      -7.231  11.085  17.816  0.00  0.00    +0.000 HD
ENDBRANCH  18  20
ENDBRANCH  10  15
BRANCH   1  23
ATOM     22  C   UNL     1      -3.251  14.692  24.847  0.00  0.00    +0.000 C 
ATOM     23  O   UNL     1      -2.786  13.521  24.172  0.00  0.00    +0.000 OA
ENDBRANCH   1  23
BRANCH   7  24
ATOM     24  C   UNL     1       1.094   8.979  20.952  0.00  0.00    +0.000 C 
BRANCH  24  25
ATOM     25  C   UNL     1       1.687   7.743  20.305  0.00  0.00    +0.000 A 
ATOM     26  C   UNL     1       2.357   7.767  19.078  0.00  0.00    +0.000 A 
ATOM     27  C   UNL     1       2.775   6.572  18.470  0.00  0.00    +0.000 A 
ATOM     28  C   UNL     1       2.525   5.353  19.072  0.00  0.00    +0.000 A 
ATOM     29  F   UNL     1       2.916   4.221  18.468  0.00  0.00    +0.000 F 
ATOM     30  C   UNL     1       1.854   5.300  20.296  0.00  0.00    +0.000 A 
ATOM     31 CL   UNL     1       1.503   3.796  21.057  0.00  0.00    +0.000 Cl
ATOM     32  C   UNL     1       1.431   6.488  20.899  0.00  0.00    +0.000 A 
ENDBRANCH  24  25
ENDBRANCH   7  24
TORSDOF 5
ENDMDL
MODEL 9
REMARK VINA RESULT:      -7.0      2.392      3.954
REMARK  Name = 
REMARK  6 active torsions:
REMARK  status: ('A' for Active; 'I' for Inactive)
REMARK    1  A    between atoms: C_1  and  O_2
REMARK    2  A    between atoms: O_2  and  C_3
REMARK    3  A    between atoms: C_9  and  C_11
REMARK    4  A    between atoms: C_11  and  C_12
REMARK    5  A    between atoms: C_21  and  N_22
REMARK    6  A    between atoms: C_25  and  O_26
REMARK                            x       y       z     vdW  Elec       q    Type
REMARK                         _______ _______ _______ _____ _____    ______ ____
ROOT
ATOM      1  C   UNL     1       0.996  15.145  19.016  0.00  0.00    +0.000 C 
ATOM      2  O   UNL     1       0.077  15.943  19.156  0.00  0.00    +0.000 OA
ATOM      3  N   UNL     1       0.823  13.780  18.890  0.00  0.00    +0.000 N 
ATOM      4  C   UNL     1       1.925  12.827  18.868  0.00  0.00    +0.000 C 
ATOM      5  C   UNL     1       1.761  11.758  19.952  0.00  0.00    +0.000 C 
ATOM      6  N   UNL     1       0.408  11.170  20.052  0.00  0.00    +0.000 N 
ATOM      7  C   UNL     1       0.248   9.901  20.625  0.00  0.00    +0.000 C 
ATOM      8  O   UNL     1      -0.856   9.414  20.873  0.00  0.00    +0.000 OA
ATOM      9  C   UNL     1      -0.718  12.197  20.050  0.00  0.00    +0.000 C 
ATOM     10  C   UNL     1      -2.223  11.717  20.036  0.00  0.00    +0.000 C 
ATOM     11  C   UNL     1      -2.426  10.877  18.757  0.00  0.00    +0.000 C 
ATOM     12  C   UNL     1      -1.984  11.540  17.456  0.00  0.00    +0.000 C 
ATOM     13  C   UNL     1      -0.855  12.569  17.510  0.00  0.00    +0.000 C 
ATOM     14  C   UNL     1      -0.535  13.198  18.878  0.00  0.00    +0.000 C 
ENDROOT
BRANCH  10  15
ATOM     15  N   UNL     1      -3.262  12.806  20.074  0.00  0.00    +0.000 NA
ATOM     16  C   UNL     1      -4.601  12.321  19.643  0.00  0.00    +0.000 C 
ATOM     17  C   UNL     1      -5.624  12.800  20.664  0.00  0.00    +0.000 C 
ATOM     18  C   UNL     1      -4.802  12.929  21.925  0.00  0.00    +0.000 C 
ATOM     19  C   UNL     1      -3.477  13.460  21.379  0.00  0.00    +0.000 C 
BRANCH  18  20
ATOM     20  O   UNL     1      -5.419  13.785  22.871  0.00  0.00    +0.000 OA
ATOM     21  H   UNL     1      -4.800  13.930  23.608  0.00  0.00    +0.000 HD
ENDBRANCH  18  20
ENDBRANCH  10  15
BRANCH   1  23
ATOM     22  C   UNL     1       2.588  16.671  18.196  0.00  0.00    +0.000 C 
ATOM     23  O   UNL     1       2.307  15.512  18.984  0.00  0.00    +0.000 OA
ENDBRANCH   1  23
BRANCH   7  24
ATOM     24  C   UNL     1       1.485   9.087  21.009  0.00  0.00    +0.000 C 
BRANCH  24  25
ATOM     25  C   UNL     1       1.852   7.886  20.160  0.00  0.00    +0.000 A 
ATOM     26  C   UNL     1       2.269   7.987  18.830  0.00  0.00    +0.000 A 
ATOM     27  C   UNL     1       2.475   6.832  18.057  0.00  0.00    +0.000 A 
ATOM     28  C   UNL     1       2.262   5.578  18.598  0.00  0.00    +0.000 A 
ATOM     29  F   UNL     1       2.447   4.488  17.840  0.00  0.00    +0.000 F 
ATOM     30  C   UNL     1       1.841   5.449  19.924  0.00  0.00    +0.000 A 
ATOM     31 CL   UNL     1       1.540   3.902  20.618  0.00  0.00    +0.000 Cl
ATOM     32  C   UNL     1       1.629   6.597  20.692  0.00  0.00    +0.000 A 
ENDBRANCH  24  25
ENDBRANCH   7  24
TORSDOF 5
ENDMDL
