MODEL 1
REMARK VINA RESULT:      -7.4      0.000      0.000
REMARK  Name = 
REMARK  5 active torsions:
REMARK  status: ('A' for Active; 'I' for Inactive)
REMARK    1  A    between atoms: C_2  and  C_3
REMARK    2  A    between atoms: C_3  and  C_4
REMARK    3  A    between atoms: C_4  and  C_5
REMARK    4  A    between atoms: C_8  and  O_9
REMARK    5  A    between atoms: C_16  and  O_17
REMARK                            x       y       z     vdW  Elec       q    Type
REMARK                         _______ _______ _______ _____ _____    ______ ____
ROOT
ATOM      1  C   UNL     1       4.079   3.878  18.089  0.00  0.00    +0.000 C 
ATOM      2  C   UNL     1       4.841   4.449  19.324  0.00  0.00    +0.000 C 
ATOM      3  C   UNL     1       6.183   5.054  18.882  0.00  0.00    +0.000 C 
ATOM      4  C   UNL     1       6.219   4.803  17.414  0.00  0.00    +0.000 A 
ATOM      5  C   UNL     1       7.201   5.247  16.534  0.00  0.00    +0.000 A 
ATOM      6  C   UNL     1       7.016   5.014  15.175  0.00  0.00    +0.000 A 
ATOM      7  C   UNL     1       5.904   4.309  14.711  0.00  0.00    +0.000 A 
ATOM      8  C   UNL     1       4.933   3.851  15.608  0.00  0.00    +0.000 A 
ATOM      9  C   UNL     1       5.080   4.131  16.965  0.00  0.00    +0.000 A 
ENDROOT
BRANCH   1  11
ATOM     10  N   UNL     1       3.627   1.303  18.445  0.00  0.00    +0.000 NA
ATOM     11  C   UNL     1       3.833   2.429  18.280  0.00  0.00    +0.000 C 
ENDBRANCH   1  11
BRANCH   6  12
ATOM     12  O   UNL     1       7.888   5.503  14.246  0.00  0.00    +0.000 OA
ATOM     13  H   UNL     1       7.742   5.040  13.405  0.00  0.00    +0.000 HD
ENDBRANCH   6  12
BRANCH   1  14
ATOM     14  C   UNL     1       2.739   4.620  17.782  0.00  0.00    +0.000 C 
BRANCH  14  15
ATOM     15  C   UNL     1       2.345   5.791  18.669  0.00  0.00    +0.000 A 
ATOM     16  C   UNL     1       2.425   7.112  18.197  0.00  0.00    +0.000 A 
ATOM     17  C   UNL     1       2.109   8.196  19.026  0.00  0.00    +0.000 A 
ATOM     18  C   UNL     1       1.666   7.963  20.321  0.00  0.00    +0.000 A 
ATOM     19  C   UNL     1       1.509   6.665  20.788  0.00  0.00    +0.000 A 
ATOM     20  C   UNL     1       1.854   5.583  19.968  0.00  0.00    +0.000 A 
BRANCH  18  21
ATOM     21  O   UNL     1       1.376   8.995  21.164  0.00  0.00    +0.000 OA
ATOM     22  H   UNL     1       2.026   9.704  21.023  0.00  0.00    +0.000 HD
ENDBRANCH  18  21
ENDBRANCH  14  15
ENDBRANCH   1  14
TORSDOF 5
ENDMDL
MODEL 2
REMARK VINA RESULT:      -7.4      0.157      1.088
REMARK  Name = 
REMARK  5 active torsions:
REMARK  status: ('A' for Active; 'I' for Inactive)
REMARK    1  A    between atoms: C_2  and  C_3
REMARK    2  A    between atoms: C_3  and  C_4
REMARK    3  A    between atoms: C_4  and  C_5
REMARK    4  A    between atoms: C_8  and  O_9
REMARK    5  A    between atoms: C_16  and  O_17
REMARK                            x       y       z     vdW  Elec       q    Type
REMARK                         _______ _______ _______ _____ _____    ______ ____
ROOT
ATOM      1  C   UNL     1       4.056   3.945  18.134  0.00  0.00    +0.000 C 
ATOM      2  C   UNL     1       4.816   4.531  19.363  0.00  0.00    +0.000 C 
ATOM      3  C   UNL     1       6.159   5.130  18.917  0.00  0.00    +0.000 C 
ATOM      4  C   UNL     1       6.199   4.860  17.452  0.00  0.00    +0.000 A 
ATOM      5  C   UNL     1       7.183   5.291  16.570  0.00  0.00    +0.000 A 
ATOM      6  C   UNL     1       7.001   5.041  15.213  0.00  0.00    +0.000 A 
ATOM      7  C   UNL     1       5.890   4.330  14.756  0.00  0.00    +0.000 A 
ATOM      8  C   UNL     1       4.917   3.885  15.656  0.00  0.00    +0.000 A 
ATOM      9  C   UNL     1       5.060   4.182  17.009  0.00  0.00    +0.000 A 
ENDROOT
BRANCH   1  11
ATOM     10  N   UNL     1       3.606   1.374  18.526  0.00  0.00    +0.000 NA
ATOM     11  C   UNL     1       3.809   2.499  18.343  0.00  0.00    +0.000 C 
ENDBRANCH   1  11
BRANCH   6  12
ATOM     12  O   UNL     1       7.877   5.516  14.280  0.00  0.00    +0.000 OA
ATOM     13  H   UNL     1       8.742   5.648  14.700  0.00  0.00    +0.000 HD
ENDBRANCH   6  12
BRANCH   1  14
ATOM     14  C   UNL     1       2.718   4.683  17.813  0.00  0.00    +0.000 C 
BRANCH  14  15
ATOM     15  C   UNL     1       2.353   5.905  18.643  0.00  0.00    +0.000 A 
ATOM     16  C   UNL     1       1.943   5.773  19.980  0.00  0.00    +0.000 A 
ATOM     17  C   UNL     1       1.561   6.891  20.732  0.00  0.00    +0.000 A 
ATOM     18  C   UNL     1       1.626   8.156  20.164  0.00  0.00    +0.000 A 
ATOM     19  C   UNL     1       2.096   8.321  18.868  0.00  0.00    +0.000 A 
ATOM     20  C   UNL     1       2.450   7.200  18.107  0.00  0.00    +0.000 A 
BRANCH  18  21
ATOM     21  O   UNL     1       1.235   9.263  20.858  0.00  0.00    +0.000 OA
ATOM     22  H   UNL     1       0.267   9.250  20.943  0.00  0.00    +0.000 HD
ENDBRANCH  18  21
ENDBRANCH  14  15
ENDBRANCH   1  14
TORSDOF 5
ENDMDL
MODEL 3
REMARK VINA RESULT:      -6.8      2.829      3.695
REMARK  Name = 
REMARK  5 active torsions:
REMARK  status: ('A' for Active; 'I' for Inactive)
REMARK    1  A    between atoms: C_2  and  C_3
REMARK    2  A    between atoms: C_3  and  C_4
REMARK    3  A    between atoms: C_4  and  C_5
REMARK    4  A    between atoms: C_8  and  O_9
REMARK    5  A    between atoms: C_16  and  O_17
REMARK                            x       y       z     vdW  Elec       q    Type
REMARK                         _______ _______ _______ _____ _____    ______ ____
ROOT
ATOM      1  C   UNL     1       5.299   5.241  16.963  0.00  0.00    +0.000 C 
ATOM      2  C   UNL     1       5.636   4.045  17.905  0.00  0.00    +0.000 C 
ATOM      3  C   UNL     1       6.810   4.414  18.826  0.00  0.00    +0.000 C 
ATOM      4  C   UNL     1       7.177   5.793  18.398  0.00  0.00    +0.000 A 
ATOM      5  C   UNL     1       8.135   6.605  18.996  0.00  0.00    +0.000 A 
ATOM      6  C   UNL     1       8.269   7.910  18.533  0.00  0.00    +0.000 A 
ATOM      7  C   UNL     1       7.502   8.375  17.463  0.00  0.00    +0.000 A 
ATOM      8  C   UNL     1       6.555   7.542  16.858  0.00  0.00    +0.000 A 
ATOM      9  C   UNL     1       6.372   6.254  17.353  0.00  0.00    +0.000 A 
ENDROOT
BRANCH   1  11
ATOM     10  N   UNL     1       5.563   4.509  14.441  0.00  0.00    +0.000 NA
ATOM     11  C   UNL     1       5.441   4.820  15.549  0.00  0.00    +0.000 C 
ENDBRANCH   1  11
BRANCH   6  12
ATOM     12  O   UNL     1       9.120   8.792  19.132  0.00  0.00    +0.000 OA
ATOM     13  H   UNL     1      10.022   8.436  19.089  0.00  0.00    +0.000 HD
ENDBRANCH   6  12
BRANCH   1  14
ATOM     14  C   UNL     1       3.882   5.851  17.208  0.00  0.00    +0.000 C 
BRANCH  14  15
ATOM     15  C   UNL     1       2.942   5.130  18.162  0.00  0.00    +0.000 A 
ATOM     16  C   UNL     1       2.875   5.491  19.518  0.00  0.00    +0.000 A 
ATOM     17  C   UNL     1       2.047   4.799  20.411  0.00  0.00    +0.000 A 
ATOM     18  C   UNL     1       1.246   3.765  19.943  0.00  0.00    +0.000 A 
ATOM     19  C   UNL     1       1.241   3.436  18.594  0.00  0.00    +0.000 A 
ATOM     20  C   UNL     1       2.091   4.109  17.708  0.00  0.00    +0.000 A 
BRANCH  18  21
ATOM     21  O   UNL     1       0.448   3.051  20.788  0.00  0.00    +0.000 OA
ATOM     22  H   UNL     1      -0.082   3.673  21.314  0.00  0.00    +0.000 HD
ENDBRANCH  18  21
ENDBRANCH  14  15
ENDBRANCH   1  14
TORSDOF 5
ENDMDL
MODEL 4
REMARK VINA RESULT:      -6.7      2.235      2.942
REMARK  Name = 
REMARK  5 active torsions:
REMARK  status: ('A' for Active; 'I' for Inactive)
REMARK    1  A    between atoms: C_2  and  C_3
REMARK    2  A    between atoms: C_3  and  C_4
REMARK    3  A    between atoms: C_4  and  C_5
REMARK    4  A    between atoms: C_8  and  O_9
REMARK    5  A    between atoms: C_16  and  O_17
REMARK                            x       y       z     vdW  Elec       q    Type
REMARK                         _______ _______ _______ _____ _____    ______ ____
ROOT
ATOM      1  C   UNL     1       5.384   5.458  17.731  0.00  0.00    +0.000 C 
ATOM      2  C   UNL     1       6.432   6.591  17.952  0.00  0.00    +0.000 C 
ATOM      3  C   UNL     1       7.348   6.709  16.723  0.00  0.00    +0.000 C 
ATOM      4  C   UNL     1       6.863   5.633  15.814  0.00  0.00    +0.000 A 
ATOM      5  C   UNL     1       7.317   5.390  14.523  0.00  0.00    +0.000 A 
ATOM      6  C   UNL     1       6.672   4.410  13.775  0.00  0.00    +0.000 A 
ATOM      7  C   UNL     1       5.634   3.655  14.323  0.00  0.00    +0.000 A 
ATOM      8  C   UNL     1       5.198   3.896  15.631  0.00  0.00    +0.000 A 
ATOM      9  C   UNL     1       5.799   4.915  16.366  0.00  0.00    +0.000 A 
ENDROOT
BRANCH   1  11
ATOM     10  N   UNL     1       5.619   3.620  19.610  0.00  0.00    +0.000 NA
ATOM     11  C   UNL     1       5.527   4.431  18.789  0.00  0.00    +0.000 C 
ENDBRANCH   1  11
BRANCH   6  12
ATOM     12  O   UNL     1       6.999   4.181  12.470  0.00  0.00    +0.000 OA
ATOM     13  H   UNL     1       6.267   4.478  11.906  0.00  0.00    +0.000 HD
ENDBRANCH   6  12
BRANCH   1  14
ATOM     14  C   UNL     1       3.910   5.972  17.670  0.00  0.00    +0.000 C 
BRANCH  14  15
ATOM     15  C   UNL     1       2.822   5.115  18.301  0.00  0.00    +0.000 A 
ATOM     16  C   UNL     1       2.348   5.389  19.595  0.00  0.00    +0.000 A 
ATOM     17  C   UNL     1       1.381   4.575  20.197  0.00  0.00    +0.000 A 
ATOM     18  C   UNL     1       0.849   3.504  19.491  0.00  0.00    +0.000 A 
ATOM     19  C   UNL     1       1.248   3.255  18.185  0.00  0.00    +0.000 A 
ATOM     20  C   UNL     1       2.236   4.052  17.595  0.00  0.00    +0.000 A 
BRANCH  18  21
ATOM     21  O   UNL     1      -0.074   2.674  20.057  0.00  0.00    +0.000 OA
ATOM     22  H   UNL     1       0.189   2.498  20.976  0.00  0.00    +0.000 HD
ENDBRANCH  18  21
ENDBRANCH  14  15
ENDBRANCH   1  14
TORSDOF 5
ENDMDL
MODEL 5
REMARK VINA RESULT:      -6.7      2.919      3.784
REMARK  Name = 
REMARK  5 active torsions:
REMARK  status: ('A' for Active; 'I' for Inactive)
REMARK    1  A    between atoms: C_2  and  C_3
REMARK    2  A    between atoms: C_3  and  C_4
REMARK    3  A    between atoms: C_4  and  C_5
REMARK    4  A    between atoms: C_8  and  O_9
REMARK    5  A    between atoms: C_16  and  O_17
REMARK                            x       y       z     vdW  Elec       q    Type
REMARK                         _______ _______ _______ _____ _____    ______ ____
ROOT
ATOM      1  C   UNL     1       5.410   5.419  16.959  0.00  0.00    +0.000 C 
ATOM      2  C   UNL     1       5.798   4.186  17.832  0.00  0.00    +0.000 C 
ATOM      3  C   UNL     1       6.990   4.535  18.737  0.00  0.00    +0.000 C 
ATOM      4  C   UNL     1       7.317   5.940  18.367  0.00  0.00    +0.000 A 
ATOM      5  C   UNL     1       8.275   6.743  18.977  0.00  0.00    +0.000 A 
ATOM      6  C   UNL     1       8.370   8.072  18.574  0.00  0.00    +0.000 A 
ATOM      7  C   UNL     1       7.563   8.571  17.550  0.00  0.00    +0.000 A 
ATOM      8  C   UNL     1       6.616   7.748  16.931  0.00  0.00    +0.000 A 
ATOM      9  C   UNL     1       6.474   6.433  17.368  0.00  0.00    +0.000 A 
ENDROOT
BRANCH   1  11
ATOM     10  N   UNL     1       5.584   4.788  14.402  0.00  0.00    +0.000 NA
ATOM     11  C   UNL     1       5.520   5.068  15.523  0.00  0.00    +0.000 C 
ENDBRANCH   1  11
BRANCH   6  12
ATOM     12  O   UNL     1       9.220   8.942  19.192  0.00  0.00    +0.000 OA
ATOM     13  H   UNL     1       9.312   9.736  18.640  0.00  0.00    +0.000 HD
ENDBRANCH   6  12
BRANCH   1  14
ATOM     14  C   UNL     1       3.989   5.985  17.272  0.00  0.00    +0.000 C 
BRANCH  14  15
ATOM     15  C   UNL     1       3.077   5.181  18.187  0.00  0.00    +0.000 A 
ATOM     16  C   UNL     1       2.214   4.203  17.666  0.00  0.00    +0.000 A 
ATOM     17  C   UNL     1       1.339   3.494  18.499  0.00  0.00    +0.000 A 
ATOM     18  C   UNL     1       1.353   3.728  19.867  0.00  0.00    +0.000 A 
ATOM     19  C   UNL     1       2.248   4.638  20.416  0.00  0.00    +0.000 A 
ATOM     20  C   UNL     1       3.101   5.367  19.579  0.00  0.00    +0.000 A 
BRANCH  18  21
ATOM     21  O   UNL     1       0.496   3.076  20.705  0.00  0.00    +0.000 OA
ATOM     22  H   UNL     1       0.406   2.157  20.402  0.00  0.00    +0.000 HD
ENDBRANCH  18  21
ENDBRANCH  14  15
ENDBRANCH   1  14
TORSDOF 5
ENDMDL
MODEL 6
REMARK VINA RESULT:      -6.6      1.769      5.230
REMARK  Name = 
REMARK  5 active torsions:
REMARK  status: ('A' for Active; 'I' for Inactive)
REMARK    1  A    between atoms: C_2  and  C_3
REMARK    2  A    between atoms: C_3  and  C_4
REMARK    3  A    between atoms: C_4  and  C_5
REMARK    4  A    between atoms: C_8  and  O_9
REMARK    5  A    between atoms: C_16  and  O_17
REMARK                            x       y       z     vdW  Elec       q    Type
REMARK                         _______ _______ _______ _____ _____    ______ ____
ROOT
ATOM      1  C   UNL     1       2.954   3.429  19.633  0.00  0.00    +0.000 C 
ATOM      2  C   UNL     1       2.276   2.682  18.444  0.00  0.00    +0.000 C 
ATOM      3  C   UNL     1       1.640   3.696  17.479  0.00  0.00    +0.000 C 
ATOM      4  C   UNL     1       1.911   5.013  18.119  0.00  0.00    +0.000 A 
ATOM      5  C   UNL     1       1.609   6.259  17.581  0.00  0.00    +0.000 A 
ATOM      6  C   UNL     1       2.036   7.391  18.269  0.00  0.00    +0.000 A 
ATOM      7  C   UNL     1       2.700   7.281  19.492  0.00  0.00    +0.000 A 
ATOM      8  C   UNL     1       2.980   6.021  20.033  0.00  0.00    +0.000 A 
ATOM      9  C   UNL     1       2.610   4.882  19.322  0.00  0.00    +0.000 A 
ENDROOT
BRANCH   1  11
ATOM     10  N   UNL     1       1.850   2.645  21.898  0.00  0.00    +0.000 NA
ATOM     11  C   UNL     1       2.346   2.989  20.911  0.00  0.00    +0.000 C 
ENDBRANCH   1  11
BRANCH   6  12
ATOM     12  O   UNL     1       1.859   8.643  17.756  0.00  0.00    +0.000 OA
ATOM     13  H   UNL     1       1.461   8.567  16.874  0.00  0.00    +0.000 HD
ENDBRANCH   6  12
BRANCH   1  14
ATOM     14  C   UNL     1       4.505   3.250  19.681  0.00  0.00    +0.000 C 
BRANCH  14  15
ATOM     15  C   UNL     1       5.357   4.093  18.744  0.00  0.00    +0.000 A 
ATOM     16  C   UNL     1       6.236   5.067  19.247  0.00  0.00    +0.000 A 
ATOM     17  C   UNL     1       6.986   5.878  18.386  0.00  0.00    +0.000 A 
ATOM     18  C   UNL     1       6.895   5.690  17.013  0.00  0.00    +0.000 A 
ATOM     19  C   UNL     1       6.089   4.686  16.493  0.00  0.00    +0.000 A 
ATOM     20  C   UNL     1       5.317   3.896  17.354  0.00  0.00    +0.000 A 
BRANCH  18  21
ATOM     21  O   UNL     1       7.590   6.479  16.144  0.00  0.00    +0.000 OA
ATOM     22  H   UNL     1       8.427   6.739  16.564  0.00  0.00    +0.000 HD
ENDBRANCH  18  21
ENDBRANCH  14  15
ENDBRANCH   1  14
TORSDOF 5
ENDMDL
MODEL 7
REMARK VINA RESULT:      -6.6      1.098      1.664
REMARK  Name = 
REMARK  5 active torsions:
REMARK  status: ('A' for Active; 'I' for Inactive)
REMARK    1  A    between atoms: C_2  and  C_3
REMARK    2  A    between atoms: C_3  and  C_4
REMARK    3  A    between atoms: C_4  and  C_5
REMARK    4  A    between atoms: C_8  and  O_9
REMARK    5  A    between atoms: C_16  and  O_17
REMARK                            x       y       z     vdW  Elec       q    Type
REMARK                         _______ _______ _______ _____ _____    ______ ____
ROOT
ATOM      1  C   UNL     1       4.711   4.969  18.027  0.00  0.00    +0.000 C 
ATOM      2  C   UNL     1       5.543   6.138  18.638  0.00  0.00    +0.000 C 
ATOM      3  C   UNL     1       6.651   6.563  17.661  0.00  0.00    +0.000 C 
ATOM      4  C   UNL     1       6.489   5.628  16.513  0.00  0.00    +0.000 A 
ATOM      5  C   UNL     1       7.206   5.667  15.322  0.00  0.00    +0.000 A 
ATOM      6  C   UNL     1       6.845   4.781  14.311  0.00  0.00    +0.000 A 
ATOM      7  C   UNL     1       5.829   3.845  14.505  0.00  0.00    +0.000 A 
ATOM      8  C   UNL     1       5.128   3.803  15.715  0.00  0.00    +0.000 A 
ATOM      9  C   UNL     1       5.442   4.724  16.711  0.00  0.00    +0.000 A 
ENDROOT
BRANCH   1  11
ATOM     10  N   UNL     1       4.846   2.875  19.627  0.00  0.00    +0.000 NA
ATOM     11  C   UNL     1       4.784   3.786  18.916  0.00  0.00    +0.000 C 
ENDBRANCH   1  11
BRANCH   6  12
ATOM     12  O   UNL     1       7.440   4.825  13.083  0.00  0.00    +0.000 OA
ATOM     13  H   UNL     1       7.466   3.927  12.715  0.00  0.00    +0.000 HD
ENDBRANCH   6  12
BRANCH   1  14
ATOM     14  C   UNL     1       3.221   5.343  17.744  0.00  0.00    +0.000 C 
BRANCH  14  15
ATOM     15  C   UNL     1       2.639   6.563  18.443  0.00  0.00    +0.000 A 
ATOM     16  C   UNL     1       2.316   6.526  19.809  0.00  0.00    +0.000 A 
ATOM     17  C   UNL     1       1.736   7.631  20.445  0.00  0.00    +0.000 A 
ATOM     18  C   UNL     1       1.514   8.798  19.727  0.00  0.00    +0.000 A 
ATOM     19  C   UNL     1       1.891   8.885  18.393  0.00  0.00    +0.000 A 
ATOM     20  C   UNL     1       2.443   7.770  17.751  0.00  0.00    +0.000 A 
BRANCH  18  21
ATOM     21  O   UNL     1       0.926   9.884  20.307  0.00  0.00    +0.000 OA
ATOM     22  H   UNL     1       0.451   9.591  21.103  0.00  0.00    +0.000 HD
ENDBRANCH  18  21
ENDBRANCH  14  15
ENDBRANCH   1  14
TORSDOF 5
ENDMDL
MODEL 8
REMARK VINA RESULT:      -6.6      1.757      5.325
REMARK  Name = 
REMARK  5 active torsions:
REMARK  status: ('A' for Active; 'I' for Inactive)
REMARK    1  A    between atoms: C_2  and  C_3
REMARK    2  A    between atoms: C_3  and  C_4
REMARK    3  A    between atoms: C_4  and  C_5
REMARK    4  A    between atoms: C_8  and  O_9
REMARK    5  A    between atoms: C_16  and  O_17
REMARK                            x       y       z     vdW  Elec       q    Type
REMARK                         _______ _______ _______ _____ _____    ______ ____
ROOT
ATOM      1  C   UNL     1       2.970   3.539  19.553  0.00  0.00    +0.000 C 
ATOM      2  C   UNL     1       2.111   2.788  18.490  0.00  0.00    +0.000 C 
ATOM      3  C   UNL     1       1.441   3.798  17.545  0.00  0.00    +0.000 C 
ATOM      4  C   UNL     1       1.873   5.121  18.075  0.00  0.00    +0.000 A 
ATOM      5  C   UNL     1       1.599   6.358  17.503  0.00  0.00    +0.000 A 
ATOM      6  C   UNL     1       2.178   7.487  18.075  0.00  0.00    +0.000 A 
ATOM      7  C   UNL     1       2.968   7.387  19.221  0.00  0.00    +0.000 A 
ATOM      8  C   UNL     1       3.220   6.139  19.799  0.00  0.00    +0.000 A 
ATOM      9  C   UNL     1       2.694   4.997  19.199  0.00  0.00    +0.000 A 
ENDROOT
BRANCH   1  11
ATOM     10  N   UNL     1       2.122   2.950  21.982  0.00  0.00    +0.000 NA
ATOM     11  C   UNL     1       2.482   3.209  20.913  0.00  0.00    +0.000 C 
ENDBRANCH   1  11
BRANCH   6  12
ATOM     12  O   UNL     1       2.031   8.722  17.512  0.00  0.00    +0.000 OA
ATOM     13  H   UNL     1       2.889   9.177  17.526  0.00  0.00    +0.000 HD
ENDBRANCH   6  12
BRANCH   1  14
ATOM     14  C   UNL     1       4.500   3.247  19.441  0.00  0.00    +0.000 C 
BRANCH  14  15
ATOM     15  C   UNL     1       5.280   3.910  18.315  0.00  0.00    +0.000 A 
ATOM     16  C   UNL     1       4.995   3.618  16.971  0.00  0.00    +0.000 A 
ATOM     17  C   UNL     1       5.741   4.190  15.933  0.00  0.00    +0.000 A 
ATOM     18  C   UNL     1       6.752   5.094  16.232  0.00  0.00    +0.000 A 
ATOM     19  C   UNL     1       7.006   5.454  17.548  0.00  0.00    +0.000 A 
ATOM     20  C   UNL     1       6.279   4.860  18.587  0.00  0.00    +0.000 A 
BRANCH  18  21
ATOM     21  O   UNL     1       7.517   5.648  15.248  0.00  0.00    +0.000 OA
ATOM     22  H   UNL     1       7.148   6.518  15.021  0.00  0.00    +0.000 HD
ENDBRANCH  18  21
ENDBRANCH  14  15
ENDBRANCH   1  14
TORSDOF 5
ENDMDL
MODEL 9
REMARK VINA RESULT:      -6.5      1.118      1.323
REMARK  Name = 
REMARK  5 active torsions:
REMARK  status: ('A' for Active; 'I' for Inactive)
REMARK    1  A    between atoms: C_2  and  C_3
REMARK    2  A    between atoms: C_3  and  C_4
REMARK    3  A    between atoms: C_4  and  C_5
REMARK    4  A    between atoms: C_8  and  O_9
REMARK    5  A    between atoms: C_16  and  O_17
REMARK                            x       y       z     vdW  Elec       q    Type
REMARK                         _______ _______ _______ _____ _____    ______ ____
ROOT
ATOM      1  C   UNL     1       4.733   5.029  18.009  0.00  0.00    +0.000 C 
ATOM      2  C   UNL     1       5.550   6.234  18.567  0.00  0.00    +0.000 C 
ATOM      3  C   UNL     1       6.645   6.638  17.567  0.00  0.00    +0.000 C 
ATOM      4  C   UNL     1       6.492   5.655  16.458  0.00  0.00    +0.000 A 
ATOM      5  C   UNL     1       7.202   5.657  15.262  0.00  0.00    +0.000 A 
ATOM      6  C   UNL     1       6.850   4.726  14.289  0.00  0.00    +0.000 A 
ATOM      7  C   UNL     1       5.850   3.782  14.527  0.00  0.00    +0.000 A 
ATOM      8  C   UNL     1       5.156   3.777  15.742  0.00  0.00    +0.000 A 
ATOM      9  C   UNL     1       5.461   4.743  16.698  0.00  0.00    +0.000 A 
ENDROOT
BRANCH   1  11
ATOM     10  N   UNL     1       4.910   3.003  19.691  0.00  0.00    +0.000 NA
ATOM     11  C   UNL     1       4.830   3.883  18.944  0.00  0.00    +0.000 C 
ENDBRANCH   1  11
BRANCH   6  12
ATOM     12  O   UNL     1       7.437   4.730  13.057  0.00  0.00    +0.000 OA
ATOM     13  H   UNL     1       6.765   4.520  12.389  0.00  0.00    +0.000 HD
ENDBRANCH   6  12
BRANCH   1  14
ATOM     14  C   UNL     1       3.235   5.367  17.720  0.00  0.00    +0.000 C 
BRANCH  14  15
ATOM     15  C   UNL     1       2.613   6.555  18.439  0.00  0.00    +0.000 A 
ATOM     16  C   UNL     1       2.334   7.748  17.752  0.00  0.00    +0.000 A 
ATOM     17  C   UNL     1       1.805   8.860  18.420  0.00  0.00    +0.000 A 
ATOM     18  C   UNL     1       1.512   8.771  19.774  0.00  0.00    +0.000 A 
ATOM     19  C   UNL     1       1.712   7.581  20.460  0.00  0.00    +0.000 A 
ATOM     20  C   UNL     1       2.268   6.479  19.798  0.00  0.00    +0.000 A 
BRANCH  18  21
ATOM     21  O   UNL     1       1.023   9.842  20.463  0.00  0.00    +0.000 OA
ATOM     22  H   UNL     1       0.557  10.425  19.840  0.00  0.00    +0.000 HD
ENDBRANCH  18  21
ENDBRANCH  14  15
ENDBRANCH   1  14
TORSDOF 5
ENDMDL
