MODEL 1
REMARK VINA RESULT:      -9.0      0.000      0.000
REMARK  Name = 
REMARK  9 active torsions:
REMARK  status: ('A' for Active; 'I' for Inactive)
REMARK    1  A    between atoms: C_1  and  O_2
REMARK    2  A    between atoms: O_2  and  C_3
REMARK    3  A    between atoms: C_10  and  C_11
REMARK    4  A    between atoms: C_14  and  O_15
REMARK    5  A    between atoms: O_15  and  C_16
REMARK    6  A    between atoms: C_16  and  C_18
REMARK    7  A    between atoms: C_24  and  O_25
REMARK    8  A    between atoms: O_25  and  C_26
REMARK    9  A    between atoms: C_26  and  C_28
REMARK                            x       y       z     vdW  Elec       q    Type
REMARK                         _______ _______ _______ _____ _____    ______ ____
ROOT
ATOM      1  C   UNL     1       1.165   9.289  19.647  0.00  0.00    +0.000 A 
ATOM      2  C   UNL     1       1.497   9.536  18.308  0.00  0.00    +0.000 A 
ATOM      3  C   UNL     1       2.251   8.615  17.575  0.00  0.00    +0.000 A 
ATOM      4  C   UNL     1       2.693   7.426  18.161  0.00  0.00    +0.000 A 
ATOM      5  C   UNL     1       2.338   7.141  19.482  0.00  0.00    +0.000 A 
ATOM      6  C   UNL     1       1.614   8.083  20.231  0.00  0.00    +0.000 A 
ENDROOT
BRANCH   1  14
ATOM      7  C   UNL     1       2.929  14.162  19.789  0.00  0.00    +0.000 A 
ATOM      8  C   UNL     1       2.152  14.512  18.682  0.00  0.00    +0.000 A 
ATOM      9  C   UNL     1       0.997  13.785  18.380  0.00  0.00    +0.000 A 
ATOM     10  C   UNL     1       0.634  12.697  19.177  0.00  0.00    +0.000 A 
ATOM     11  C   UNL     1       1.421  12.323  20.263  0.00  0.00    +0.000 A 
ATOM     12  C   UNL     1       2.558  13.068  20.576  0.00  0.00    +0.000 A 
ATOM     13  O   UNL     1       1.139  11.263  21.080  0.00  0.00    +0.000 OA
ATOM     14  C   UNL     1       0.315  10.248  20.480  0.00  0.00    +0.000 C 
ATOM     15  C   UNL     1      -0.945  10.837  19.849  0.00  0.00    +0.000 C 
ATOM     16  C   UNL     1      -0.600  11.945  18.892  0.00  0.00    +0.000 C 
ATOM     17  O   UNL     1      -1.326  12.248  17.954  0.00  0.00    +0.000 OA
BRANCH   7  19
ATOM     18  C   UNL     1       4.159  15.183  21.537  0.00  0.00    +0.000 C 
ATOM     19  O   UNL     1       4.084  14.787  20.171  0.00  0.00    +0.000 OA
ENDBRANCH   7  19
ENDBRANCH   1  14
BRANCH   4  20
ATOM     20  O   UNL     1       3.369   6.461  17.396  0.00  0.00    +0.000 OA
BRANCH  20  21
ATOM     21  C   UNL     1       4.547   6.845  16.792  0.00  0.00    +0.000 C 
ATOM     22  O   UNL     1       4.684   7.225  15.642  0.00  0.00    +0.000 OA
BRANCH  21  23
ATOM     23  C   UNL     1       5.695   6.598  17.714  0.00  0.00    +0.000 A 
ATOM     24  C   UNL     1       6.851   7.375  17.551  0.00  0.00    +0.000 A 
ATOM     25  C   UNL     1       8.014   7.064  18.258  0.00  0.00    +0.000 A 
ATOM     26  C   UNL     1       8.027   5.981  19.136  0.00  0.00    +0.000 A 
ATOM     27  C   UNL     1       6.869   5.230  19.336  0.00  0.00    +0.000 A 
ATOM     28  C   UNL     1       5.703   5.538  18.633  0.00  0.00    +0.000 A 
ENDBRANCH  21  23
ENDBRANCH  20  21
ENDBRANCH   4  20
BRANCH   5  29
ATOM     29  O   UNL     1       2.725   5.966  20.163  0.00  0.00    +0.000 OA
BRANCH  29  30
ATOM     30  C   UNL     1       1.877   4.866  20.179  0.00  0.00    +0.000 C 
ATOM     31  O   UNL     1       0.794   4.776  20.739  0.00  0.00    +0.000 OA
BRANCH  30  32
ATOM     32  C   UNL     1       2.485   3.727  19.427  0.00  0.00    +0.000 A 
ATOM     33  C   UNL     1       2.044   3.328  18.158  0.00  0.00    +0.000 A 
ATOM     34  C   UNL     1       2.625   2.220  17.528  0.00  0.00    +0.000 A 
ATOM     35  C   UNL     1       3.649   1.511  18.154  0.00  0.00    +0.000 A 
ATOM     36  C   UNL     1       4.111   1.916  19.404  0.00  0.00    +0.000 A 
ATOM     37  C   UNL     1       3.533   3.020  20.037  0.00  0.00    +0.000 A 
ENDBRANCH  30  32
ENDBRANCH  29  30
ENDBRANCH   5  29
TORSDOF 8
ENDMDL
MODEL 2
REMARK VINA RESULT:      -8.8      2.365      8.225
REMARK  Name = 
REMARK  9 active torsions:
REMARK  status: ('A' for Active; 'I' for Inactive)
REMARK    1  A    between atoms: C_1  and  O_2
REMARK    2  A    between atoms: O_2  and  C_3
REMARK    3  A    between atoms: C_10  and  C_11
REMARK    4  A    between atoms: C_14  and  O_15
REMARK    5  A    between atoms: O_15  and  C_16
REMARK    6  A    between atoms: C_16  and  C_18
REMARK    7  A    between atoms: C_24  and  O_25
REMARK    8  A    between atoms: O_25  and  C_26
REMARK    9  A    between atoms: C_26  and  C_28
REMARK                            x       y       z     vdW  Elec       q    Type
REMARK                         _______ _______ _______ _____ _____    ______ ____
ROOT
ATOM      1  C   UNL     1       2.436   6.046  18.849  0.00  0.00    +0.000 A 
ATOM      2  C   UNL     1       1.925   5.454  20.012  0.00  0.00    +0.000 A 
ATOM      3  C   UNL     1       1.304   6.227  20.996  0.00  0.00    +0.000 A 
ATOM      4  C   UNL     1       1.179   7.610  20.846  0.00  0.00    +0.000 A 
ATOM      5  C   UNL     1       1.646   8.216  19.676  0.00  0.00    +0.000 A 
ATOM      6  C   UNL     1       2.303   7.445  18.703  0.00  0.00    +0.000 A 
ENDROOT
BRANCH   1  14
ATOM      7  C   UNL     1       7.309   7.440  17.759  0.00  0.00    +0.000 A 
ATOM      8  C   UNL     1       7.815   6.505  18.663  0.00  0.00    +0.000 A 
ATOM      9  C   UNL     1       7.060   5.379  19.002  0.00  0.00    +0.000 A 
ATOM     10  C   UNL     1       5.790   5.204  18.448  0.00  0.00    +0.000 A 
ATOM     11  C   UNL     1       5.266   6.149  17.570  0.00  0.00    +0.000 A 
ATOM     12  C   UNL     1       6.034   7.257  17.215  0.00  0.00    +0.000 A 
ATOM     13  O   UNL     1       4.026   6.054  16.999  0.00  0.00    +0.000 OA
ATOM     14  C   UNL     1       3.092   5.240  17.729  0.00  0.00    +0.000 C 
ATOM     15  C   UNL     1       3.675   3.868  18.065  0.00  0.00    +0.000 C 
ATOM     16  C   UNL     1       4.998   4.004  18.767  0.00  0.00    +0.000 C 
ATOM     17  O   UNL     1       5.427   3.144  19.525  0.00  0.00    +0.000 OA
BRANCH   7  19
ATOM     18  C   UNL     1       8.568   9.342  18.400  0.00  0.00    +0.000 C 
ATOM     19  O   UNL     1       7.948   8.585  17.366  0.00  0.00    +0.000 OA
ENDBRANCH   7  19
ENDBRANCH   1  14
BRANCH   4  20
ATOM     20  O   UNL     1       0.473   8.372  21.792  0.00  0.00    +0.000 OA
BRANCH  20  21
ATOM     21  C   UNL     1       1.128   9.447  22.353  0.00  0.00    +0.000 C 
ATOM     22  O   UNL     1       2.253   9.449  22.822  0.00  0.00    +0.000 OA
BRANCH  21  23
ATOM     23  C   UNL     1       0.201  10.615  22.443  0.00  0.00    +0.000 A 
ATOM     24  C   UNL     1      -0.990  10.457  23.166  0.00  0.00    +0.000 A 
ATOM     25  C   UNL     1      -1.973  11.447  23.129  0.00  0.00    +0.000 A 
ATOM     26  C   UNL     1      -1.769  12.603  22.376  0.00  0.00    +0.000 A 
ATOM     27  C   UNL     1      -0.570  12.786  21.689  0.00  0.00    +0.000 A 
ATOM     28  C   UNL     1       0.417  11.799  21.724  0.00  0.00    +0.000 A 
ENDBRANCH  21  23
ENDBRANCH  20  21
ENDBRANCH   4  20
BRANCH   5  29
ATOM     29  O   UNL     1       1.559   9.602  19.421  0.00  0.00    +0.000 OA
BRANCH  29  30
ATOM     30  C   UNL     1       1.262  10.052  18.141  0.00  0.00    +0.000 C 
ATOM     31  O   UNL     1       2.042  10.207  17.212  0.00  0.00    +0.000 OA
BRANCH  30  32
ATOM     32  C   UNL     1      -0.190  10.384  18.027  0.00  0.00    +0.000 A 
ATOM     33  C   UNL     1      -1.138   9.493  17.506  0.00  0.00    +0.000 A 
ATOM     34  C   UNL     1      -2.477   9.885  17.382  0.00  0.00    +0.000 A 
ATOM     35  C   UNL     1      -2.878  11.159  17.782  0.00  0.00    +0.000 A 
ATOM     36  C   UNL     1      -1.947  12.042  18.326  0.00  0.00    +0.000 A 
ATOM     37  C   UNL     1      -0.610  11.655  18.450  0.00  0.00    +0.000 A 
ENDBRANCH  30  32
ENDBRANCH  29  30
ENDBRANCH   5  29
TORSDOF 8
ENDMDL
MODEL 3
REMARK VINA RESULT:      -8.7      2.060      8.423
REMARK  Name = 
REMARK  9 active torsions:
REMARK  status: ('A' for Active; 'I' for Inactive)
REMARK    1  A    between atoms: C_1  and  O_2
REMARK    2  A    between atoms: O_2  and  C_3
REMARK    3  A    between atoms: C_10  and  C_11
REMARK    4  A    between atoms: C_14  and  O_15
REMARK    5  A    between atoms: O_15  and  C_16
REMARK    6  A    between atoms: C_16  and  C_18
REMARK    7  A    between atoms: C_24  and  O_25
REMARK    8  A    between atoms: O_25  and  C_26
REMARK    9  A    between atoms: C_26  and  C_28
REMARK                            x       y       z     vdW  Elec       q    Type
REMARK                         _______ _______ _______ _____ _____    ______ ____
ROOT
ATOM      1  C   UNL     1       2.524   5.996  18.708  0.00  0.00    +0.000 A 
ATOM      2  C   UNL     1       1.936   5.442  19.854  0.00  0.00    +0.000 A 
ATOM      3  C   UNL     1       1.258   6.248  20.772  0.00  0.00    +0.000 A 
ATOM      4  C   UNL     1       1.150   7.626  20.571  0.00  0.00    +0.000 A 
ATOM      5  C   UNL     1       1.694   8.193  19.415  0.00  0.00    +0.000 A 
ATOM      6  C   UNL     1       2.408   7.390  18.511  0.00  0.00    +0.000 A 
ENDROOT
BRANCH   1  14
ATOM      7  C   UNL     1       7.410   7.452  17.762  0.00  0.00    +0.000 A 
ATOM      8  C   UNL     1       7.896   6.573  18.732  0.00  0.00    +0.000 A 
ATOM      9  C   UNL     1       7.150   5.447  19.092  0.00  0.00    +0.000 A 
ATOM     10  C   UNL     1       5.910   5.215  18.494  0.00  0.00    +0.000 A 
ATOM     11  C   UNL     1       5.405   6.104  17.549  0.00  0.00    +0.000 A 
ATOM     12  C   UNL     1       6.164   7.213  17.174  0.00  0.00    +0.000 A 
ATOM     13  O   UNL     1       4.194   5.953  16.931  0.00  0.00    +0.000 OA
ATOM     14  C   UNL     1       3.247   5.153  17.659  0.00  0.00    +0.000 C 
ATOM     15  C   UNL     1       3.843   3.813  18.086  0.00  0.00    +0.000 C 
ATOM     16  C   UNL     1       5.131   4.014  18.837  0.00  0.00    +0.000 C 
ATOM     17  O   UNL     1       5.545   3.201  19.654  0.00  0.00    +0.000 OA
BRANCH   7  19
ATOM     18  C   UNL     1       8.580   9.422  18.364  0.00  0.00    +0.000 C 
ATOM     19  O   UNL     1       8.040   8.591  17.342  0.00  0.00    +0.000 OA
ENDBRANCH   7  19
ENDBRANCH   1  14
BRANCH   4  20
ATOM     20  O   UNL     1       0.389   8.419  21.446  0.00  0.00    +0.000 OA
BRANCH  20  21
ATOM     21  C   UNL     1       1.038   9.450  22.090  0.00  0.00    +0.000 C 
ATOM     22  O   UNL     1       2.164   9.422  22.558  0.00  0.00    +0.000 OA
BRANCH  21  23
ATOM     23  C   UNL     1       0.106  10.603  22.270  0.00  0.00    +0.000 A 
ATOM     24  C   UNL     1       0.502  11.854  21.775  0.00  0.00    +0.000 A 
ATOM     25  C   UNL     1      -0.241  12.998  22.076  0.00  0.00    +0.000 A 
ATOM     26  C   UNL     1      -1.385  12.897  22.867  0.00  0.00    +0.000 A 
ATOM     27  C   UNL     1      -1.809  11.651  23.327  0.00  0.00    +0.000 A 
ATOM     28  C   UNL     1      -1.070  10.504  23.028  0.00  0.00    +0.000 A 
ENDBRANCH  21  23
ENDBRANCH  20  21
ENDBRANCH   4  20
BRANCH   5  29
ATOM     29  O   UNL     1       1.632   9.571  19.113  0.00  0.00    +0.000 OA
BRANCH  29  30
ATOM     30  C   UNL     1       0.554  10.073  18.395  0.00  0.00    +0.000 C 
ATOM     31  O   UNL     1      -0.255   9.437  17.734  0.00  0.00    +0.000 OA
BRANCH  30  32
ATOM     32  C   UNL     1       0.509  11.563  18.493  0.00  0.00    +0.000 A 
ATOM     33  C   UNL     1      -0.685  12.295  18.461  0.00  0.00    +0.000 A 
ATOM     34  C   UNL     1      -0.654  13.694  18.507  0.00  0.00    +0.000 A 
ATOM     35  C   UNL     1       0.564  14.369  18.594  0.00  0.00    +0.000 A 
ATOM     36  C   UNL     1       1.755  13.649  18.653  0.00  0.00    +0.000 A 
ATOM     37  C   UNL     1       1.728  12.252  18.604  0.00  0.00    +0.000 A 
ENDBRANCH  30  32
ENDBRANCH  29  30
ENDBRANCH   5  29
TORSDOF 8
ENDMDL
MODEL 4
REMARK VINA RESULT:      -8.6      2.007      8.906
REMARK  Name = 
REMARK  9 active torsions:
REMARK  status: ('A' for Active; 'I' for Inactive)
REMARK    1  A    between atoms: C_1  and  O_2
REMARK    2  A    between atoms: O_2  and  C_3
REMARK    3  A    between atoms: C_10  and  C_11
REMARK    4  A    between atoms: C_14  and  O_15
REMARK    5  A    between atoms: O_15  and  C_16
REMARK    6  A    between atoms: C_16  and  C_18
REMARK    7  A    between atoms: C_24  and  O_25
REMARK    8  A    between atoms: O_25  and  C_26
REMARK    9  A    between atoms: C_26  and  C_28
REMARK                            x       y       z     vdW  Elec       q    Type
REMARK                         _______ _______ _______ _____ _____    ______ ____
ROOT
ATOM      1  C   UNL     1       1.990   7.391  18.922  0.00  0.00    +0.000 A 
ATOM      2  C   UNL     1       2.041   7.175  20.306  0.00  0.00    +0.000 A 
ATOM      3  C   UNL     1       1.716   8.197  21.203  0.00  0.00    +0.000 A 
ATOM      4  C   UNL     1       1.331   9.458  20.741  0.00  0.00    +0.000 A 
ATOM      5  C   UNL     1       1.234   9.682  19.365  0.00  0.00    +0.000 A 
ATOM      6  C   UNL     1       1.598   8.668  18.464  0.00  0.00    +0.000 A 
ENDROOT
BRANCH   1  14
ATOM      7  C   UNL     1       7.014   6.943  17.721  0.00  0.00    +0.000 A 
ATOM      8  C   UNL     1       7.204   5.992  18.726  0.00  0.00    +0.000 A 
ATOM      9  C   UNL     1       6.126   5.228  19.180  0.00  0.00    +0.000 A 
ATOM     10  C   UNL     1       4.854   5.433  18.641  0.00  0.00    +0.000 A 
ATOM     11  C   UNL     1       4.651   6.401  17.660  0.00  0.00    +0.000 A 
ATOM     12  C   UNL     1       5.735   7.143  17.191  0.00  0.00    +0.000 A 
ATOM     13  O   UNL     1       3.435   6.669  17.095  0.00  0.00    +0.000 OA
ATOM     14  C   UNL     1       2.304   6.298  17.902  0.00  0.00    +0.000 C 
ATOM     15  C   UNL     1       2.404   4.854  18.391  0.00  0.00    +0.000 C 
ATOM     16  C   UNL     1       3.717   4.610  19.083  0.00  0.00    +0.000 C 
ATOM     17  O   UNL     1       3.856   3.740  19.934  0.00  0.00    +0.000 OA
BRANCH   7  19
ATOM     18  C   UNL     1       8.116   9.037  17.821  0.00  0.00    +0.000 C 
ATOM     19  O   UNL     1       7.987   7.758  17.210  0.00  0.00    +0.000 OA
ENDBRANCH   7  19
ENDBRANCH   1  14
BRANCH   4  20
ATOM     20  O   UNL     1       0.914  10.452  21.641  0.00  0.00    +0.000 OA
BRANCH  20  21
ATOM     21  C   UNL     1      -0.334  10.308  22.209  0.00  0.00    +0.000 C 
ATOM     22  O   UNL     1      -0.800   9.290  22.692  0.00  0.00    +0.000 OA
BRANCH  21  23
ATOM     23  C   UNL     1      -1.122  11.563  22.028  0.00  0.00    +0.000 A 
ATOM     24  C   UNL     1      -1.701  11.803  20.773  0.00  0.00    +0.000 A 
ATOM     25  C   UNL     1      -2.287  13.038  20.493  0.00  0.00    +0.000 A 
ATOM     26  C   UNL     1      -2.306  14.037  21.465  0.00  0.00    +0.000 A 
ATOM     27  C   UNL     1      -1.771  13.792  22.729  0.00  0.00    +0.000 A 
ATOM     28  C   UNL     1      -1.184  12.558  23.015  0.00  0.00    +0.000 A 
ENDBRANCH  21  23
ENDBRANCH  20  21
ENDBRANCH   4  20
BRANCH   5  29
ATOM     29  O   UNL     1       0.847  10.915  18.796  0.00  0.00    +0.000 OA
BRANCH  29  30
ATOM     30  C   UNL     1       1.800  11.896  18.559  0.00  0.00    +0.000 C 
ATOM     31  O   UNL     1       2.801  11.802  17.863  0.00  0.00    +0.000 OA
BRANCH  30  32
ATOM     32  C   UNL     1       1.472  13.139  19.321  0.00  0.00    +0.000 A 
ATOM     33  C   UNL     1       0.749  14.205  18.769  0.00  0.00    +0.000 A 
ATOM     34  C   UNL     1       0.518  15.362  19.523  0.00  0.00    +0.000 A 
ATOM     35  C   UNL     1       0.998  15.460  20.828  0.00  0.00    +0.000 A 
ATOM     36  C   UNL     1       1.696  14.396  21.394  0.00  0.00    +0.000 A 
ATOM     37  C   UNL     1       1.931  13.240  20.645  0.00  0.00    +0.000 A 
ENDBRANCH  30  32
ENDBRANCH  29  30
ENDBRANCH   5  29
TORSDOF 8
ENDMDL
MODEL 5
REMARK VINA RESULT:      -8.6      1.294      1.637
REMARK  Name = 
REMARK  9 active torsions:
REMARK  status: ('A' for Active; 'I' for Inactive)
REMARK    1  A    between atoms: C_1  and  O_2
REMARK    2  A    between atoms: O_2  and  C_3
REMARK    3  A    between atoms: C_10  and  C_11
REMARK    4  A    between atoms: C_14  and  O_15
REMARK    5  A    between atoms: O_15  and  C_16
REMARK    6  A    between atoms: C_16  and  C_18
REMARK    7  A    between atoms: C_24  and  O_25
REMARK    8  A    between atoms: O_25  and  C_26
REMARK    9  A    between atoms: C_26  and  C_28
REMARK                            x       y       z     vdW  Elec       q    Type
REMARK                         _______ _______ _______ _____ _____    ______ ____
ROOT
ATOM      1  C   UNL     1       1.142   9.368  19.759  0.00  0.00    +0.000 A 
ATOM      2  C   UNL     1       1.490   9.660  18.433  0.00  0.00    +0.000 A 
ATOM      3  C   UNL     1       2.255   8.766  17.679  0.00  0.00    +0.000 A 
ATOM      4  C   UNL     1       2.691   7.558  18.229  0.00  0.00    +0.000 A 
ATOM      5  C   UNL     1       2.320   7.228  19.536  0.00  0.00    +0.000 A 
ATOM      6  C   UNL     1       1.585   8.144  20.306  0.00  0.00    +0.000 A 
ENDROOT
BRANCH   1  14
ATOM      7  C   UNL     1       2.753  14.294  19.879  0.00  0.00    +0.000 A 
ATOM      8  C   UNL     1       1.942  14.622  18.790  0.00  0.00    +0.000 A 
ATOM      9  C   UNL     1       0.805  13.860  18.511  0.00  0.00    +0.000 A 
ATOM     10  C   UNL     1       0.493  12.758  19.311  0.00  0.00    +0.000 A 
ATOM     11  C   UNL     1       1.315  12.407  20.379  0.00  0.00    +0.000 A 
ATOM     12  C   UNL     1       2.434  13.186  20.670  0.00  0.00    +0.000 A 
ATOM     13  O   UNL     1       1.084  11.336  21.198  0.00  0.00    +0.000 OA
ATOM     14  C   UNL     1       0.280  10.297  20.612  0.00  0.00    +0.000 C 
ATOM     15  C   UNL     1      -1.012  10.848  20.011  0.00  0.00    +0.000 C 
ATOM     16  C   UNL     1      -0.722  11.969  19.050  0.00  0.00    +0.000 C 
ATOM     17  O   UNL     1      -1.477  12.252  18.129  0.00  0.00    +0.000 OA
BRANCH   7  19
ATOM     18  C   UNL     1       4.085  16.241  19.661  0.00  0.00    +0.000 C 
ATOM     19  O   UNL     1       3.896  14.954  20.239  0.00  0.00    +0.000 OA
ENDBRANCH   7  19
ENDBRANCH   1  14
BRANCH   4  20
ATOM     20  O   UNL     1       3.378   6.620  17.441  0.00  0.00    +0.000 OA
BRANCH  20  21
ATOM     21  C   UNL     1       4.747   6.754  17.350  0.00  0.00    +0.000 C 
ATOM     22  O   UNL     1       5.423   7.656  17.815  0.00  0.00    +0.000 OA
BRANCH  21  23
ATOM     23  C   UNL     1       5.303   5.691  16.460  0.00  0.00    +0.000 A 
ATOM     24  C   UNL     1       5.428   5.975  15.093  0.00  0.00    +0.000 A 
ATOM     25  C   UNL     1       5.764   4.963  14.191  0.00  0.00    +0.000 A 
ATOM     26  C   UNL     1       5.984   3.665  14.651  0.00  0.00    +0.000 A 
ATOM     27  C   UNL     1       5.904   3.384  16.015  0.00  0.00    +0.000 A 
ATOM     28  C   UNL     1       5.569   4.393  16.920  0.00  0.00    +0.000 A 
ENDBRANCH  21  23
ENDBRANCH  20  21
ENDBRANCH   4  20
BRANCH   5  29
ATOM     29  O   UNL     1       2.700   6.031  20.181  0.00  0.00    +0.000 OA
BRANCH  29  30
ATOM     30  C   UNL     1       1.838   4.942  20.180  0.00  0.00    +0.000 C 
ATOM     31  O   UNL     1       0.751   4.859  20.733  0.00  0.00    +0.000 OA
BRANCH  30  32
ATOM     32  C   UNL     1       2.435   3.804  19.418  0.00  0.00    +0.000 A 
ATOM     33  C   UNL     1       1.987   3.416  18.148  0.00  0.00    +0.000 A 
ATOM     34  C   UNL     1       2.558   2.309  17.509  0.00  0.00    +0.000 A 
ATOM     35  C   UNL     1       3.579   1.588  18.128  0.00  0.00    +0.000 A 
ATOM     36  C   UNL     1       4.048   1.981  19.379  0.00  0.00    +0.000 A 
ATOM     37  C   UNL     1       3.480   3.085  20.021  0.00  0.00    +0.000 A 
ENDBRANCH  30  32
ENDBRANCH  29  30
ENDBRANCH   5  29
TORSDOF 8
ENDMDL
MODEL 6
REMARK VINA RESULT:      -8.6      1.284      1.939
REMARK  Name = 
REMARK  9 active torsions:
REMARK  status: ('A' for Active; 'I' for Inactive)
REMARK    1  A    between atoms: C_1  and  O_2
REMARK    2  A    between atoms: O_2  and  C_3
REMARK    3  A    between atoms: C_10  and  C_11
REMARK    4  A    between atoms: C_14  and  O_15
REMARK    5  A    between atoms: O_15  and  C_16
REMARK    6  A    between atoms: C_16  and  C_18
REMARK    7  A    between atoms: C_24  and  O_25
REMARK    8  A    between atoms: O_25  and  C_26
REMARK    9  A    between atoms: C_26  and  C_28
REMARK                            x       y       z     vdW  Elec       q    Type
REMARK                         _______ _______ _______ _____ _____    ______ ____
ROOT
ATOM      1  C   UNL     1       1.110   9.323  19.809  0.00  0.00    +0.000 A 
ATOM      2  C   UNL     1       1.473   9.575  18.479  0.00  0.00    +0.000 A 
ATOM      3  C   UNL     1       2.208   8.639  17.747  0.00  0.00    +0.000 A 
ATOM      4  C   UNL     1       2.599   7.428  18.324  0.00  0.00    +0.000 A 
ATOM      5  C   UNL     1       2.213   7.139  19.636  0.00  0.00    +0.000 A 
ATOM      6  C   UNL     1       1.508   8.095  20.384  0.00  0.00    +0.000 A 
ENDROOT
BRANCH   1  14
ATOM      7  C   UNL     1       2.883  14.195  19.817  0.00  0.00    +0.000 A 
ATOM      8  C   UNL     1       2.083  14.524  18.720  0.00  0.00    +0.000 A 
ATOM      9  C   UNL     1       0.921  13.793  18.457  0.00  0.00    +0.000 A 
ATOM     10  C   UNL     1       0.574  12.721  19.282  0.00  0.00    +0.000 A 
ATOM     11  C   UNL     1       1.383  12.368  20.359  0.00  0.00    +0.000 A 
ATOM     12  C   UNL     1       2.528  13.117  20.634  0.00  0.00    +0.000 A 
ATOM     13  O   UNL     1       1.117  11.324  21.203  0.00  0.00    +0.000 OA
ATOM     14  C   UNL     1       0.279  10.300  20.640  0.00  0.00    +0.000 C 
ATOM     15  C   UNL     1      -0.993  10.879  20.025  0.00  0.00    +0.000 C 
ATOM     16  C   UNL     1      -0.667  11.967  19.039  0.00  0.00    +0.000 C 
ATOM     17  O   UNL     1      -1.411  12.252  18.110  0.00  0.00    +0.000 OA
BRANCH   7  19
ATOM     18  C   UNL     1       3.980  15.687  21.294  0.00  0.00    +0.000 C 
ATOM     19  O   UNL     1       4.047  14.825  20.163  0.00  0.00    +0.000 OA
ENDBRANCH   7  19
ENDBRANCH   1  14
BRANCH   4  20
ATOM     20  O   UNL     1       3.255   6.450  17.558  0.00  0.00    +0.000 OA
BRANCH  20  21
ATOM     21  C   UNL     1       4.594   6.647  17.295  0.00  0.00    +0.000 C 
ATOM     22  O   UNL     1       5.291   7.557  17.711  0.00  0.00    +0.000 OA
BRANCH  21  23
ATOM     23  C   UNL     1       5.067   5.647  16.292  0.00  0.00    +0.000 A 
ATOM     24  C   UNL     1       5.121   4.300  16.679  0.00  0.00    +0.000 A 
ATOM     25  C   UNL     1       5.726   3.352  15.851  0.00  0.00    +0.000 A 
ATOM     26  C   UNL     1       6.272   3.744  14.629  0.00  0.00    +0.000 A 
ATOM     27  C   UNL     1       6.184   5.073  14.218  0.00  0.00    +0.000 A 
ATOM     28  C   UNL     1       5.579   6.023  15.042  0.00  0.00    +0.000 A 
ENDBRANCH  21  23
ENDBRANCH  20  21
ENDBRANCH   4  20
BRANCH   5  29
ATOM     29  O   UNL     1       2.548   5.943  20.307  0.00  0.00    +0.000 OA
BRANCH  29  30
ATOM     30  C   UNL     1       1.688   4.854  20.250  0.00  0.00    +0.000 C 
ATOM     31  O   UNL     1       0.541   4.796  20.669  0.00  0.00    +0.000 OA
BRANCH  30  32
ATOM     32  C   UNL     1       2.368   3.682  19.621  0.00  0.00    +0.000 A 
ATOM     33  C   UNL     1       3.508   3.076  20.167  0.00  0.00    +0.000 A 
ATOM     34  C   UNL     1       4.126   2.011  19.500  0.00  0.00    +0.000 A 
ATOM     35  C   UNL     1       3.609   1.541  18.294  0.00  0.00    +0.000 A 
ATOM     36  C   UNL     1       2.461   2.119  17.757  0.00  0.00    +0.000 A 
ATOM     37  C   UNL     1       1.843   3.184  18.418  0.00  0.00    +0.000 A 
ENDBRANCH  30  32
ENDBRANCH  29  30
ENDBRANCH   5  29
TORSDOF 8
ENDMDL
MODEL 7
REMARK VINA RESULT:      -8.3      1.442      4.722
REMARK  Name = 
REMARK  9 active torsions:
REMARK  status: ('A' for Active; 'I' for Inactive)
REMARK    1  A    between atoms: C_1  and  O_2
REMARK    2  A    between atoms: O_2  and  C_3
REMARK    3  A    between atoms: C_10  and  C_11
REMARK    4  A    between atoms: C_14  and  O_15
REMARK    5  A    between atoms: O_15  and  C_16
REMARK    6  A    between atoms: C_16  and  C_18
REMARK    7  A    between atoms: C_24  and  O_25
REMARK    8  A    between atoms: O_25  and  C_26
REMARK    9  A    between atoms: C_26  and  C_28
REMARK                            x       y       z     vdW  Elec       q    Type
REMARK                         _______ _______ _______ _____ _____    ______ ____
ROOT
ATOM      1  C   UNL     1       1.457   9.616  18.743  0.00  0.00    +0.000 A 
ATOM      2  C   UNL     1       1.157   9.294  20.074  0.00  0.00    +0.000 A 
ATOM      3  C   UNL     1       1.505   8.049  20.606  0.00  0.00    +0.000 A 
ATOM      4  C   UNL     1       2.159   7.095  19.823  0.00  0.00    +0.000 A 
ATOM      5  C   UNL     1       2.504   7.411  18.506  0.00  0.00    +0.000 A 
ATOM      6  C   UNL     1       2.121   8.647  17.960  0.00  0.00    +0.000 A 
ENDROOT
BRANCH   1  14
ATOM      7  C   UNL     1      -1.960  12.436  21.437  0.00  0.00    +0.000 A 
ATOM      8  C   UNL     1      -0.934  13.061  22.148  0.00  0.00    +0.000 A 
ATOM      9  C   UNL     1       0.348  13.147  21.599  0.00  0.00    +0.000 A 
ATOM     10  C   UNL     1       0.604  12.586  20.346  0.00  0.00    +0.000 A 
ATOM     11  C   UNL     1      -0.406  11.934  19.644  0.00  0.00    +0.000 A 
ATOM     12  C   UNL     1      -1.690  11.874  20.185  0.00  0.00    +0.000 A 
ATOM     13  O   UNL     1      -0.229  11.349  18.420  0.00  0.00    +0.000 OA
ATOM     14  C   UNL     1       1.128  10.975  18.127  0.00  0.00    +0.000 C 
ATOM     15  C   UNL     1       2.099  12.132  18.355  0.00  0.00    +0.000 C 
ATOM     16  C   UNL     1       1.941  12.701  19.738  0.00  0.00    +0.000 C 
ATOM     17  O   UNL     1       2.853  13.278  20.317  0.00  0.00    +0.000 OA
BRANCH   7  19
ATOM     18  C   UNL     1      -3.950  13.473  22.196  0.00  0.00    +0.000 C 
ATOM     19  O   UNL     1      -3.245  12.278  21.878  0.00  0.00    +0.000 OA
ENDBRANCH   7  19
ENDBRANCH   1  14
BRANCH   4  20
ATOM     20  O   UNL     1       2.590   5.882  20.385  0.00  0.00    +0.000 OA
BRANCH  20  21
ATOM     21  C   UNL     1       1.778   4.782  20.214  0.00  0.00    +0.000 C 
ATOM     22  O   UNL     1       0.656   4.629  20.667  0.00  0.00    +0.000 OA
BRANCH  21  23
ATOM     23  C   UNL     1       2.523   3.707  19.494  0.00  0.00    +0.000 A 
ATOM     24  C   UNL     1       2.069   3.329  18.222  0.00  0.00    +0.000 A 
ATOM     25  C   UNL     1       2.609   2.211  17.585  0.00  0.00    +0.000 A 
ATOM     26  C   UNL     1       3.611   1.469  18.211  0.00  0.00    +0.000 A 
ATOM     27  C   UNL     1       4.097   1.863  19.457  0.00  0.00    +0.000 A 
ATOM     28  C   UNL     1       3.560   2.982  20.097  0.00  0.00    +0.000 A 
ENDBRANCH  21  23
ENDBRANCH  20  21
ENDBRANCH   4  20
BRANCH   5  29
ATOM     29  O   UNL     1       3.173   6.523  17.635  0.00  0.00    +0.000 OA
BRANCH  29  30
ATOM     30  C   UNL     1       4.284   6.958  16.925  0.00  0.00    +0.000 C 
ATOM     31  O   UNL     1       4.295   7.497  15.827  0.00  0.00    +0.000 OA
BRANCH  30  32
ATOM     32  C   UNL     1       5.539   6.644  17.673  0.00  0.00    +0.000 A 
ATOM     33  C   UNL     1       6.733   7.354  17.493  0.00  0.00    +0.000 A 
ATOM     34  C   UNL     1       7.887   6.977  18.191  0.00  0.00    +0.000 A 
ATOM     35  C   UNL     1       7.855   5.898  19.073  0.00  0.00    +0.000 A 
ATOM     36  C   UNL     1       6.666   5.202  19.278  0.00  0.00    +0.000 A 
ATOM     37  C   UNL     1       5.512   5.574  18.582  0.00  0.00    +0.000 A 
ENDBRANCH  30  32
ENDBRANCH  29  30
ENDBRANCH   5  29
TORSDOF 8
ENDMDL
MODEL 8
REMARK VINA RESULT:      -8.3      1.956      8.743
REMARK  Name = 
REMARK  9 active torsions:
REMARK  status: ('A' for Active; 'I' for Inactive)
REMARK    1  A    between atoms: C_1  and  O_2
REMARK    2  A    between atoms: O_2  and  C_3
REMARK    3  A    between atoms: C_10  and  C_11
REMARK    4  A    between atoms: C_14  and  O_15
REMARK    5  A    between atoms: O_15  and  C_16
REMARK    6  A    between atoms: C_16  and  C_18
REMARK    7  A    between atoms: C_24  and  O_25
REMARK    8  A    between atoms: O_25  and  C_26
REMARK    9  A    between atoms: C_26  and  C_28
REMARK                            x       y       z     vdW  Elec       q    Type
REMARK                         _______ _______ _______ _____ _____    ______ ____
ROOT
ATOM      1  C   UNL     1       2.364   6.554  18.904  0.00  0.00    +0.000 A 
ATOM      2  C   UNL     1       1.950   6.247  20.207  0.00  0.00    +0.000 A 
ATOM      3  C   UNL     1       1.479   7.246  21.063  0.00  0.00    +0.000 A 
ATOM      4  C   UNL     1       1.408   8.575  20.640  0.00  0.00    +0.000 A 
ATOM      5  C   UNL     1       1.777   8.897  19.331  0.00  0.00    +0.000 A 
ATOM      6  C   UNL     1       2.287   7.900  18.483  0.00  0.00    +0.000 A 
ENDROOT
BRANCH   1  14
ATOM      7  C   UNL     1       7.372   6.955  17.623  0.00  0.00    +0.000 A 
ATOM      8  C   UNL     1       7.741   6.094  18.659  0.00  0.00    +0.000 A 
ATOM      9  C   UNL     1       6.821   5.170  19.163  0.00  0.00    +0.000 A 
ATOM     10  C   UNL     1       5.527   5.125  18.640  0.00  0.00    +0.000 A 
ATOM     11  C   UNL     1       5.142   6.001  17.628  0.00  0.00    +0.000 A 
ATOM     12  C   UNL     1       6.071   6.903  17.111  0.00  0.00    +0.000 A 
ATOM     13  O   UNL     1       3.891   6.026  17.077  0.00  0.00    +0.000 OA
ATOM     14  C   UNL     1       2.855   5.493  17.920  0.00  0.00    +0.000 C 
ATOM     15  C   UNL     1       3.215   4.110  18.460  0.00  0.00    +0.000 C 
ATOM     16  C   UNL     1       4.559   4.132  19.136  0.00  0.00    +0.000 C 
ATOM     17  O   UNL     1       4.861   3.336  20.016  0.00  0.00    +0.000 OA
BRANCH   7  19
ATOM     18  C   UNL     1       8.210   9.168  17.725  0.00  0.00    +0.000 C 
ATOM     19  O   UNL     1       8.178   7.908  17.063  0.00  0.00    +0.000 OA
ENDBRANCH   7  19
ENDBRANCH   1  14
BRANCH   4  20
ATOM     20  O   UNL     1       0.847   9.561  21.469  0.00  0.00    +0.000 OA
BRANCH  20  21
ATOM     21  C   UNL     1      -0.478   9.412  21.819  0.00  0.00    +0.000 C 
ATOM     22  O   UNL     1      -1.101   8.365  21.880  0.00  0.00    +0.000 OA
BRANCH  21  23
ATOM     23  C   UNL     1      -1.113  10.753  21.988  0.00  0.00    +0.000 A 
ATOM     24  C   UNL     1      -1.991  11.196  20.988  0.00  0.00    +0.000 A 
ATOM     25  C   UNL     1      -2.466  12.509  21.000  0.00  0.00    +0.000 A 
ATOM     26  C   UNL     1      -2.072  13.383  22.013  0.00  0.00    +0.000 A 
ATOM     27  C   UNL     1      -1.233  12.937  23.033  0.00  0.00    +0.000 A 
ATOM     28  C   UNL     1      -0.757  11.625  23.026  0.00  0.00    +0.000 A 
ENDBRANCH  21  23
ENDBRANCH  20  21
ENDBRANCH   4  20
BRANCH   5  29
ATOM     29  O   UNL     1       1.735  10.206  18.803  0.00  0.00    +0.000 OA
BRANCH  29  30
ATOM     30  C   UNL     1       0.511  10.793  18.510  0.00  0.00    +0.000 C 
ATOM     31  O   UNL     1      -0.449  10.269  17.965  0.00  0.00    +0.000 OA
BRANCH  30  32
ATOM     32  C   UNL     1       0.509  12.230  18.923  0.00  0.00    +0.000 A 
ATOM     33  C   UNL     1      -0.289  13.201  18.304  0.00  0.00    +0.000 A 
ATOM     34  C   UNL     1      -0.207  14.539  18.707  0.00  0.00    +0.000 A 
ATOM     35  C   UNL     1       0.661  14.915  19.730  0.00  0.00    +0.000 A 
ATOM     36  C   UNL     1       1.440  13.952  20.370  0.00  0.00    +0.000 A 
ATOM     37  C   UNL     1       1.363  12.615  19.969  0.00  0.00    +0.000 A 
ENDBRANCH  30  32
ENDBRANCH  29  30
ENDBRANCH   5  29
TORSDOF 8
ENDMDL
MODEL 9
REMARK VINA RESULT:      -8.2      2.044      8.934
REMARK  Name = 
REMARK  9 active torsions:
REMARK  status: ('A' for Active; 'I' for Inactive)
REMARK    1  A    between atoms: C_1  and  O_2
REMARK    2  A    between atoms: O_2  and  C_3
REMARK    3  A    between atoms: C_10  and  C_11
REMARK    4  A    between atoms: C_14  and  O_15
REMARK    5  A    between atoms: O_15  and  C_16
REMARK    6  A    between atoms: C_16  and  C_18
REMARK    7  A    between atoms: C_24  and  O_25
REMARK    8  A    between atoms: O_25  and  C_26
REMARK    9  A    between atoms: C_26  and  C_28
REMARK                            x       y       z     vdW  Elec       q    Type
REMARK                         _______ _______ _______ _____ _____    ______ ____
ROOT
ATOM      1  C   UNL     1       2.013   7.200  19.041  0.00  0.00    +0.000 A 
ATOM      2  C   UNL     1       1.743   6.964  20.396  0.00  0.00    +0.000 A 
ATOM      3  C   UNL     1       1.423   8.017  21.257  0.00  0.00    +0.000 A 
ATOM      4  C   UNL     1       1.365   9.332  20.788  0.00  0.00    +0.000 A 
ATOM      5  C   UNL     1       1.591   9.585  19.432  0.00  0.00    +0.000 A 
ATOM      6  C   UNL     1       1.949   8.532  18.574  0.00  0.00    +0.000 A 
ENDROOT
BRANCH   1  14
ATOM      7  C   UNL     1       7.007   6.886  17.684  0.00  0.00    +0.000 A 
ATOM      8  C   UNL     1       7.266   5.984  18.718  0.00  0.00    +0.000 A 
ATOM      9  C   UNL     1       6.233   5.200  19.238  0.00  0.00    +0.000 A 
ATOM     10  C   UNL     1       4.937   5.337  18.735  0.00  0.00    +0.000 A 
ATOM     11  C   UNL     1       4.665   6.257  17.726  0.00  0.00    +0.000 A 
ATOM     12  C   UNL     1       5.704   7.019  17.192  0.00  0.00    +0.000 A 
ATOM     13  O   UNL     1       3.421   6.459  17.193  0.00  0.00    +0.000 OA
ATOM     14  C   UNL     1       2.333   6.079  18.054  0.00  0.00    +0.000 C 
ATOM     15  C   UNL     1       2.503   4.660  18.593  0.00  0.00    +0.000 C 
ATOM     16  C   UNL     1       3.846   4.492  19.249  0.00  0.00    +0.000 C 
ATOM     17  O   UNL     1       4.046   3.662  20.127  0.00  0.00    +0.000 OA
BRANCH   7  19
ATOM     18  C   UNL     1       8.177   8.943  17.785  0.00  0.00    +0.000 C 
ATOM     19  O   UNL     1       7.931   7.715  17.108  0.00  0.00    +0.000 OA
ENDBRANCH   7  19
ENDBRANCH   1  14
BRANCH   4  20
ATOM     20  O   UNL     1       0.953  10.375  21.633  0.00  0.00    +0.000 OA
BRANCH  20  21
ATOM     21  C   UNL     1      -0.239  10.210  22.306  0.00  0.00    +0.000 C 
ATOM     22  O   UNL     1      -0.761   9.151  22.611  0.00  0.00    +0.000 OA
BRANCH  21  23
ATOM     23  C   UNL     1      -0.901  11.534  22.499  0.00  0.00    +0.000 A 
ATOM     24  C   UNL     1      -0.170  12.688  22.181  0.00  0.00    +0.000 A 
ATOM     25  C   UNL     1      -0.667  13.950  22.514  0.00  0.00    +0.000 A 
ATOM     26  C   UNL     1      -1.898  14.066  23.159  0.00  0.00    +0.000 A 
ATOM     27  C   UNL     1      -2.650  12.926  23.440  0.00  0.00    +0.000 A 
ATOM     28  C   UNL     1      -2.158  11.662  23.108  0.00  0.00    +0.000 A 
ENDBRANCH  21  23
ENDBRANCH  20  21
ENDBRANCH   4  20
BRANCH   5  29
ATOM     29  O   UNL     1       1.547  10.873  18.856  0.00  0.00    +0.000 OA
BRANCH  29  30
ATOM     30  C   UNL     1       0.328  11.519  18.700  0.00  0.00    +0.000 C 
ATOM     31  O   UNL     1      -0.761  11.003  18.494  0.00  0.00    +0.000 OA
BRANCH  30  32
ATOM     32  C   UNL     1       0.507  13.001  18.778  0.00  0.00    +0.000 A 
ATOM     33  C   UNL     1      -0.566  13.901  18.785  0.00  0.00    +0.000 A 
ATOM     34  C   UNL     1      -0.327  15.280  18.810  0.00  0.00    +0.000 A 
ATOM     35  C   UNL     1       0.979  15.768  18.837  0.00  0.00    +0.000 A 
ATOM     36  C   UNL     1       2.052  14.880  18.857  0.00  0.00    +0.000 A 
ATOM     37  C   UNL     1       1.818  13.503  18.829  0.00  0.00    +0.000 A 
ENDBRANCH  30  32
ENDBRANCH  29  30
ENDBRANCH   5  29
TORSDOF 8
ENDMDL
