MODEL 1
REMARK VINA RESULT:      -9.0      0.000      0.000
REMARK  Name = 
REMARK  7 active torsions:
REMARK  status: ('A' for Active; 'I' for Inactive)
REMARK    1  A    between atoms: C_1  and  C_2
REMARK    2  A    between atoms: C_2  and  C_4
REMARK    3  A    between atoms: C_7  and  N_8
REMARK    4  A    between atoms: N_11  and  S_12
REMARK    5  A    between atoms: S_12  and  C_15
REMARK    6  A    between atoms: C_18  and  C_19
REMARK    7  A    between atoms: C_21  and  C_22
REMARK                            x       y       z     vdW  Elec       q    Type
REMARK                         _______ _______ _______ _____ _____    ______ ____
ROOT
ATOM      1  N   UNL     1       1.955   6.286  19.436  0.00  0.00    +0.000 N 
ATOM      2  C   UNL     1       2.227   5.628  20.723  0.00  0.00    +0.000 C 
ATOM      3  C   UNL     1       1.497   4.267  20.765  0.00  0.00    +0.000 C 
ATOM      4  N   UNL     1       1.799   3.406  19.572  0.00  0.00    +0.000 NA
ATOM      5  C   UNL     1       1.516   4.151  18.302  0.00  0.00    +0.000 C 
ATOM      6  C   UNL     1       2.277   5.487  18.239  0.00  0.00    +0.000 C 
ENDROOT
BRANCH   1  10
ATOM      7  C   UNL     1       1.295  10.425  19.055  0.00  0.00    +0.000 A 
ATOM      8  C   UNL     1       1.034   9.787  20.268  0.00  0.00    +0.000 A 
ATOM      9  C   UNL     1       1.285   8.419  20.411  0.00  0.00    +0.000 A 
ATOM     10  C   UNL     1       1.787   7.653  19.350  0.00  0.00    +0.000 A 
ATOM     11  C   UNL     1       2.048   8.319  18.145  0.00  0.00    +0.000 A 
ATOM     12  C   UNL     1       1.806   9.687  17.988  0.00  0.00    +0.000 A 
BRANCH   7  14
ATOM     13  C   UNL     1       2.131  12.803  18.573  0.00  0.00    +0.000 C 
ATOM     14  C   UNL     1       1.001  11.876  18.929  0.00  0.00    +0.000 C 
ATOM     15  O   UNL     1      -0.137  12.290  19.141  0.00  0.00    +0.000 OA
ENDBRANCH   7  14
ENDBRANCH   1  10
BRANCH   4  16
ATOM     16  S   UNL     1       3.285   2.581  19.606  0.00  0.00    +0.000 S 
ATOM     17  O   UNL     1       3.760   2.541  20.969  0.00  0.00    +0.000 OA
ATOM     18  O   UNL     1       3.167   1.372  18.817  0.00  0.00    +0.000 OA
BRANCH  16  19
ATOM     19  C   UNL     1       4.456   3.580  18.719  0.00  0.00    +0.000 A 
ATOM     20  C   UNL     1       5.340   4.564  19.119  0.00  0.00    +0.000 A 
ATOM     21  C   UNL     1       6.111   5.066  18.028  0.00  0.00    +0.000 A 
ATOM     22  C   UNL     1       5.809   4.436  16.835  0.00  0.00    +0.000 A 
ATOM     23  S   UNL     1       4.577   3.267  17.047  0.00  0.00    +0.000 S 
BRANCH  22  24
ATOM     24  C   UNL     1       6.424   4.667  15.558  0.00  0.00    +0.000 A 
ATOM     25  C   UNL     1       6.135   4.122  14.322  0.00  0.00    +0.000 A 
ATOM     26  C   UNL     1       7.088   4.666  13.438  0.00  0.00    +0.000 A 
ATOM     27  C   UNL     1       7.257   4.392  11.996  0.00  0.00    +0.000 C 
ATOM     28  N   UNL     1       7.903   5.515  14.073  0.00  0.00    +0.000 NA
ATOM     29  O   UNL     1       7.487   5.517  15.392  0.00  0.00    +0.000 OA
ENDBRANCH  22  24
ENDBRANCH  16  19
ENDBRANCH   4  16
TORSDOF 5
ENDMDL
MODEL 2
REMARK VINA RESULT:      -8.6      1.062      1.254
REMARK  Name = 
REMARK  7 active torsions:
REMARK  status: ('A' for Active; 'I' for Inactive)
REMARK    1  A    between atoms: C_1  and  C_2
REMARK    2  A    between atoms: C_2  and  C_4
REMARK    3  A    between atoms: C_7  and  N_8
REMARK    4  A    between atoms: N_11  and  S_12
REMARK    5  A    between atoms: S_12  and  C_15
REMARK    6  A    between atoms: C_18  and  C_19
REMARK    7  A    between atoms: C_21  and  C_22
REMARK                            x       y       z     vdW  Elec       q    Type
REMARK                         _______ _______ _______ _____ _____    ______ ____
ROOT
ATOM      1  N   UNL     1       1.761   6.680  19.907  0.00  0.00    +0.000 N 
ATOM      2  C   UNL     1       1.577   5.629  20.920  0.00  0.00    +0.000 C 
ATOM      3  C   UNL     1       1.017   4.359  20.241  0.00  0.00    +0.000 C 
ATOM      4  N   UNL     1       1.832   3.922  19.058  0.00  0.00    +0.000 NA
ATOM      5  C   UNL     1       1.991   5.050  18.084  0.00  0.00    +0.000 C 
ATOM      6  C   UNL     1       2.591   6.302  18.749  0.00  0.00    +0.000 C 
ENDROOT
BRANCH   1  10
ATOM      7  C   UNL     1       0.829  10.703  20.718  0.00  0.00    +0.000 A 
ATOM      8  C   UNL     1       0.984   9.799  21.769  0.00  0.00    +0.000 A 
ATOM      9  C   UNL     1       1.328   8.469  21.508  0.00  0.00    +0.000 A 
ATOM     10  C   UNL     1       1.513   8.006  20.197  0.00  0.00    +0.000 A 
ATOM     11  C   UNL     1       1.359   8.936  19.160  0.00  0.00    +0.000 A 
ATOM     12  C   UNL     1       1.019  10.270  19.407  0.00  0.00    +0.000 A 
BRANCH   7  14
ATOM     13  C   UNL     1      -0.957  12.546  20.706  0.00  0.00    +0.000 C 
ATOM     14  C   UNL     1       0.445  12.105  21.027  0.00  0.00    +0.000 C 
ATOM     15  O   UNL     1       1.274  12.874  21.509  0.00  0.00    +0.000 OA
ENDBRANCH   7  14
ENDBRANCH   1  10
BRANCH   4  16
ATOM     16  S   UNL     1       3.260   3.070  19.412  0.00  0.00    +0.000 S 
ATOM     17  O   UNL     1       3.582   3.266  20.806  0.00  0.00    +0.000 OA
ATOM     18  O   UNL     1       3.166   1.741  18.844  0.00  0.00    +0.000 OA
BRANCH  16  19
ATOM     19  C   UNL     1       4.572   3.853  18.503  0.00  0.00    +0.000 A 
ATOM     20  C   UNL     1       5.668   4.596  18.895  0.00  0.00    +0.000 A 
ATOM     21  C   UNL     1       6.470   4.993  17.783  0.00  0.00    +0.000 A 
ATOM     22  C   UNL     1       5.974   4.523  16.581  0.00  0.00    +0.000 A 
ATOM     23  S   UNL     1       4.531   3.633  16.812  0.00  0.00    +0.000 S 
BRANCH  22  24
ATOM     24  C   UNL     1       6.556   4.701  15.280  0.00  0.00    +0.000 A 
ATOM     25  C   UNL     1       6.301   4.036  14.096  0.00  0.00    +0.000 A 
ATOM     26  C   UNL     1       7.196   4.586  13.156  0.00  0.00    +0.000 A 
ATOM     27  C   UNL     1       7.374   4.212  11.737  0.00  0.00    +0.000 C 
ATOM     28  N   UNL     1       7.944   5.547  13.708  0.00  0.00    +0.000 NA
ATOM     29  O   UNL     1       7.542   5.621  15.030  0.00  0.00    +0.000 OA
ENDBRANCH  22  24
ENDBRANCH  16  19
ENDBRANCH   4  16
TORSDOF 5
ENDMDL
MODEL 3
REMARK VINA RESULT:      -8.2      2.019      2.843
REMARK  Name = 
REMARK  7 active torsions:
REMARK  status: ('A' for Active; 'I' for Inactive)
REMARK    1  A    between atoms: C_1  and  C_2
REMARK    2  A    between atoms: C_2  and  C_4
REMARK    3  A    between atoms: C_7  and  N_8
REMARK    4  A    between atoms: N_11  and  S_12
REMARK    5  A    between atoms: S_12  and  C_15
REMARK    6  A    between atoms: C_18  and  C_19
REMARK    7  A    between atoms: C_21  and  C_22
REMARK                            x       y       z     vdW  Elec       q    Type
REMARK                         _______ _______ _______ _____ _____    ______ ____
ROOT
ATOM      1  N   UNL     1       2.054   6.081  19.505  0.00  0.00    +0.000 N 
ATOM      2  C   UNL     1       2.330   5.146  20.607  0.00  0.00    +0.000 C 
ATOM      3  C   UNL     1       1.742   3.760  20.258  0.00  0.00    +0.000 C 
ATOM      4  N   UNL     1       2.188   3.258  18.915  0.00  0.00    +0.000 NA
ATOM      5  C   UNL     1       1.892   4.272  17.851  0.00  0.00    +0.000 C 
ATOM      6  C   UNL     1       2.514   5.642  18.174  0.00  0.00    +0.000 C 
ENDROOT
BRANCH   1  10
ATOM      7  C   UNL     1       0.969  10.098  20.140  0.00  0.00    +0.000 A 
ATOM      8  C   UNL     1       0.940   9.193  21.201  0.00  0.00    +0.000 A 
ATOM      9  C   UNL     1       1.333   7.865  21.004  0.00  0.00    +0.000 A 
ATOM     10  C   UNL     1       1.751   7.406  19.747  0.00  0.00    +0.000 A 
ATOM     11  C   UNL     1       1.779   8.336  18.700  0.00  0.00    +0.000 A 
ATOM     12  C   UNL     1       1.393   9.668  18.883  0.00  0.00    +0.000 A 
BRANCH   7  14
ATOM     13  C   UNL     1      -0.364  12.145  19.353  0.00  0.00    +0.000 C 
ATOM     14  C   UNL     1       0.529  11.497  20.377  0.00  0.00    +0.000 C 
ATOM     15  O   UNL     1       0.915  12.099  21.376  0.00  0.00    +0.000 OA
ENDBRANCH   7  14
ENDBRANCH   1  10
BRANCH   4  16
ATOM     16  S   UNL     1       3.747   2.584  18.851  0.00  0.00    +0.000 S 
ATOM     17  O   UNL     1       4.282   2.529  20.192  0.00  0.00    +0.000 OA
ATOM     18  O   UNL     1       3.715   1.407  18.008  0.00  0.00    +0.000 OA
BRANCH  16  19
ATOM     19  C   UNL     1       4.777   3.735  17.972  0.00  0.00    +0.000 A 
ATOM     20  C   UNL     1       5.116   3.859  16.639  0.00  0.00    +0.000 A 
ATOM     21  C   UNL     1       5.965   4.982  16.404  0.00  0.00    +0.000 A 
ATOM     22  C   UNL     1       6.230   5.692  17.560  0.00  0.00    +0.000 A 
ATOM     23  S   UNL     1       5.472   4.975  18.917  0.00  0.00    +0.000 S 
BRANCH  22  24
ATOM     24  C   UNL     1       7.010   6.893  17.674  0.00  0.00    +0.000 A 
ATOM     25  C   UNL     1       7.937   7.261  18.630  0.00  0.00    +0.000 A 
ATOM     26  C   UNL     1       8.348   8.561  18.274  0.00  0.00    +0.000 A 
ATOM     27  C   UNL     1       9.304   9.442  18.978  0.00  0.00    +0.000 C 
ATOM     28  N   UNL     1       7.738   8.970  17.157  0.00  0.00    +0.000 NA
ATOM     29  O   UNL     1       6.908   7.929  16.782  0.00  0.00    +0.000 OA
ENDBRANCH  22  24
ENDBRANCH  16  19
ENDBRANCH   4  16
TORSDOF 5
ENDMDL
MODEL 4
REMARK VINA RESULT:      -8.0      1.409      1.895
REMARK  Name = 
REMARK  7 active torsions:
REMARK  status: ('A' for Active; 'I' for Inactive)
REMARK    1  A    between atoms: C_1  and  C_2
REMARK    2  A    between atoms: C_2  and  C_4
REMARK    3  A    between atoms: C_7  and  N_8
REMARK    4  A    between atoms: N_11  and  S_12
REMARK    5  A    between atoms: S_12  and  C_15
REMARK    6  A    between atoms: C_18  and  C_19
REMARK    7  A    between atoms: C_21  and  C_22
REMARK                            x       y       z     vdW  Elec       q    Type
REMARK                         _______ _______ _______ _____ _____    ______ ____
ROOT
ATOM      1  N   UNL     1       1.704   7.020  20.086  0.00  0.00    +0.000 N 
ATOM      2  C   UNL     1       1.559   5.871  20.993  0.00  0.00    +0.000 C 
ATOM      3  C   UNL     1       1.249   4.604  20.165  0.00  0.00    +0.000 C 
ATOM      4  N   UNL     1       2.236   4.376  19.056  0.00  0.00    +0.000 NA
ATOM      5  C   UNL     1       2.342   5.595  18.189  0.00  0.00    +0.000 C 
ATOM      6  C   UNL     1       2.694   6.851  19.007  0.00  0.00    +0.000 C 
ENDROOT
BRANCH   1  10
ATOM      7  C   UNL     1       0.495  10.883  21.239  0.00  0.00    +0.000 A 
ATOM      8  C   UNL     1       0.655  10.578  19.887  0.00  0.00    +0.000 A 
ATOM      9  C   UNL     1       1.022   9.286  19.496  0.00  0.00    +0.000 A 
ATOM     10  C   UNL     1       1.250   8.275  20.440  0.00  0.00    +0.000 A 
ATOM     11  C   UNL     1       1.076   8.604  21.790  0.00  0.00    +0.000 A 
ATOM     12  C   UNL     1       0.704   9.890  22.196  0.00  0.00    +0.000 A 
BRANCH   7  14
ATOM     13  C   UNL     1      -1.308  12.540  22.008  0.00  0.00    +0.000 C 
ATOM     14  C   UNL     1       0.122  12.269  21.623  0.00  0.00    +0.000 C 
ATOM     15  O   UNL     1       0.968  13.160  21.596  0.00  0.00    +0.000 OA
ENDBRANCH   7  14
ENDBRANCH   1  10
BRANCH   4  16
ATOM     16  S   UNL     1       3.721   3.685  19.509  0.00  0.00    +0.000 S 
ATOM     17  O   UNL     1       4.052   4.134  20.841  0.00  0.00    +0.000 OA
ATOM     18  O   UNL     1       3.703   2.275  19.176  0.00  0.00    +0.000 OA
BRANCH  16  19
ATOM     19  C   UNL     1       4.964   4.379  18.446  0.00  0.00    +0.000 A 
ATOM     20  C   UNL     1       6.065   5.177  18.690  0.00  0.00    +0.000 A 
ATOM     21  C   UNL     1       6.797   5.457  17.497  0.00  0.00    +0.000 A 
ATOM     22  C   UNL     1       6.247   4.848  16.385  0.00  0.00    +0.000 A 
ATOM     23  S   UNL     1       4.836   3.969  16.795  0.00  0.00    +0.000 S 
BRANCH  22  24
ATOM     24  C   UNL     1       6.753   4.887  15.042  0.00  0.00    +0.000 A 
ATOM     25  C   UNL     1       6.334   4.204  13.916  0.00  0.00    +0.000 A 
ATOM     26  C   UNL     1       7.222   4.587  12.891  0.00  0.00    +0.000 A 
ATOM     27  C   UNL     1       7.251   4.125  11.488  0.00  0.00    +0.000 C 
ATOM     28  N   UNL     1       8.121   5.469  13.339  0.00  0.00    +0.000 NA
ATOM     29  O   UNL     1       7.826   5.658  14.677  0.00  0.00    +0.000 OA
ENDBRANCH  22  24
ENDBRANCH  16  19
ENDBRANCH   4  16
TORSDOF 5
ENDMDL
MODEL 5
REMARK VINA RESULT:      -7.9      5.819     11.545
REMARK  Name = 
REMARK  7 active torsions:
REMARK  status: ('A' for Active; 'I' for Inactive)
REMARK    1  A    between atoms: C_1  and  C_2
REMARK    2  A    between atoms: C_2  and  C_4
REMARK    3  A    between atoms: C_7  and  N_8
REMARK    4  A    between atoms: N_11  and  S_12
REMARK    5  A    between atoms: S_12  and  C_15
REMARK    6  A    between atoms: C_18  and  C_19
REMARK    7  A    between atoms: C_21  and  C_22
REMARK                            x       y       z     vdW  Elec       q    Type
REMARK                         _______ _______ _______ _____ _____    ______ ____
ROOT
ATOM      1  N   UNL     1       1.479   8.408  19.772  0.00  0.00    +0.000 N 
ATOM      2  C   UNL     1       1.154   9.720  19.191  0.00  0.00    +0.000 C 
ATOM      3  C   UNL     1      -0.335  10.038  19.455  0.00  0.00    +0.000 C 
ATOM      4  N   UNL     1      -0.712   9.909  20.903  0.00  0.00    +0.000 NA
ATOM      5  C   UNL     1      -0.331   8.556  21.425  0.00  0.00    +0.000 C 
ATOM      6  C   UNL     1       1.162   8.255  21.203  0.00  0.00    +0.000 C 
ENDROOT
BRANCH   1  10
ATOM      7  C   UNL     1       4.288   5.896  17.896  0.00  0.00    +0.000 A 
ATOM      8  C   UNL     1       3.718   5.517  19.112  0.00  0.00    +0.000 A 
ATOM      9  C   UNL     1       2.758   6.331  19.722  0.00  0.00    +0.000 A 
ATOM     10  C   UNL     1       2.354   7.543  19.145  0.00  0.00    +0.000 A 
ATOM     11  C   UNL     1       2.935   7.897  17.920  0.00  0.00    +0.000 A 
ATOM     12  C   UNL     1       3.893   7.091  17.296  0.00  0.00    +0.000 A 
BRANCH   7  14
ATOM     13  C   UNL     1       5.371   4.926  15.781  0.00  0.00    +0.000 C 
ATOM     14  C   UNL     1       5.318   5.019  17.282  0.00  0.00    +0.000 C 
ATOM     15  O   UNL     1       6.079   4.375  18.000  0.00  0.00    +0.000 OA
ENDBRANCH   7  14
ENDBRANCH   1  10
BRANCH   4  16
ATOM     16  S   UNL     1      -0.282  11.213  21.904  0.00  0.00    +0.000 S 
ATOM     17  O   UNL     1      -0.273  10.761  23.275  0.00  0.00    +0.000 OA
ATOM     18  O   UNL     1       0.864  11.888  21.329  0.00  0.00    +0.000 OA
BRANCH  16  19
ATOM     19  C   UNL     1      -1.598  12.404  21.802  0.00  0.00    +0.000 A 
ATOM     20  C   UNL     1      -2.466  12.755  20.786  0.00  0.00    +0.000 A 
ATOM     21  C   UNL     1      -3.389  13.763  21.195  0.00  0.00    +0.000 A 
ATOM     22  C   UNL     1      -3.212  14.135  22.515  0.00  0.00    +0.000 A 
ATOM     23  S   UNL     1      -1.914  13.279  23.231  0.00  0.00    +0.000 S 
BRANCH  22  24
ATOM     24  C   UNL     1      -3.993  15.087  23.254  0.00  0.00    +0.000 A 
ATOM     25  C   UNL     1      -3.587  16.155  24.031  0.00  0.00    +0.000 A 
ATOM     26  C   UNL     1      -4.771  16.709  24.558  0.00  0.00    +0.000 A 
ATOM     27  C   UNL     1      -4.911  17.851  25.485  0.00  0.00    +0.000 C 
ATOM     28  N   UNL     1      -5.847  16.047  24.121  0.00  0.00    +0.000 NA
ATOM     29  O   UNL     1      -5.363  15.039  23.307  0.00  0.00    +0.000 OA
ENDBRANCH  22  24
ENDBRANCH  16  19
ENDBRANCH   4  16
TORSDOF 5
ENDMDL
MODEL 6
REMARK VINA RESULT:      -7.8      2.135      2.920
REMARK  Name = 
REMARK  7 active torsions:
REMARK  status: ('A' for Active; 'I' for Inactive)
REMARK    1  A    between atoms: C_1  and  C_2
REMARK    2  A    between atoms: C_2  and  C_4
REMARK    3  A    between atoms: C_7  and  N_8
REMARK    4  A    between atoms: N_11  and  S_12
REMARK    5  A    between atoms: S_12  and  C_15
REMARK    6  A    between atoms: C_18  and  C_19
REMARK    7  A    between atoms: C_21  and  C_22
REMARK                            x       y       z     vdW  Elec       q    Type
REMARK                         _______ _______ _______ _____ _____    ______ ____
ROOT
ATOM      1  N   UNL     1       1.994   5.777  19.602  0.00  0.00    +0.000 N 
ATOM      2  C   UNL     1       2.443   4.927  20.715  0.00  0.00    +0.000 C 
ATOM      3  C   UNL     1       1.885   3.499  20.522  0.00  0.00    +0.000 C 
ATOM      4  N   UNL     1       2.191   2.931  19.166  0.00  0.00    +0.000 NA
ATOM      5  C   UNL     1       1.722   3.861  18.089  0.00  0.00    +0.000 C 
ATOM      6  C   UNL     1       2.312   5.273  18.254  0.00  0.00    +0.000 C 
ENDROOT
BRANCH   1  10
ATOM      7  C   UNL     1       1.127   9.832  20.324  0.00  0.00    +0.000 A 
ATOM      8  C   UNL     1       1.566   9.428  19.063  0.00  0.00    +0.000 A 
ATOM      9  C   UNL     1       1.821   8.077  18.807  0.00  0.00    +0.000 A 
ATOM     10  C   UNL     1       1.659   7.102  19.801  0.00  0.00    +0.000 A 
ATOM     11  C   UNL     1       1.211   7.532  21.057  0.00  0.00    +0.000 A 
ATOM     12  C   UNL     1       0.947   8.879  21.326  0.00  0.00    +0.000 A 
BRANCH   7  14
ATOM     13  C   UNL     1       0.729  12.185  19.379  0.00  0.00    +0.000 C 
ATOM     14  C   UNL     1       0.882  11.277  20.570  0.00  0.00    +0.000 C 
ATOM     15  O   UNL     1       0.834  11.702  21.722  0.00  0.00    +0.000 OA
ENDBRANCH   7  14
ENDBRANCH   1  10
BRANCH   4  16
ATOM     16  S   UNL     1       3.762   2.317  18.953  0.00  0.00    +0.000 S 
ATOM     17  O   UNL     1       4.377   2.160  20.250  0.00  0.00    +0.000 OA
ATOM     18  O   UNL     1       3.712   1.219  18.009  0.00  0.00    +0.000 OA
BRANCH  16  19
ATOM     19  C   UNL     1       4.705   3.575  18.125  0.00  0.00    +0.000 A 
ATOM     20  C   UNL     1       4.866   3.900  16.792  0.00  0.00    +0.000 A 
ATOM     21  C   UNL     1       5.715   5.033  16.616  0.00  0.00    +0.000 A 
ATOM     22  C   UNL     1       6.158   5.551  17.819  0.00  0.00    +0.000 A 
ATOM     23  S   UNL     1       5.563   4.643  19.142  0.00  0.00    +0.000 S 
BRANCH  22  24
ATOM     24  C   UNL     1       6.988   6.708  18.005  0.00  0.00    +0.000 A 
ATOM     25  C   UNL     1       6.907   7.961  17.426  0.00  0.00    +0.000 A 
ATOM     26  C   UNL     1       8.007   8.681  17.934  0.00  0.00    +0.000 A 
ATOM     27  C   UNL     1       8.418  10.065  17.615  0.00  0.00    +0.000 C 
ATOM     28  N   UNL     1       8.714   7.939  18.792  0.00  0.00    +0.000 NA
ATOM     29  O   UNL     1       8.077   6.712  18.838  0.00  0.00    +0.000 OA
ENDBRANCH  22  24
ENDBRANCH  16  19
ENDBRANCH   4  16
TORSDOF 5
ENDMDL
MODEL 7
REMARK VINA RESULT:      -7.7      5.286     11.260
REMARK  Name = 
REMARK  7 active torsions:
REMARK  status: ('A' for Active; 'I' for Inactive)
REMARK    1  A    between atoms: C_1  and  C_2
REMARK    2  A    between atoms: C_2  and  C_4
REMARK    3  A    between atoms: C_7  and  N_8
REMARK    4  A    between atoms: N_11  and  S_12
REMARK    5  A    between atoms: S_12  and  C_15
REMARK    6  A    between atoms: C_18  and  C_19
REMARK    7  A    between atoms: C_21  and  C_22
REMARK                            x       y       z     vdW  Elec       q    Type
REMARK                         _______ _______ _______ _____ _____    ______ ____
ROOT
ATOM      1  N   UNL     1       1.627   8.167  19.637  0.00  0.00    +0.000 N 
ATOM      2  C   UNL     1       1.731   9.194  18.589  0.00  0.00    +0.000 C 
ATOM      3  C   UNL     1       0.374   9.917  18.448  0.00  0.00    +0.000 C 
ATOM      4  N   UNL     1      -0.148  10.441  19.755  0.00  0.00    +0.000 NA
ATOM      5  C   UNL     1      -0.207   9.343  20.774  0.00  0.00    +0.000 C 
ATOM      6  C   UNL     1       1.156   8.650  20.949  0.00  0.00    +0.000 C 
ENDROOT
BRANCH   1  10
ATOM      7  C   UNL     1       3.434   4.385  19.267  0.00  0.00    +0.000 A 
ATOM      8  C   UNL     1       3.562   5.320  18.240  0.00  0.00    +0.000 A 
ATOM      9  C   UNL     1       2.993   6.591  18.373  0.00  0.00    +0.000 A 
ATOM     10  C   UNL     1       2.276   6.955  19.521  0.00  0.00    +0.000 A 
ATOM     11  C   UNL     1       2.170   6.000  20.541  0.00  0.00    +0.000 A 
ATOM     12  C   UNL     1       2.737   4.727  20.424  0.00  0.00    +0.000 A 
BRANCH   7  14
ATOM     13  C   UNL     1       3.599   2.215  17.905  0.00  0.00    +0.000 C 
ATOM     14  C   UNL     1       4.034   3.037  19.088  0.00  0.00    +0.000 C 
ATOM     15  O   UNL     1       4.844   2.614  19.911  0.00  0.00    +0.000 OA
ENDBRANCH   7  14
ENDBRANCH   1  10
BRANCH   4  16
ATOM     16  S   UNL     1       0.540  11.895  20.303  0.00  0.00    +0.000 S 
ATOM     17  O   UNL     1       1.220  11.643  21.551  0.00  0.00    +0.000 OA
ATOM     18  O   UNL     1       1.217  12.540  19.196  0.00  0.00    +0.000 OA
BRANCH  16  19
ATOM     19  C   UNL     1      -0.803  12.989  20.701  0.00  0.00    +0.000 A 
ATOM     20  C   UNL     1      -1.191  14.217  20.201  0.00  0.00    +0.000 A 
ATOM     21  C   UNL     1      -2.377  14.701  20.830  0.00  0.00    +0.000 A 
ATOM     22  C   UNL     1      -2.869  13.820  21.775  0.00  0.00    +0.000 A 
ATOM     23  S   UNL     1      -1.875  12.433  21.907  0.00  0.00    +0.000 S 
BRANCH  22  24
ATOM     24  C   UNL     1      -4.063  13.975  22.558  0.00  0.00    +0.000 A 
ATOM     25  C   UNL     1      -5.065  13.065  22.838  0.00  0.00    +0.000 A 
ATOM     26  C   UNL     1      -6.011  13.772  23.606  0.00  0.00    +0.000 A 
ATOM     27  C   UNL     1      -7.300  13.285  24.142  0.00  0.00    +0.000 C 
ATOM     28  N   UNL     1      -5.618  15.033  23.813  0.00  0.00    +0.000 NA
ATOM     29  O   UNL     1      -4.402  15.157  23.164  0.00  0.00    +0.000 OA
ENDBRANCH  22  24
ENDBRANCH  16  19
ENDBRANCH   4  16
TORSDOF 5
ENDMDL
MODEL 8
REMARK VINA RESULT:      -7.7      5.556     11.321
REMARK  Name = 
REMARK  7 active torsions:
REMARK  status: ('A' for Active; 'I' for Inactive)
REMARK    1  A    between atoms: C_1  and  C_2
REMARK    2  A    between atoms: C_2  and  C_4
REMARK    3  A    between atoms: C_7  and  N_8
REMARK    4  A    between atoms: N_11  and  S_12
REMARK    5  A    between atoms: S_12  and  C_15
REMARK    6  A    between atoms: C_18  and  C_19
REMARK    7  A    between atoms: C_21  and  C_22
REMARK                            x       y       z     vdW  Elec       q    Type
REMARK                         _______ _______ _______ _____ _____    ______ ____
ROOT
ATOM      1  N   UNL     1       1.532   8.570  19.467  0.00  0.00    +0.000 N 
ATOM      2  C   UNL     1       1.544   9.694  18.519  0.00  0.00    +0.000 C 
ATOM      3  C   UNL     1       0.138  10.334  18.470  0.00  0.00    +0.000 C 
ATOM      4  N   UNL     1      -0.386  10.696  19.829  0.00  0.00    +0.000 NA
ATOM      5  C   UNL     1      -0.347   9.507  20.741  0.00  0.00    +0.000 C 
ATOM      6  C   UNL     1       1.062   8.896  20.827  0.00  0.00    +0.000 C 
ENDROOT
BRANCH   1  10
ATOM      7  C   UNL     1       3.904   5.162  18.778  0.00  0.00    +0.000 A 
ATOM      8  C   UNL     1       3.041   5.199  19.873  0.00  0.00    +0.000 A 
ATOM      9  C   UNL     1       2.224   6.315  20.087  0.00  0.00    +0.000 A 
ATOM     10  C   UNL     1       2.258   7.421  19.226  0.00  0.00    +0.000 A 
ATOM     11  C   UNL     1       3.127   7.355  18.130  0.00  0.00    +0.000 A 
ATOM     12  C   UNL     1       3.947   6.245  17.901  0.00  0.00    +0.000 A 
BRANCH   7  14
ATOM     13  C   UNL     1       4.113   2.624  18.459  0.00  0.00    +0.000 C 
ATOM     14  C   UNL     1       4.772   3.971  18.588  0.00  0.00    +0.000 C 
ATOM     15  O   UNL     1       5.994   4.101  18.566  0.00  0.00    +0.000 OA
ENDBRANCH   7  14
ENDBRANCH   1  10
BRANCH   4  16
ATOM     16  S   UNL     1       0.217  12.137  20.500  0.00  0.00    +0.000 S 
ATOM     17  O   UNL     1       1.354  11.820  21.331  0.00  0.00    +0.000 OA
ATOM     18  O   UNL     1       0.306  13.138  19.457  0.00  0.00    +0.000 OA
BRANCH  16  19
ATOM     19  C   UNL     1      -1.028  12.757  21.607  0.00  0.00    +0.000 A 
ATOM     20  C   UNL     1      -0.959  13.457  22.796  0.00  0.00    +0.000 A 
ATOM     21  C   UNL     1      -2.253  13.765  23.311  0.00  0.00    +0.000 A 
ATOM     22  C   UNL     1      -3.269  13.311  22.491  0.00  0.00    +0.000 A 
ATOM     23  S   UNL     1      -2.642  12.494  21.124  0.00  0.00    +0.000 S 
BRANCH  22  24
ATOM     24  C   UNL     1      -4.680  13.488  22.689  0.00  0.00    +0.000 A 
ATOM     25  C   UNL     1      -5.374  13.896  23.812  0.00  0.00    +0.000 A 
ATOM     26  C   UNL     1      -6.736  13.839  23.453  0.00  0.00    +0.000 A 
ATOM     27  C   UNL     1      -7.915  14.137  24.294  0.00  0.00    +0.000 C 
ATOM     28  N   UNL     1      -6.884  13.446  22.184  0.00  0.00    +0.000 NA
ATOM     29  O   UNL     1      -5.603  13.231  21.708  0.00  0.00    +0.000 OA
ENDBRANCH  22  24
ENDBRANCH  16  19
ENDBRANCH   4  16
TORSDOF 5
ENDMDL
MODEL 9
REMARK VINA RESULT:      -7.6      5.362     11.195
REMARK  Name = 
REMARK  7 active torsions:
REMARK  status: ('A' for Active; 'I' for Inactive)
REMARK    1  A    between atoms: C_1  and  C_2
REMARK    2  A    between atoms: C_2  and  C_4
REMARK    3  A    between atoms: C_7  and  N_8
REMARK    4  A    between atoms: N_11  and  S_12
REMARK    5  A    between atoms: S_12  and  C_15
REMARK    6  A    between atoms: C_18  and  C_19
REMARK    7  A    between atoms: C_21  and  C_22
REMARK                            x       y       z     vdW  Elec       q    Type
REMARK                         _______ _______ _______ _____ _____    ______ ____
ROOT
ATOM      1  N   UNL     1       1.520   9.268  19.364  0.00  0.00    +0.000 N 
ATOM      2  C   UNL     1       0.766   9.852  20.484  0.00  0.00    +0.000 C 
ATOM      3  C   UNL     1       1.261  11.294  20.734  0.00  0.00    +0.000 C 
ATOM      4  N   UNL     1       1.248  12.139  19.493  0.00  0.00    +0.000 NA
ATOM      5  C   UNL     1       2.019  11.470  18.395  0.00  0.00    +0.000 C 
ATOM      6  C   UNL     1       1.498  10.049  18.113  0.00  0.00    +0.000 C 
ENDROOT
BRANCH   1  10
ATOM      7  C   UNL     1       2.438   5.161  19.357  0.00  0.00    +0.000 A 
ATOM      8  C   UNL     1       2.671   5.928  18.215  0.00  0.00    +0.000 A 
ATOM      9  C   UNL     1       2.401   7.300  18.223  0.00  0.00    +0.000 A 
ATOM     10  C   UNL     1       1.883   7.937  19.360  0.00  0.00    +0.000 A 
ATOM     11  C   UNL     1       1.666   7.146  20.496  0.00  0.00    +0.000 A 
ATOM     12  C   UNL     1       1.935   5.773  20.504  0.00  0.00    +0.000 A 
BRANCH   7  14
ATOM     13  C   UNL     1       1.552   2.756  19.226  0.00  0.00    +0.000 C 
ATOM     14  C   UNL     1       2.719   3.703  19.311  0.00  0.00    +0.000 C 
ATOM     15  O   UNL     1       3.879   3.300  19.368  0.00  0.00    +0.000 OA
ENDBRANCH   7  14
ENDBRANCH   1  10
BRANCH   4  16
ATOM     16  S   UNL     1      -0.263  12.766  19.033  0.00  0.00    +0.000 S 
ATOM     17  O   UNL     1      -0.063  14.066  18.438  0.00  0.00    +0.000 OA
ATOM     18  O   UNL     1      -1.009  11.732  18.344  0.00  0.00    +0.000 OA
BRANCH  16  19
ATOM     19  C   UNL     1      -1.182  13.058  20.526  0.00  0.00    +0.000 A 
ATOM     20  C   UNL     1      -0.899  13.770  21.675  0.00  0.00    +0.000 A 
ATOM     21  C   UNL     1      -1.981  13.740  22.604  0.00  0.00    +0.000 A 
ATOM     22  C   UNL     1      -3.064  13.025  22.128  0.00  0.00    +0.000 A 
ATOM     23  S   UNL     1      -2.745  12.377  20.576  0.00  0.00    +0.000 S 
BRANCH  22  24
ATOM     24  C   UNL     1      -4.327  12.833  22.785  0.00  0.00    +0.000 A 
ATOM     25  C   UNL     1      -5.601  13.175  22.375  0.00  0.00    +0.000 A 
ATOM     26  C   UNL     1      -6.451  12.798  23.435  0.00  0.00    +0.000 A 
ATOM     27  C   UNL     1      -7.915  12.970  23.537  0.00  0.00    +0.000 C 
ATOM     28  N   UNL     1      -5.758  12.235  24.430  0.00  0.00    +0.000 NA
ATOM     29  O   UNL     1      -4.436  12.254  24.024  0.00  0.00    +0.000 OA
ENDBRANCH  22  24
ENDBRANCH  16  19
ENDBRANCH   4  16
TORSDOF 5
ENDMDL
