MODEL 1
REMARK VINA RESULT:      -7.9      0.000      0.000
REMARK  Name = 
REMARK  2 active torsions:
REMARK  status: ('A' for Active; 'I' for Inactive)
REMARK    1  A    between atoms: C_1  and  N_2
REMARK    2  A    between atoms: C_5  and  C_6
REMARK                            x       y       z     vdW  Elec       q    Type
REMARK                         _______ _______ _______ _____ _____    ______ ____
ROOT
ATOM      1  C   UNL     1       5.884   3.674  15.922  0.00  0.00    +0.000 C 
ATOM      2  N   UNL     1       5.103   4.758  16.626  0.00  0.00    +0.000 NA
ATOM      3  C   UNL     1       6.027   5.033  17.851  0.00  0.00    +0.000 C 
ATOM      4  C   UNL     1       5.263   5.626  19.039  0.00  0.00    +0.000 C 
ATOM      5  C   UNL     1       3.801   5.111  19.018  0.00  0.00    +0.000 C 
ATOM      6  C   UNL     1       3.954   3.625  18.165  0.00  0.00    +0.000 C 
ATOM      7  C   UNL     1       3.684   4.132  16.855  0.00  0.00    +0.000 C 
ATOM      8  C   UNL     1       2.033   4.512  17.219  0.00  0.00    +0.000 C 
ATOM      9  C   UNL     1       1.641   4.112  18.772  0.00  0.00    +0.000 A 
ATOM     10  C   UNL     1       0.754   3.090  19.169  0.00  0.00    +0.000 A 
ATOM     11  C   UNL     1       0.968   2.434  20.415  0.00  0.00    +0.000 A 
ATOM     12  C   UNL     1       2.037   2.782  21.270  0.00  0.00    +0.000 A 
ATOM     13  F   UNL     1       2.288   2.079  22.404  0.00  0.00    +0.000 F 
ATOM     14  C   UNL     1       2.921   3.781  20.897  0.00  0.00    +0.000 A 
ATOM     15  C   UNL     1       2.740   4.377  19.680  0.00  0.00    +0.000 A 
ENDROOT
BRANCH   5  16
ATOM     16  C   UNL     1       2.999   6.528  19.045  0.00  0.00    +0.000 A 
ATOM     17  C   UNL     1       2.143   6.986  20.092  0.00  0.00    +0.000 A 
ATOM     18  C   UNL     1       1.463   8.228  19.998  0.00  0.00    +0.000 A 
ATOM     19  C   UNL     1       1.605   9.036  18.876  0.00  0.00    +0.000 A 
ATOM     20  C   UNL     1       2.412   8.609  17.835  0.00  0.00    +0.000 A 
ATOM     21  C   UNL     1       3.087   7.382  17.907  0.00  0.00    +0.000 A 
ENDBRANCH   5  16
TORSDOF 1
ENDMDL
MODEL 2
REMARK VINA RESULT:      -7.9      0.182      1.059
REMARK  Name = 
REMARK  2 active torsions:
REMARK  status: ('A' for Active; 'I' for Inactive)
REMARK    1  A    between atoms: C_1  and  N_2
REMARK    2  A    between atoms: C_5  and  C_6
REMARK                            x       y       z     vdW  Elec       q    Type
REMARK                         _______ _______ _______ _____ _____    ______ ____
ROOT
ATOM      1  C   UNL     1       5.807   3.649  15.734  0.00  0.00    +0.000 C 
ATOM      2  N   UNL     1       5.029   4.743  16.429  0.00  0.00    +0.000 NA
ATOM      3  C   UNL     1       5.990   5.079  17.609  0.00  0.00    +0.000 C 
ATOM      4  C   UNL     1       5.257   5.699  18.803  0.00  0.00    +0.000 C 
ATOM      5  C   UNL     1       3.806   5.155  18.852  0.00  0.00    +0.000 C 
ATOM      6  C   UNL     1       3.959   3.642  18.047  0.00  0.00    +0.000 C 
ATOM      7  C   UNL     1       3.633   4.098  16.730  0.00  0.00    +0.000 C 
ATOM      8  C   UNL     1       1.988   4.458  17.141  0.00  0.00    +0.000 C 
ATOM      9  C   UNL     1       1.660   4.106  18.719  0.00  0.00    +0.000 A 
ATOM     10  C   UNL     1       0.809   3.082  19.184  0.00  0.00    +0.000 A 
ATOM     11  C   UNL     1       1.080   2.475  20.443  0.00  0.00    +0.000 A 
ATOM     12  C   UNL     1       2.172   2.873  21.247  0.00  0.00    +0.000 A 
ATOM     13  F   UNL     1       2.478   2.216  22.395  0.00  0.00    +0.000 F 
ATOM     14  C   UNL     1       3.021   3.875  20.808  0.00  0.00    +0.000 A 
ATOM     15  C   UNL     1       2.784   4.424  19.577  0.00  0.00    +0.000 A 
ENDROOT
BRANCH   5  16
ATOM     16  C   UNL     1       2.976   6.556  18.860  0.00  0.00    +0.000 A 
ATOM     17  C   UNL     1       2.939   7.514  17.802  0.00  0.00    +0.000 A 
ATOM     18  C   UNL     1       2.206   8.723  17.927  0.00  0.00    +0.000 A 
ATOM     19  C   UNL     1       1.506   9.015  19.092  0.00  0.00    +0.000 A 
ATOM     20  C   UNL     1       1.540   8.114  20.144  0.00  0.00    +0.000 A 
ATOM     21  C   UNL     1       2.263   6.918  20.041  0.00  0.00    +0.000 A 
ENDBRANCH   5  16
TORSDOF 1
ENDMDL
MODEL 3
REMARK VINA RESULT:      -7.4      2.657      4.554
REMARK  Name = 
REMARK  2 active torsions:
REMARK  status: ('A' for Active; 'I' for Inactive)
REMARK    1  A    between atoms: C_1  and  N_2
REMARK    2  A    between atoms: C_5  and  C_6
REMARK                            x       y       z     vdW  Elec       q    Type
REMARK                         _______ _______ _______ _____ _____    ______ ____
ROOT
ATOM      1  C   UNL     1       3.058   1.345  19.560  0.00  0.00    +0.000 C 
ATOM      2  N   UNL     1       2.768   2.822  19.428  0.00  0.00    +0.000 NA
ATOM      3  C   UNL     1       1.925   2.838  18.117  0.00  0.00    +0.000 C 
ATOM      4  C   UNL     1       1.981   4.191  17.401  0.00  0.00    +0.000 C 
ATOM      5  C   UNL     1       3.344   4.868  17.690  0.00  0.00    +0.000 C 
ATOM      6  C   UNL     1       4.356   3.518  18.025  0.00  0.00    +0.000 C 
ATOM      7  C   UNL     1       4.181   3.501  19.445  0.00  0.00    +0.000 C 
ATOM      8  C   UNL     1       5.004   5.008  19.677  0.00  0.00    +0.000 C 
ATOM      9  C   UNL     1       5.539   5.640  18.250  0.00  0.00    +0.000 A 
ATOM     10  C   UNL     1       6.885   5.777  17.854  0.00  0.00    +0.000 A 
ATOM     11  C   UNL     1       7.209   5.716  16.468  0.00  0.00    +0.000 A 
ATOM     12  C   UNL     1       6.220   5.531  15.476  0.00  0.00    +0.000 A 
ATOM     13  F   UNL     1       6.554   5.372  14.170  0.00  0.00    +0.000 F 
ATOM     14  C   UNL     1       4.892   5.392  15.844  0.00  0.00    +0.000 A 
ATOM     15  C   UNL     1       4.591   5.405  17.178  0.00  0.00    +0.000 A 
ENDROOT
BRANCH   5  16
ATOM     16  C   UNL     1       2.834   6.299  18.278  0.00  0.00    +0.000 A 
ATOM     17  C   UNL     1       2.308   6.528  19.585  0.00  0.00    +0.000 A 
ATOM     18  C   UNL     1       1.859   7.814  19.984  0.00  0.00    +0.000 A 
ATOM     19  C   UNL     1       1.910   8.891  19.108  0.00  0.00    +0.000 A 
ATOM     20  C   UNL     1       2.397   8.695  17.825  0.00  0.00    +0.000 A 
ATOM     21  C   UNL     1       2.839   7.432  17.411  0.00  0.00    +0.000 A 
ENDBRANCH   5  16
TORSDOF 1
ENDMDL
MODEL 4
REMARK VINA RESULT:      -7.4      2.641      4.745
REMARK  Name = 
REMARK  2 active torsions:
REMARK  status: ('A' for Active; 'I' for Inactive)
REMARK    1  A    between atoms: C_1  and  N_2
REMARK    2  A    between atoms: C_5  and  C_6
REMARK                            x       y       z     vdW  Elec       q    Type
REMARK                         _______ _______ _______ _____ _____    ______ ____
ROOT
ATOM      1  C   UNL     1       4.362   1.718  20.557  0.00  0.00    +0.000 C 
ATOM      2  N   UNL     1       3.817   3.061  20.129  0.00  0.00    +0.000 NA
ATOM      3  C   UNL     1       2.722   2.621  19.111  0.00  0.00    +0.000 C 
ATOM      4  C   UNL     1       2.406   3.712  18.083  0.00  0.00    +0.000 C 
ATOM      5  C   UNL     1       3.673   4.571  17.841  0.00  0.00    +0.000 C 
ATOM      6  C   UNL     1       4.936   3.476  18.245  0.00  0.00    +0.000 C 
ATOM      7  C   UNL     1       5.074   3.848  19.620  0.00  0.00    +0.000 C 
ATOM      8  C   UNL     1       5.673   5.431  19.247  0.00  0.00    +0.000 C 
ATOM      9  C   UNL     1       5.783   5.677  17.619  0.00  0.00    +0.000 A 
ATOM     10  C   UNL     1       6.974   5.823  16.879  0.00  0.00    +0.000 A 
ATOM     11  C   UNL     1       7.000   5.401  15.519  0.00  0.00    +0.000 A 
ATOM     12  C   UNL     1       5.865   4.846  14.886  0.00  0.00    +0.000 A 
ATOM     13  F   UNL     1       5.934   4.353  13.623  0.00  0.00    +0.000 F 
ATOM     14  C   UNL     1       4.687   4.692  15.596  0.00  0.00    +0.000 A 
ATOM     15  C   UNL     1       4.679   5.056  16.915  0.00  0.00    +0.000 A 
ENDROOT
BRANCH   5  16
ATOM     16  C   UNL     1       3.076   6.054  18.153  0.00  0.00    +0.000 A 
ATOM     17  C   UNL     1       3.145   7.185  17.284  0.00  0.00    +0.000 A 
ATOM     18  C   UNL     1       2.620   8.445  17.671  0.00  0.00    +0.000 A 
ATOM     19  C   UNL     1       2.027   8.619  18.916  0.00  0.00    +0.000 A 
ATOM     20  C   UNL     1       1.964   7.545  19.789  0.00  0.00    +0.000 A 
ATOM     21  C   UNL     1       2.482   6.295  19.427  0.00  0.00    +0.000 A 
ENDBRANCH   5  16
TORSDOF 1
ENDMDL
MODEL 5
REMARK VINA RESULT:      -7.2      1.671      2.176
REMARK  Name = 
REMARK  2 active torsions:
REMARK  status: ('A' for Active; 'I' for Inactive)
REMARK    1  A    between atoms: C_1  and  N_2
REMARK    2  A    between atoms: C_5  and  C_6
REMARK                            x       y       z     vdW  Elec       q    Type
REMARK                         _______ _______ _______ _____ _____    ______ ____
ROOT
ATOM      1  C   UNL     1       7.121   4.770  14.544  0.00  0.00    +0.000 C 
ATOM      2  N   UNL     1       6.150   5.484  15.456  0.00  0.00    +0.000 NA
ATOM      3  C   UNL     1       7.098   5.903  16.619  0.00  0.00    +0.000 C 
ATOM      4  C   UNL     1       6.349   6.107  17.940  0.00  0.00    +0.000 C 
ATOM      5  C   UNL     1       5.114   5.172  17.978  0.00  0.00    +0.000 C 
ATOM      6  C   UNL     1       5.589   3.900  16.922  0.00  0.00    +0.000 C 
ATOM      7  C   UNL     1       5.019   4.431  15.722  0.00  0.00    +0.000 C 
ATOM      8  C   UNL     1       3.389   4.245  16.280  0.00  0.00    +0.000 C 
ATOM      9  C   UNL     1       3.331   3.587  17.792  0.00  0.00    +0.000 A 
ATOM     10  C   UNL     1       2.841   2.307  18.125  0.00  0.00    +0.000 A 
ATOM     11  C   UNL     1       3.394   1.625  19.246  0.00  0.00    +0.000 A 
ATOM     12  C   UNL     1       4.412   2.195  20.042  0.00  0.00    +0.000 A 
ATOM     13  F   UNL     1       5.000   1.492  21.044  0.00  0.00    +0.000 F 
ATOM     14  C   UNL     1       4.908   3.450  19.731  0.00  0.00    +0.000 A 
ATOM     15  C   UNL     1       4.408   4.083  18.626  0.00  0.00    +0.000 A 
ENDROOT
BRANCH   5  16
ATOM     16  C   UNL     1       3.940   6.262  18.269  0.00  0.00    +0.000 A 
ATOM     17  C   UNL     1       3.603   7.373  17.438  0.00  0.00    +0.000 A 
ATOM     18  C   UNL     1       2.579   8.285  17.805  0.00  0.00    +0.000 A 
ATOM     19  C   UNL     1       1.875   8.127  18.993  0.00  0.00    +0.000 A 
ATOM     20  C   UNL     1       2.193   7.070  19.831  0.00  0.00    +0.000 A 
ATOM     21  C   UNL     1       3.205   6.163  19.488  0.00  0.00    +0.000 A 
ENDBRANCH   5  16
TORSDOF 1
ENDMDL
MODEL 6
REMARK VINA RESULT:      -7.2      1.729      1.983
REMARK  Name = 
REMARK  2 active torsions:
REMARK  status: ('A' for Active; 'I' for Inactive)
REMARK    1  A    between atoms: C_1  and  N_2
REMARK    2  A    between atoms: C_5  and  C_6
REMARK                            x       y       z     vdW  Elec       q    Type
REMARK                         _______ _______ _______ _____ _____    ______ ____
ROOT
ATOM      1  C   UNL     1       7.123   4.924  14.557  0.00  0.00    +0.000 C 
ATOM      2  N   UNL     1       6.165   5.586  15.519  0.00  0.00    +0.000 NA
ATOM      3  C   UNL     1       7.128   5.941  16.692  0.00  0.00    +0.000 C 
ATOM      4  C   UNL     1       6.397   6.072  18.031  0.00  0.00    +0.000 C 
ATOM      5  C   UNL     1       5.161   5.137  18.034  0.00  0.00    +0.000 C 
ATOM      6  C   UNL     1       5.621   3.925  16.904  0.00  0.00    +0.000 C 
ATOM      7  C   UNL     1       5.036   4.521  15.742  0.00  0.00    +0.000 C 
ATOM      8  C   UNL     1       3.413   4.305  16.310  0.00  0.00    +0.000 C 
ATOM      9  C   UNL     1       3.374   3.565  17.784  0.00  0.00    +0.000 A 
ATOM     10  C   UNL     1       2.888   2.269  18.053  0.00  0.00    +0.000 A 
ATOM     11  C   UNL     1       3.454   1.526  19.127  0.00  0.00    +0.000 A 
ATOM     12  C   UNL     1       4.483   2.052  19.941  0.00  0.00    +0.000 A 
ATOM     13  F   UNL     1       5.083   1.294  20.894  0.00  0.00    +0.000 F 
ATOM     14  C   UNL     1       4.976   3.322  19.693  0.00  0.00    +0.000 A 
ATOM     15  C   UNL     1       4.462   4.014  18.631  0.00  0.00    +0.000 A 
ENDROOT
BRANCH   5  16
ATOM     16  C   UNL     1       3.991   6.210  18.400  0.00  0.00    +0.000 A 
ATOM     17  C   UNL     1       3.112   6.141  19.522  0.00  0.00    +0.000 A 
ATOM     18  C   UNL     1       2.101   7.117  19.728  0.00  0.00    +0.000 A 
ATOM     19  C   UNL     1       1.932   8.168  18.835  0.00  0.00    +0.000 A 
ATOM     20  C   UNL     1       2.757   8.250  17.725  0.00  0.00    +0.000 A 
ATOM     21  C   UNL     1       3.757   7.293  17.502  0.00  0.00    +0.000 A 
ENDBRANCH   5  16
TORSDOF 1
ENDMDL
MODEL 7
REMARK VINA RESULT:      -6.8      6.624      8.603
REMARK  Name = 
REMARK  2 active torsions:
REMARK  status: ('A' for Active; 'I' for Inactive)
REMARK    1  A    between atoms: C_1  and  N_2
REMARK    2  A    between atoms: C_5  and  C_6
REMARK                            x       y       z     vdW  Elec       q    Type
REMARK                         _______ _______ _______ _____ _____    ______ ____
ROOT
ATOM      1  C   UNL     1       1.208  15.264  18.616  0.00  0.00    +0.000 C 
ATOM      2  N   UNL     1       0.919  14.046  19.461  0.00  0.00    +0.000 NA
ATOM      3  C   UNL     1       1.905  13.015  18.833  0.00  0.00    +0.000 C 
ATOM      4  C   UNL     1       1.453  11.567  19.049  0.00  0.00    +0.000 C 
ATOM      5  C   UNL     1      -0.094  11.518  19.120  0.00  0.00    +0.000 C 
ATOM      6  C   UNL     1      -0.543  12.911  18.217  0.00  0.00    +0.000 C 
ATOM      7  C   UNL     1      -0.626  13.826  19.315  0.00  0.00    +0.000 C 
ATOM      8  C   UNL     1      -1.996  13.032  20.018  0.00  0.00    +0.000 C 
ATOM      9  C   UNL     1      -2.477  11.732  19.124  0.00  0.00    +0.000 A 
ATOM     10  C   UNL     1      -3.680  11.622  18.395  0.00  0.00    +0.000 A 
ATOM     11  C   UNL     1      -3.707  10.814  17.223  0.00  0.00    +0.000 A 
ATOM     12  C   UNL     1      -2.567  10.112  16.771  0.00  0.00    +0.000 A 
ATOM     13  F   UNL     1      -2.580   9.431  15.596  0.00  0.00    +0.000 F 
ATOM     14  C   UNL     1      -1.376  10.208  17.471  0.00  0.00    +0.000 A 
ATOM     15  C   UNL     1      -1.341  11.021  18.570  0.00  0.00    +0.000 A 
ENDROOT
BRANCH   5  16
ATOM     16  C   UNL     1      -0.290  10.766  20.552  0.00  0.00    +0.000 A 
ATOM     17  C   UNL     1      -0.484  11.404  21.814  0.00  0.00    +0.000 A 
ATOM     18  C   UNL     1      -0.611  10.650  23.010  0.00  0.00    +0.000 A 
ATOM     19  C   UNL     1      -0.543   9.262  22.989  0.00  0.00    +0.000 A 
ATOM     20  C   UNL     1      -0.336   8.615  21.781  0.00  0.00    +0.000 A 
ATOM     21  C   UNL     1      -0.202   9.343  20.591  0.00  0.00    +0.000 A 
ENDBRANCH   5  16
TORSDOF 1
ENDMDL
MODEL 8
REMARK VINA RESULT:      -6.7      2.833      5.959
REMARK  Name = 
REMARK  2 active torsions:
REMARK  status: ('A' for Active; 'I' for Inactive)
REMARK    1  A    between atoms: C_1  and  N_2
REMARK    2  A    between atoms: C_5  and  C_6
REMARK                            x       y       z     vdW  Elec       q    Type
REMARK                         _______ _______ _______ _____ _____    ______ ____
ROOT
ATOM      1  C   UNL     1       1.668   5.016  18.423  0.00  0.00    +0.000 C 
ATOM      2  N   UNL     1       2.684   4.743  17.338  0.00  0.00    +0.000 NA
ATOM      3  C   UNL     1       3.205   3.340  17.774  0.00  0.00    +0.000 C 
ATOM      4  C   UNL     1       4.617   3.052  17.254  0.00  0.00    +0.000 C 
ATOM      5  C   UNL     1       5.398   4.385  17.126  0.00  0.00    +0.000 C 
ATOM      6  C   UNL     1       4.602   5.383  18.279  0.00  0.00    +0.000 C 
ATOM      7  C   UNL     1       3.651   5.976  17.389  0.00  0.00    +0.000 C 
ATOM      8  C   UNL     1       4.858   6.841  16.497  0.00  0.00    +0.000 C 
ATOM      9  C   UNL     1       6.373   6.570  17.092  0.00  0.00    +0.000 A 
ATOM     10  C   UNL     1       7.192   7.514  17.746  0.00  0.00    +0.000 A 
ATOM     11  C   UNL     1       8.119   7.063  18.728  0.00  0.00    +0.000 A 
ATOM     12  C   UNL     1       8.251   5.697  19.063  0.00  0.00    +0.000 A 
ATOM     13  F   UNL     1       9.064   5.295  20.073  0.00  0.00    +0.000 F 
ATOM     14  C   UNL     1       7.455   4.754  18.434  0.00  0.00    +0.000 A 
ATOM     15  C   UNL     1       6.533   5.195  17.525  0.00  0.00    +0.000 A 
ENDROOT
BRANCH   5  16
ATOM     16  C   UNL     1       5.858   4.298  15.566  0.00  0.00    +0.000 A 
ATOM     17  C   UNL     1       7.110   4.734  15.037  0.00  0.00    +0.000 A 
ATOM     18  C   UNL     1       7.396   4.642  13.649  0.00  0.00    +0.000 A 
ATOM     19  C   UNL     1       6.458   4.130  12.760  0.00  0.00    +0.000 A 
ATOM     20  C   UNL     1       5.226   3.717  13.242  0.00  0.00    +0.000 A 
ATOM     21  C   UNL     1       4.924   3.806  14.607  0.00  0.00    +0.000 A 
ENDBRANCH   5  16
TORSDOF 1
ENDMDL
MODEL 9
REMARK VINA RESULT:      -6.7      2.805      5.921
REMARK  Name = 
REMARK  2 active torsions:
REMARK  status: ('A' for Active; 'I' for Inactive)
REMARK    1  A    between atoms: C_1  and  N_2
REMARK    2  A    between atoms: C_5  and  C_6
REMARK                            x       y       z     vdW  Elec       q    Type
REMARK                         _______ _______ _______ _____ _____    ______ ____
ROOT
ATOM      1  C   UNL     1       1.623   4.945  18.556  0.00  0.00    +0.000 C 
ATOM      2  N   UNL     1       2.602   4.704  17.431  0.00  0.00    +0.000 NA
ATOM      3  C   UNL     1       3.147   3.296  17.815  0.00  0.00    +0.000 C 
ATOM      4  C   UNL     1       4.542   3.031  17.240  0.00  0.00    +0.000 C 
ATOM      5  C   UNL     1       5.309   4.372  17.115  0.00  0.00    +0.000 C 
ATOM      6  C   UNL     1       4.547   5.338  18.318  0.00  0.00    +0.000 C 
ATOM      7  C   UNL     1       3.562   5.943  17.476  0.00  0.00    +0.000 C 
ATOM      8  C   UNL     1       4.730   6.838  16.561  0.00  0.00    +0.000 C 
ATOM      9  C   UNL     1       6.267   6.565  17.097  0.00  0.00    +0.000 A 
ATOM     10  C   UNL     1       7.102   7.500  17.742  0.00  0.00    +0.000 A 
ATOM     11  C   UNL     1       8.066   7.035  18.681  0.00  0.00    +0.000 A 
ATOM     12  C   UNL     1       8.219   5.663  18.979  0.00  0.00    +0.000 A 
ATOM     13  F   UNL     1       9.071   5.244  19.951  0.00  0.00    +0.000 F 
ATOM     14  C   UNL     1       7.408   4.728  18.358  0.00  0.00    +0.000 A 
ATOM     15  C   UNL     1       6.452   5.182  17.492  0.00  0.00    +0.000 A 
ENDROOT
BRANCH   5  16
ATOM     16  C   UNL     1       5.714   4.324  15.538  0.00  0.00    +0.000 A 
ATOM     17  C   UNL     1       4.881   3.868  14.472  0.00  0.00    +0.000 A 
ATOM     18  C   UNL     1       5.349   3.837  13.133  0.00  0.00    +0.000 A 
ATOM     19  C   UNL     1       6.639   4.245  12.818  0.00  0.00    +0.000 A 
ATOM     20  C   UNL     1       7.478   4.675  13.834  0.00  0.00    +0.000 A 
ATOM     21  C   UNL     1       7.036   4.706  15.163  0.00  0.00    +0.000 A 
ENDBRANCH   5  16
TORSDOF 1
ENDMDL
