MODEL 1
REMARK VINA RESULT:      -7.6      0.000      0.000
REMARK  Name = 
REMARK  4 active torsions:
REMARK  status: ('A' for Active; 'I' for Inactive)
REMARK    1  A    between atoms: C_1  and  N_2
REMARK    2  A    between atoms: C_5  and  O_6
REMARK    3  A    between atoms: O_6  and  C_7
REMARK    4  A    between atoms: C_14  and  O_15
REMARK                            x       y       z     vdW  Elec       q    Type
REMARK                         _______ _______ _______ _____ _____    ______ ____
ROOT
ATOM      1  C   UNL     1       2.430   7.426  18.563  0.00  0.00    +0.000 C 
ATOM      2  N   UNL     1       3.172   6.179  18.675  0.00  0.00    +0.000 N 
ATOM      3  C   UNL     1       4.406   6.083  18.041  0.00  0.00    +0.000 A 
ATOM      4  O   UNL     1       4.885   7.002  17.369  0.00  0.00    +0.000 OA
ATOM      5  C   UNL     1       5.200   4.813  18.201  0.00  0.00    +0.000 A 
ATOM      6  C   UNL     1       4.718   3.839  19.003  0.00  0.00    +0.000 A 
ATOM      7  C   UNL     1       3.364   3.922  19.564  0.00  0.00    +0.000 A 
ATOM      8  C   UNL     1       2.811   2.828  20.257  0.00  0.00    +0.000 A 
ATOM      9  C   UNL     1       1.542   2.907  20.824  0.00  0.00    +0.000 A 
ATOM     10  C   UNL     1       0.812   4.083  20.704  0.00  0.00    +0.000 A 
ATOM     11  C   UNL     1       1.348   5.171  20.008  0.00  0.00    +0.000 A 
ATOM     12  C   UNL     1       2.620   5.095  19.420  0.00  0.00    +0.000 A 
ENDROOT
BRANCH   6  13
ATOM     13  O   UNL     1       5.413   2.702  19.378  0.00  0.00    +0.000 OA
ATOM     14  H   UNL     1       4.830   1.930  19.290  0.00  0.00    +0.000 HD
ENDBRANCH   6  13
BRANCH   5  15
ATOM     15  O   UNL     1       6.445   4.825  17.570  0.00  0.00    +0.000 OA
BRANCH  15  16
ATOM     16  C   UNL     1       6.572   4.552  16.229  0.00  0.00    +0.000 A 
ATOM     17  C   UNL     1       7.504   5.173  15.391  0.00  0.00    +0.000 A 
ATOM     18  C   UNL     1       7.419   4.995  14.011  0.00  0.00    +0.000 A 
ATOM     19  C   UNL     1       6.458   4.137  13.488  0.00  0.00    +0.000 A 
ATOM     20  F   UNL     1       6.350   4.002  12.160  0.00  0.00    +0.000 F 
ATOM     21  C   UNL     1       5.600   3.430  14.322  0.00  0.00    +0.000 A 
ATOM     22  C   UNL     1       5.660   3.634  15.700  0.00  0.00    +0.000 A 
ENDBRANCH  15  16
ENDBRANCH   5  15
TORSDOF 3
ENDMDL
MODEL 2
REMARK VINA RESULT:      -7.6      0.363      1.109
REMARK  Name = 
REMARK  4 active torsions:
REMARK  status: ('A' for Active; 'I' for Inactive)
REMARK    1  A    between atoms: C_1  and  N_2
REMARK    2  A    between atoms: C_5  and  O_6
REMARK    3  A    between atoms: O_6  and  C_7
REMARK    4  A    between atoms: C_14  and  O_15
REMARK                            x       y       z     vdW  Elec       q    Type
REMARK                         _______ _______ _______ _____ _____    ______ ____
ROOT
ATOM      1  C   UNL     1       2.367   7.534  18.540  0.00  0.00    +0.000 C 
ATOM      2  N   UNL     1       3.147   6.307  18.612  0.00  0.00    +0.000 N 
ATOM      3  C   UNL     1       4.312   6.217  17.858  0.00  0.00    +0.000 A 
ATOM      4  O   UNL     1       4.697   7.125  17.113  0.00  0.00    +0.000 OA
ATOM      5  C   UNL     1       5.149   4.970  17.972  0.00  0.00    +0.000 A 
ATOM      6  C   UNL     1       4.775   4.013  18.848  0.00  0.00    +0.000 A 
ATOM      7  C   UNL     1       3.484   4.085  19.543  0.00  0.00    +0.000 A 
ATOM      8  C   UNL     1       3.032   3.002  20.321  0.00  0.00    +0.000 A 
ATOM      9  C   UNL     1       1.826   3.072  21.014  0.00  0.00    +0.000 A 
ATOM     10  C   UNL     1       1.059   4.227  20.934  0.00  0.00    +0.000 A 
ATOM     11  C   UNL     1       1.494   5.304  20.155  0.00  0.00    +0.000 A 
ATOM     12  C   UNL     1       2.700   5.236  19.441  0.00  0.00    +0.000 A 
ENDROOT
BRANCH   6  13
ATOM     13  O   UNL     1       5.533   2.904  19.183  0.00  0.00    +0.000 OA
ATOM     14  H   UNL     1       5.848   2.999  20.098  0.00  0.00    +0.000 HD
ENDBRANCH   6  13
BRANCH   5  15
ATOM     15  O   UNL     1       6.322   4.989  17.217  0.00  0.00    +0.000 OA
BRANCH  15  16
ATOM     16  C   UNL     1       6.305   4.770  15.860  0.00  0.00    +0.000 A 
ATOM     17  C   UNL     1       5.314   4.036  15.200  0.00  0.00    +0.000 A 
ATOM     18  C   UNL     1       5.491   3.682  13.864  0.00  0.00    +0.000 A 
ATOM     19  C   UNL     1       6.613   4.131  13.177  0.00  0.00    +0.000 A 
ATOM     20  F   UNL     1       6.802   3.753  11.907  0.00  0.00    +0.000 F 
ATOM     21  C   UNL     1       7.547   4.955  13.795  0.00  0.00    +0.000 A 
ATOM     22  C   UNL     1       7.391   5.280  15.142  0.00  0.00    +0.000 A 
ENDBRANCH  15  16
ENDBRANCH   5  15
TORSDOF 3
ENDMDL
MODEL 3
REMARK VINA RESULT:      -7.2      1.016      1.154
REMARK  Name = 
REMARK  4 active torsions:
REMARK  status: ('A' for Active; 'I' for Inactive)
REMARK    1  A    between atoms: C_1  and  N_2
REMARK    2  A    between atoms: C_5  and  O_6
REMARK    3  A    between atoms: O_6  and  C_7
REMARK    4  A    between atoms: C_14  and  O_15
REMARK                            x       y       z     vdW  Elec       q    Type
REMARK                         _______ _______ _______ _____ _____    ______ ____
ROOT
ATOM      1  C   UNL     1       1.735   7.139  19.966  0.00  0.00    +0.000 C 
ATOM      2  N   UNL     1       2.750   6.201  19.511  0.00  0.00    +0.000 N 
ATOM      3  C   UNL     1       3.605   6.596  18.487  0.00  0.00    +0.000 A 
ATOM      4  O   UNL     1       3.521   7.698  17.935  0.00  0.00    +0.000 OA
ATOM      5  C   UNL     1       4.691   5.648  18.051  0.00  0.00    +0.000 A 
ATOM      6  C   UNL     1       4.838   4.478  18.709  0.00  0.00    +0.000 A 
ATOM      7  C   UNL     1       3.852   4.040  19.705  0.00  0.00    +0.000 A 
ATOM      8  C   UNL     1       3.924   2.748  20.259  0.00  0.00    +0.000 A 
ATOM      9  C   UNL     1       3.016   2.335  21.230  0.00  0.00    +0.000 A 
ATOM     10  C   UNL     1       2.026   3.210  21.657  0.00  0.00    +0.000 A 
ATOM     11  C   UNL     1       1.939   4.492  21.104  0.00  0.00    +0.000 A 
ATOM     12  C   UNL     1       2.840   4.912  20.114  0.00  0.00    +0.000 A 
ENDROOT
BRANCH   6  13
ATOM     13  O   UNL     1       5.891   3.595  18.535  0.00  0.00    +0.000 OA
ATOM     14  H   UNL     1       6.466   3.629  19.317  0.00  0.00    +0.000 HD
ENDBRANCH   6  13
BRANCH   5  15
ATOM     15  O   UNL     1       5.529   6.147  17.053  0.00  0.00    +0.000 OA
BRANCH  15  16
ATOM     16  C   UNL     1       5.896   5.380  15.973  0.00  0.00    +0.000 A 
ATOM     17  C   UNL     1       7.214   5.237  15.529  0.00  0.00    +0.000 A 
ATOM     18  C   UNL     1       7.467   4.619  14.305  0.00  0.00    +0.000 A 
ATOM     19  C   UNL     1       6.413   4.079  13.577  0.00  0.00    +0.000 A 
ATOM     20  F   UNL     1       6.654   3.526  12.382  0.00  0.00    +0.000 F 
ATOM     21  C   UNL     1       5.112   4.119  14.066  0.00  0.00    +0.000 A 
ATOM     22  C   UNL     1       4.851   4.768  15.272  0.00  0.00    +0.000 A 
ENDBRANCH  15  16
ENDBRANCH   5  15
TORSDOF 3
ENDMDL
MODEL 4
REMARK VINA RESULT:      -7.1      4.517      6.735
REMARK  Name = 
REMARK  4 active torsions:
REMARK  status: ('A' for Active; 'I' for Inactive)
REMARK    1  A    between atoms: C_1  and  N_2
REMARK    2  A    between atoms: C_5  and  O_6
REMARK    3  A    between atoms: O_6  and  C_7
REMARK    4  A    between atoms: C_14  and  O_15
REMARK                            x       y       z     vdW  Elec       q    Type
REMARK                         _______ _______ _______ _____ _____    ______ ____
ROOT
ATOM      1  C   UNL     1      -0.488  10.967  17.981  0.00  0.00    +0.000 C 
ATOM      2  N   UNL     1       0.058  10.229  19.110  0.00  0.00    +0.000 N 
ATOM      3  C   UNL     1       0.987   9.225  18.858  0.00  0.00    +0.000 A 
ATOM      4  O   UNL     1       1.347   8.920  17.716  0.00  0.00    +0.000 OA
ATOM      5  C   UNL     1       1.595   8.497  20.028  0.00  0.00    +0.000 A 
ATOM      6  C   UNL     1       1.267   8.886  21.279  0.00  0.00    +0.000 A 
ATOM      7  C   UNL     1       0.200   9.868  21.512  0.00  0.00    +0.000 A 
ATOM      8  C   UNL     1      -0.247  10.138  22.819  0.00  0.00    +0.000 A 
ATOM      9  C   UNL     1      -1.233  11.092  23.055  0.00  0.00    +0.000 A 
ATOM     10  C   UNL     1      -1.782  11.786  21.985  0.00  0.00    +0.000 A 
ATOM     11  C   UNL     1      -1.353  11.517  20.682  0.00  0.00    +0.000 A 
ATOM     12  C   UNL     1      -0.370  10.546  20.433  0.00  0.00    +0.000 A 
ENDROOT
BRANCH   6  13
ATOM     13  O   UNL     1       1.873   8.430  22.437  0.00  0.00    +0.000 OA
ATOM     14  H   UNL     1       1.275   7.809  22.886  0.00  0.00    +0.000 HD
ENDBRANCH   6  13
BRANCH   5  15
ATOM     15  O   UNL     1       2.551   7.541  19.682  0.00  0.00    +0.000 OA
BRANCH  15  16
ATOM     16  C   UNL     1       2.205   6.231  19.455  0.00  0.00    +0.000 A 
ATOM     17  C   UNL     1       2.272   5.611  18.203  0.00  0.00    +0.000 A 
ATOM     18  C   UNL     1       1.700   4.353  18.023  0.00  0.00    +0.000 A 
ATOM     19  C   UNL     1       1.141   3.691  19.111  0.00  0.00    +0.000 A 
ATOM     20  F   UNL     1       0.554   2.502  18.927  0.00  0.00    +0.000 F 
ATOM     21  C   UNL     1       1.172   4.253  20.382  0.00  0.00    +0.000 A 
ATOM     22  C   UNL     1       1.710   5.527  20.557  0.00  0.00    +0.000 A 
ENDBRANCH  15  16
ENDBRANCH   5  15
TORSDOF 3
ENDMDL
MODEL 5
REMARK VINA RESULT:      -7.0      1.046      1.506
REMARK  Name = 
REMARK  4 active torsions:
REMARK  status: ('A' for Active; 'I' for Inactive)
REMARK    1  A    between atoms: C_1  and  N_2
REMARK    2  A    between atoms: C_5  and  O_6
REMARK    3  A    between atoms: O_6  and  C_7
REMARK    4  A    between atoms: C_14  and  O_15
REMARK                            x       y       z     vdW  Elec       q    Type
REMARK                         _______ _______ _______ _____ _____    ______ ____
ROOT
ATOM      1  C   UNL     1       1.710   7.052  20.018  0.00  0.00    +0.000 C 
ATOM      2  N   UNL     1       2.743   6.110  19.614  0.00  0.00    +0.000 N 
ATOM      3  C   UNL     1       3.672   6.513  18.661  0.00  0.00    +0.000 A 
ATOM      4  O   UNL     1       3.640   7.627  18.127  0.00  0.00    +0.000 OA
ATOM      5  C   UNL     1       4.774   5.559  18.281  0.00  0.00    +0.000 A 
ATOM      6  C   UNL     1       4.861   4.375  18.924  0.00  0.00    +0.000 A 
ATOM      7  C   UNL     1       3.802   3.931  19.840  0.00  0.00    +0.000 A 
ATOM      8  C   UNL     1       3.820   2.627  20.371  0.00  0.00    +0.000 A 
ATOM      9  C   UNL     1       2.841   2.207  21.268  0.00  0.00    +0.000 A 
ATOM     10  C   UNL     1       1.835   3.087  21.643  0.00  0.00    +0.000 A 
ATOM     11  C   UNL     1       1.802   4.381  21.112  0.00  0.00    +0.000 A 
ATOM     12  C   UNL     1       2.775   4.808  20.196  0.00  0.00    +0.000 A 
ENDROOT
BRANCH   6  13
ATOM     13  O   UNL     1       5.912   3.482  18.805  0.00  0.00    +0.000 OA
ATOM     14  H   UNL     1       6.601   3.876  18.245  0.00  0.00    +0.000 HD
ENDBRANCH   6  13
BRANCH   5  15
ATOM     15  O   UNL     1       5.685   6.067  17.354  0.00  0.00    +0.000 OA
BRANCH  15  16
ATOM     16  C   UNL     1       5.841   5.496  16.114  0.00  0.00    +0.000 A 
ATOM     17  C   UNL     1       4.789   4.965  15.362  0.00  0.00    +0.000 A 
ATOM     18  C   UNL     1       5.065   4.215  14.219  0.00  0.00    +0.000 A 
ATOM     19  C   UNL     1       6.381   4.072  13.795  0.00  0.00    +0.000 A 
ATOM     20  F   UNL     1       6.648   3.315  12.724  0.00  0.00    +0.000 F 
ATOM     21  C   UNL     1       7.424   4.690  14.475  0.00  0.00    +0.000 A 
ATOM     22  C   UNL     1       7.153   5.410  15.638  0.00  0.00    +0.000 A 
ENDBRANCH  15  16
ENDBRANCH   5  15
TORSDOF 3
ENDMDL
MODEL 6
REMARK VINA RESULT:      -7.0      4.523      6.736
REMARK  Name = 
REMARK  4 active torsions:
REMARK  status: ('A' for Active; 'I' for Inactive)
REMARK    1  A    between atoms: C_1  and  N_2
REMARK    2  A    between atoms: C_5  and  O_6
REMARK    3  A    between atoms: O_6  and  C_7
REMARK    4  A    between atoms: C_14  and  O_15
REMARK                            x       y       z     vdW  Elec       q    Type
REMARK                         _______ _______ _______ _____ _____    ______ ____
ROOT
ATOM      1  C   UNL     1      -0.368  11.256  18.076  0.00  0.00    +0.000 C 
ATOM      2  N   UNL     1       0.109  10.427  19.172  0.00  0.00    +0.000 N 
ATOM      3  C   UNL     1       0.994   9.394  18.885  0.00  0.00    +0.000 A 
ATOM      4  O   UNL     1       1.370   9.137  17.737  0.00  0.00    +0.000 OA
ATOM      5  C   UNL     1       1.532   8.569  20.025  0.00  0.00    +0.000 A 
ATOM      6  C   UNL     1       1.189   8.901  21.288  0.00  0.00    +0.000 A 
ATOM      7  C   UNL     1       0.166   9.920  21.551  0.00  0.00    +0.000 A 
ATOM      8  C   UNL     1      -0.304  10.137  22.861  0.00  0.00    +0.000 A 
ATOM      9  C   UNL     1      -1.247  11.125  23.128  0.00  0.00    +0.000 A 
ATOM     10  C   UNL     1      -1.731  11.907  22.088  0.00  0.00    +0.000 A 
ATOM     11  C   UNL     1      -1.280  11.693  20.782  0.00  0.00    +0.000 A 
ATOM     12  C   UNL     1      -0.340  10.689  20.500  0.00  0.00    +0.000 A 
ENDROOT
BRANCH   6  13
ATOM     13  O   UNL     1       1.739   8.348  22.432  0.00  0.00    +0.000 OA
ATOM     14  H   UNL     1       1.779   9.028  23.125  0.00  0.00    +0.000 HD
ENDBRANCH   6  13
BRANCH   5  15
ATOM     15  O   UNL     1       2.449   7.587  19.647  0.00  0.00    +0.000 OA
BRANCH  15  16
ATOM     16  C   UNL     1       2.069   6.277  19.480  0.00  0.00    +0.000 A 
ATOM     17  C   UNL     1       1.673   5.440  20.529  0.00  0.00    +0.000 A 
ATOM     18  C   UNL     1       1.515   4.074  20.300  0.00  0.00    +0.000 A 
ATOM     19  C   UNL     1       1.672   3.570  19.014  0.00  0.00    +0.000 A 
ATOM     20  F   UNL     1       1.562   2.253  18.805  0.00  0.00    +0.000 F 
ATOM     21  C   UNL     1       1.955   4.414  17.945  0.00  0.00    +0.000 A 
ATOM     22  C   UNL     1       2.150   5.775  18.178  0.00  0.00    +0.000 A 
ENDBRANCH  15  16
ENDBRANCH   5  15
TORSDOF 3
ENDMDL
MODEL 7
REMARK VINA RESULT:      -6.9      1.910      3.311
REMARK  Name = 
REMARK  4 active torsions:
REMARK  status: ('A' for Active; 'I' for Inactive)
REMARK    1  A    between atoms: C_1  and  N_2
REMARK    2  A    between atoms: C_5  and  O_6
REMARK    3  A    between atoms: O_6  and  C_7
REMARK    4  A    between atoms: C_14  and  O_15
REMARK                            x       y       z     vdW  Elec       q    Type
REMARK                         _______ _______ _______ _____ _____    ______ ____
ROOT
ATOM      1  C   UNL     1       5.366   4.075  19.751  0.00  0.00    +0.000 C 
ATOM      2  N   UNL     1       5.309   4.995  18.626  0.00  0.00    +0.000 N 
ATOM      3  C   UNL     1       6.312   4.929  17.664  0.00  0.00    +0.000 A 
ATOM      4  O   UNL     1       7.259   4.139  17.741  0.00  0.00    +0.000 OA
ATOM      5  C   UNL     1       6.227   5.843  16.470  0.00  0.00    +0.000 A 
ATOM      6  C   UNL     1       5.150   6.648  16.341  0.00  0.00    +0.000 A 
ATOM      7  C   UNL     1       4.169   6.779  17.426  0.00  0.00    +0.000 A 
ATOM      8  C   UNL     1       3.146   7.744  17.350  0.00  0.00    +0.000 A 
ATOM      9  C   UNL     1       2.189   7.853  18.354  0.00  0.00    +0.000 A 
ATOM     10  C   UNL     1       2.245   6.998  19.447  0.00  0.00    +0.000 A 
ATOM     11  C   UNL     1       3.263   6.044  19.538  0.00  0.00    +0.000 A 
ATOM     12  C   UNL     1       4.241   5.936  18.538  0.00  0.00    +0.000 A 
ENDROOT
BRANCH   6  13
ATOM     13  O   UNL     1       4.854   7.406  15.222  0.00  0.00    +0.000 OA
ATOM     14  H   UNL     1       5.480   7.183  14.513  0.00  0.00    +0.000 HD
ENDBRANCH   6  13
BRANCH   5  15
ATOM     15  O   UNL     1       7.250   5.673  15.536  0.00  0.00    +0.000 OA
BRANCH  15  16
ATOM     16  C   UNL     1       7.069   4.913  14.405  0.00  0.00    +0.000 A 
ATOM     17  C   UNL     1       7.736   5.141  13.197  0.00  0.00    +0.000 A 
ATOM     18  C   UNL     1       7.334   4.463  12.048  0.00  0.00    +0.000 A 
ATOM     19  C   UNL     1       6.328   3.507  12.131  0.00  0.00    +0.000 A 
ATOM     20  F   UNL     1       5.914   2.889  11.018  0.00  0.00    +0.000 F 
ATOM     21  C   UNL     1       5.737   3.195  13.350  0.00  0.00    +0.000 A 
ATOM     22  C   UNL     1       6.112   3.897  14.495  0.00  0.00    +0.000 A 
ENDBRANCH  15  16
ENDBRANCH   5  15
TORSDOF 3
ENDMDL
MODEL 8
REMARK VINA RESULT:      -6.9      1.302      1.730
REMARK  Name = 
REMARK  4 active torsions:
REMARK  status: ('A' for Active; 'I' for Inactive)
REMARK    1  A    between atoms: C_1  and  N_2
REMARK    2  A    between atoms: C_5  and  O_6
REMARK    3  A    between atoms: O_6  and  C_7
REMARK    4  A    between atoms: C_14  and  O_15
REMARK                            x       y       z     vdW  Elec       q    Type
REMARK                         _______ _______ _______ _____ _____    ______ ____
ROOT
ATOM      1  C   UNL     1       2.376   7.136  19.109  0.00  0.00    +0.000 C 
ATOM      2  N   UNL     1       3.040   6.019  18.453  0.00  0.00    +0.000 N 
ATOM      3  C   UNL     1       4.118   6.287  17.616  0.00  0.00    +0.000 A 
ATOM      4  O   UNL     1       4.516   7.434  17.388  0.00  0.00    +0.000 OA
ATOM      5  C   UNL     1       4.840   5.129  16.980  0.00  0.00    +0.000 A 
ATOM      6  C   UNL     1       4.460   3.872  17.293  0.00  0.00    +0.000 A 
ATOM      7  C   UNL     1       3.250   3.623  18.087  0.00  0.00    +0.000 A 
ATOM      8  C   UNL     1       2.771   2.311  18.264  0.00  0.00    +0.000 A 
ATOM      9  C   UNL     1       1.646   2.059  19.044  0.00  0.00    +0.000 A 
ATOM     10  C   UNL     1       0.987   3.117  19.654  0.00  0.00    +0.000 A 
ATOM     11  C   UNL     1       1.448   4.426  19.476  0.00  0.00    +0.000 A 
ATOM     12  C   UNL     1       2.572   4.691  18.679  0.00  0.00    +0.000 A 
ENDROOT
BRANCH   6  13
ATOM     13  O   UNL     1       5.138   2.722  16.926  0.00  0.00    +0.000 OA
ATOM     14  H   UNL     1       4.534   2.142  16.433  0.00  0.00    +0.000 HD
ENDBRANCH   6  13
BRANCH   5  15
ATOM     15  O   UNL     1       5.936   5.492  16.195  0.00  0.00    +0.000 OA
BRANCH  15  16
ATOM     16  C   UNL     1       6.091   5.015  14.915  0.00  0.00    +0.000 A 
ATOM     17  C   UNL     1       5.136   4.239  14.251  0.00  0.00    +0.000 A 
ATOM     18  C   UNL     1       5.466   3.621  13.045  0.00  0.00    +0.000 A 
ATOM     19  C   UNL     1       6.713   3.849  12.475  0.00  0.00    +0.000 A 
ATOM     20  F   UNL     1       7.043   3.220  11.341  0.00  0.00    +0.000 F 
ATOM     21  C   UNL     1       7.627   4.709  13.075  0.00  0.00    +0.000 A 
ATOM     22  C   UNL     1       7.314   5.299  14.299  0.00  0.00    +0.000 A 
ENDBRANCH  15  16
ENDBRANCH   5  15
TORSDOF 3
ENDMDL
MODEL 9
REMARK VINA RESULT:      -6.8      0.989      2.904
REMARK  Name = 
REMARK  4 active torsions:
REMARK  status: ('A' for Active; 'I' for Inactive)
REMARK    1  A    between atoms: C_1  and  N_2
REMARK    2  A    between atoms: C_5  and  O_6
REMARK    3  A    between atoms: O_6  and  C_7
REMARK    4  A    between atoms: C_14  and  O_15
REMARK                            x       y       z     vdW  Elec       q    Type
REMARK                         _______ _______ _______ _____ _____    ______ ____
ROOT
ATOM      1  C   UNL     1       2.696   2.822  20.898  0.00  0.00    +0.000 C 
ATOM      2  N   UNL     1       3.296   3.871  20.088  0.00  0.00    +0.000 N 
ATOM      3  C   UNL     1       4.438   3.570  19.354  0.00  0.00    +0.000 A 
ATOM      4  O   UNL     1       4.977   2.458  19.382  0.00  0.00    +0.000 OA
ATOM      5  C   UNL     1       5.029   4.639  18.472  0.00  0.00    +0.000 A 
ATOM      6  C   UNL     1       4.395   5.827  18.373  0.00  0.00    +0.000 A 
ATOM      7  C   UNL     1       3.260   6.153  19.245  0.00  0.00    +0.000 A 
ATOM      8  C   UNL     1       2.717   7.452  19.252  0.00  0.00    +0.000 A 
ATOM      9  C   UNL     1       1.618   7.764  20.047  0.00  0.00    +0.000 A 
ATOM     10  C   UNL     1       1.051   6.780  20.846  0.00  0.00    +0.000 A 
ATOM     11  C   UNL     1       1.590   5.490  20.855  0.00  0.00    +0.000 A 
ATOM     12  C   UNL     1       2.707   5.169  20.068  0.00  0.00    +0.000 A 
ENDROOT
BRANCH   6  13
ATOM     13  O   UNL     1       4.722   6.829  17.477  0.00  0.00    +0.000 OA
ATOM     14  H   UNL     1       4.865   6.437  16.599  0.00  0.00    +0.000 HD
ENDBRANCH   6  13
BRANCH   5  15
ATOM     15  O   UNL     1       6.145   4.232  17.738  0.00  0.00    +0.000 OA
BRANCH  15  16
ATOM     16  C   UNL     1       6.184   4.347  16.369  0.00  0.00    +0.000 A 
ATOM     17  C   UNL     1       5.200   3.838  15.515  0.00  0.00    +0.000 A 
ATOM     18  C   UNL     1       5.427   3.809  14.140  0.00  0.00    +0.000 A 
ATOM     19  C   UNL     1       6.595   4.361  13.625  0.00  0.00    +0.000 A 
ATOM     20  F   UNL     1       6.830   4.293  12.309  0.00  0.00    +0.000 F 
ATOM     21  C   UNL     1       7.526   4.969  14.459  0.00  0.00    +0.000 A 
ATOM     22  C   UNL     1       7.319   4.967  15.837  0.00  0.00    +0.000 A 
ENDBRANCH  15  16
ENDBRANCH   5  15
TORSDOF 3
ENDMDL
