MODEL 1
REMARK VINA RESULT:      -8.3      0.000      0.000
REMARK  Name = 
REMARK  2 active torsions:
REMARK  status: ('A' for Active; 'I' for Inactive)
REMARK    1  A    between atoms: C_1  and  C_2
REMARK    2  A    between atoms: C_2  and  C_3
REMARK                            x       y       z     vdW  Elec       q    Type
REMARK                         _______ _______ _______ _____ _____    ______ ____
ROOT
ATOM      1  C   UNL     1       5.783   4.820  15.207  0.00  0.00    +0.000 A 
ATOM      2  C   UNL     1       5.544   6.152  15.568  0.00  0.00    +0.000 A 
ATOM      3  C   UNL     1       4.703   6.455  16.641  0.00  0.00    +0.000 A 
ATOM      4  C   UNL     1       4.096   5.424  17.368  0.00  0.00    +0.000 A 
ATOM      5  C   UNL     1       4.339   4.094  17.026  0.00  0.00    +0.000 A 
ATOM      6  C   UNL     1       5.178   3.793  15.946  0.00  0.00    +0.000 A 
ATOM      7  C   UNL     1       3.721   3.001  17.802  0.00  0.00    +0.000 C 
ATOM      8  O   UNL     1       3.958   1.830  17.525  0.00  0.00    +0.000 OA
ATOM      9  C   UNL     1       2.805   3.335  18.913  0.00  0.00    +0.000 A 
ATOM     10  C   UNL     1       2.191   2.307  19.641  0.00  0.00    +0.000 A 
ATOM     11  C   UNL     1       1.304   2.616  20.675  0.00  0.00    +0.000 A 
ATOM     12  C   UNL     1       1.028   3.947  20.983  0.00  0.00    +0.000 A 
ATOM     13  C   UNL     1       1.648   4.973  20.268  0.00  0.00    +0.000 A 
ATOM     14  C   UNL     1       2.543   4.665  19.234  0.00  0.00    +0.000 A 
ATOM     15  C   UNL     1       3.202   5.759  18.493  0.00  0.00    +0.000 C 
ATOM     16  O   UNL     1       3.008   6.927  18.808  0.00  0.00    +0.000 OA
ENDROOT
BRANCH   1  18
ATOM     17  C   UNL     1       6.035   3.616  13.027  0.00  0.00    +0.000 C 
ATOM     18  C   UNL     1       6.715   4.495  14.066  0.00  0.00    +0.000 C 
ENDBRANCH   1  18
TORSDOF 1
ENDMDL
MODEL 2
REMARK VINA RESULT:      -7.7      1.624      1.724
REMARK  Name = 
REMARK  2 active torsions:
REMARK  status: ('A' for Active; 'I' for Inactive)
REMARK    1  A    between atoms: C_1  and  C_2
REMARK    2  A    between atoms: C_2  and  C_3
REMARK                            x       y       z     vdW  Elec       q    Type
REMARK                         _______ _______ _______ _____ _____    ______ ____
ROOT
ATOM      1  C   UNL     1       6.247   4.344  15.039  0.00  0.00    +0.000 A 
ATOM      2  C   UNL     1       7.150   4.699  16.049  0.00  0.00    +0.000 A 
ATOM      3  C   UNL     1       6.740   4.740  17.383  0.00  0.00    +0.000 A 
ATOM      4  C   UNL     1       5.420   4.419  17.721  0.00  0.00    +0.000 A 
ATOM      5  C   UNL     1       4.517   4.050  16.725  0.00  0.00    +0.000 A 
ATOM      6  C   UNL     1       4.929   4.015  15.387  0.00  0.00    +0.000 A 
ATOM      7  C   UNL     1       3.129   3.688  17.075  0.00  0.00    +0.000 C 
ATOM      8  O   UNL     1       2.341   3.330  16.206  0.00  0.00    +0.000 OA
ATOM      9  C   UNL     1       2.698   3.768  18.486  0.00  0.00    +0.000 A 
ATOM     10  C   UNL     1       1.377   3.453  18.829  0.00  0.00    +0.000 A 
ATOM     11  C   UNL     1       0.956   3.552  20.157  0.00  0.00    +0.000 A 
ATOM     12  C   UNL     1       1.850   3.967  21.143  0.00  0.00    +0.000 A 
ATOM     13  C   UNL     1       3.170   4.270  20.806  0.00  0.00    +0.000 A 
ATOM     14  C   UNL     1       3.596   4.165  19.475  0.00  0.00    +0.000 A 
ATOM     15  C   UNL     1       4.998   4.476  19.134  0.00  0.00    +0.000 C 
ATOM     16  O   UNL     1       5.799   4.777  20.011  0.00  0.00    +0.000 OA
ENDROOT
BRANCH   1  18
ATOM     17  C   UNL     1       5.743   3.443  12.759  0.00  0.00    +0.000 C 
ATOM     18  C   UNL     1       6.700   4.273  13.602  0.00  0.00    +0.000 C 
ENDBRANCH   1  18
TORSDOF 1
ENDMDL
MODEL 3
REMARK VINA RESULT:      -7.0      1.495      6.063
REMARK  Name = 
REMARK  2 active torsions:
REMARK  status: ('A' for Active; 'I' for Inactive)
REMARK    1  A    between atoms: C_1  and  C_2
REMARK    2  A    between atoms: C_2  and  C_3
REMARK                            x       y       z     vdW  Elec       q    Type
REMARK                         _______ _______ _______ _____ _____    ______ ____
ROOT
ATOM      1  C   UNL     1       1.695   6.489  20.472  0.00  0.00    +0.000 A 
ATOM      2  C   UNL     1       1.673   5.116  20.747  0.00  0.00    +0.000 A 
ATOM      3  C   UNL     1       2.391   4.222  19.950  0.00  0.00    +0.000 A 
ATOM      4  C   UNL     1       3.145   4.696  18.870  0.00  0.00    +0.000 A 
ATOM      5  C   UNL     1       3.186   6.063  18.596  0.00  0.00    +0.000 A 
ATOM      6  C   UNL     1       2.460   6.957  19.393  0.00  0.00    +0.000 A 
ATOM      7  C   UNL     1       3.997   6.574  17.473  0.00  0.00    +0.000 C 
ATOM      8  O   UNL     1       4.063   7.777  17.250  0.00  0.00    +0.000 OA
ATOM      9  C   UNL     1       4.725   5.615  16.617  0.00  0.00    +0.000 A 
ATOM     10  C   UNL     1       5.478   6.083  15.532  0.00  0.00    +0.000 A 
ATOM     11  C   UNL     1       6.146   5.180  14.702  0.00  0.00    +0.000 A 
ATOM     12  C   UNL     1       6.065   3.811  14.952  0.00  0.00    +0.000 A 
ATOM     13  C   UNL     1       5.326   3.342  16.039  0.00  0.00    +0.000 A 
ATOM     14  C   UNL     1       4.659   4.247  16.876  0.00  0.00    +0.000 A 
ATOM     15  C   UNL     1       3.892   3.739  18.031  0.00  0.00    +0.000 C 
ATOM     16  O   UNL     1       3.874   2.542  18.287  0.00  0.00    +0.000 OA
ENDROOT
BRANCH   1  18
ATOM     17  C   UNL     1       0.852   8.833  20.713  0.00  0.00    +0.000 C 
ATOM     18  C   UNL     1       0.941   7.455  21.351  0.00  0.00    +0.000 C 
ENDBRANCH   1  18
TORSDOF 1
ENDMDL
MODEL 4
REMARK VINA RESULT:      -6.9      2.754      4.449
REMARK  Name = 
REMARK  2 active torsions:
REMARK  status: ('A' for Active; 'I' for Inactive)
REMARK    1  A    between atoms: C_1  and  C_2
REMARK    2  A    between atoms: C_2  and  C_3
REMARK                            x       y       z     vdW  Elec       q    Type
REMARK                         _______ _______ _______ _____ _____    ______ ____
ROOT
ATOM      1  C   UNL     1       4.706   5.804  16.733  0.00  0.00    +0.000 A 
ATOM      2  C   UNL     1       4.581   4.805  17.707  0.00  0.00    +0.000 A 
ATOM      3  C   UNL     1       3.764   5.002  18.822  0.00  0.00    +0.000 A 
ATOM      4  C   UNL     1       3.057   6.201  18.970  0.00  0.00    +0.000 A 
ATOM      5  C   UNL     1       3.161   7.196  17.999  0.00  0.00    +0.000 A 
ATOM      6  C   UNL     1       3.987   6.999  16.884  0.00  0.00    +0.000 A 
ATOM      7  C   UNL     1       2.401   8.454  18.136  0.00  0.00    +0.000 C 
ATOM      8  O   UNL     1       2.465   9.317  17.268  0.00  0.00    +0.000 OA
ATOM      9  C   UNL     1       1.567   8.663  19.337  0.00  0.00    +0.000 A 
ATOM     10  C   UNL     1       0.860   9.863  19.493  0.00  0.00    +0.000 A 
ATOM     11  C   UNL     1       0.091  10.079  20.638  0.00  0.00    +0.000 A 
ATOM     12  C   UNL     1       0.026   9.100  21.629  0.00  0.00    +0.000 A 
ATOM     13  C   UNL     1       0.718   7.898  21.471  0.00  0.00    +0.000 A 
ATOM     14  C   UNL     1       1.487   7.678  20.320  0.00  0.00    +0.000 A 
ATOM     15  C   UNL     1       2.204   6.398  20.158  0.00  0.00    +0.000 C 
ATOM     16  O   UNL     1       2.093   5.514  20.999  0.00  0.00    +0.000 OA
ENDROOT
BRANCH   1  18
ATOM     17  C   UNL     1       5.785   4.095  15.257  0.00  0.00    +0.000 C 
ATOM     18  C   UNL     1       5.567   5.578  15.516  0.00  0.00    +0.000 C 
ENDBRANCH   1  18
TORSDOF 1
ENDMDL
MODEL 5
REMARK VINA RESULT:      -6.9      2.400      4.066
REMARK  Name = 
REMARK  2 active torsions:
REMARK  status: ('A' for Active; 'I' for Inactive)
REMARK    1  A    between atoms: C_1  and  C_2
REMARK    2  A    between atoms: C_2  and  C_3
REMARK                            x       y       z     vdW  Elec       q    Type
REMARK                         _______ _______ _______ _____ _____    ______ ____
ROOT
ATOM      1  C   UNL     1       4.990   4.503  17.072  0.00  0.00    +0.000 A 
ATOM      2  C   UNL     1       4.699   3.674  18.163  0.00  0.00    +0.000 A 
ATOM      3  C   UNL     1       3.852   4.114  19.181  0.00  0.00    +0.000 A 
ATOM      4  C   UNL     1       3.279   5.389  19.114  0.00  0.00    +0.000 A 
ATOM      5  C   UNL     1       3.549   6.218  18.025  0.00  0.00    +0.000 A 
ATOM      6  C   UNL     1       4.405   5.776  17.008  0.00  0.00    +0.000 A 
ATOM      7  C   UNL     1       2.932   7.556  17.935  0.00  0.00    +0.000 C 
ATOM      8  O   UNL     1       3.140   8.273  16.964  0.00  0.00    +0.000 OA
ATOM      9  C   UNL     1       2.064   8.023  19.036  0.00  0.00    +0.000 A 
ATOM     10  C   UNL     1       1.492   9.301  18.977  0.00  0.00    +0.000 A 
ATOM     11  C   UNL     1       0.692   9.759  20.026  0.00  0.00    +0.000 A 
ATOM     12  C   UNL     1       0.462   8.945  21.135  0.00  0.00    +0.000 A 
ATOM     13  C   UNL     1       1.020   7.667  21.191  0.00  0.00    +0.000 A 
ATOM     14  C   UNL     1       1.819   7.203  20.136  0.00  0.00    +0.000 A 
ATOM     15  C   UNL     1       2.392   5.845  20.202  0.00  0.00    +0.000 C 
ATOM     16  O   UNL     1       2.137   5.108  21.146  0.00  0.00    +0.000 OA
ENDROOT
BRANCH   1  18
ATOM     17  C   UNL     1       5.640   4.787  14.671  0.00  0.00    +0.000 C 
ATOM     18  C   UNL     1       5.883   4.014  15.959  0.00  0.00    +0.000 C 
ENDBRANCH   1  18
TORSDOF 1
ENDMDL
MODEL 6
REMARK VINA RESULT:      -6.9      2.317      3.585
REMARK  Name = 
REMARK  2 active torsions:
REMARK  status: ('A' for Active; 'I' for Inactive)
REMARK    1  A    between atoms: C_1  and  C_2
REMARK    2  A    between atoms: C_2  and  C_3
REMARK                            x       y       z     vdW  Elec       q    Type
REMARK                         _______ _______ _______ _____ _____    ______ ____
ROOT
ATOM      1  C   UNL     1       6.923   6.684  17.673  0.00  0.00    +0.000 A 
ATOM      2  C   UNL     1       7.551   5.464  17.957  0.00  0.00    +0.000 A 
ATOM      3  C   UNL     1       6.833   4.418  18.539  0.00  0.00    +0.000 A 
ATOM      4  C   UNL     1       5.475   4.580  18.837  0.00  0.00    +0.000 A 
ATOM      5  C   UNL     1       4.837   5.784  18.546  0.00  0.00    +0.000 A 
ATOM      6  C   UNL     1       5.560   6.835  17.967  0.00  0.00    +0.000 A 
ATOM      7  C   UNL     1       3.400   5.956  18.836  0.00  0.00    +0.000 C 
ATOM      8  O   UNL     1       2.828   7.001  18.550  0.00  0.00    +0.000 OA
ATOM      9  C   UNL     1       2.660   4.853  19.483  0.00  0.00    +0.000 A 
ATOM     10  C   UNL     1       1.302   5.011  19.789  0.00  0.00    +0.000 A 
ATOM     11  C   UNL     1       0.603   3.982  20.425  0.00  0.00    +0.000 A 
ATOM     12  C   UNL     1       1.257   2.796  20.757  0.00  0.00    +0.000 A 
ATOM     13  C   UNL     1       2.607   2.631  20.443  0.00  0.00    +0.000 A 
ATOM     14  C   UNL     1       3.308   3.660  19.800  0.00  0.00    +0.000 A 
ATOM     15  C   UNL     1       4.731   3.468  19.461  0.00  0.00    +0.000 C 
ATOM     16  O   UNL     1       5.287   2.402  19.695  0.00  0.00    +0.000 OA
ENDROOT
BRANCH   1  18
ATOM     17  C   UNL     1       8.190   8.811  18.045  0.00  0.00    +0.000 C 
ATOM     18  C   UNL     1       7.693   7.804  17.019  0.00  0.00    +0.000 C 
ENDBRANCH   1  18
TORSDOF 1
ENDMDL
MODEL 7
REMARK VINA RESULT:      -6.9      2.478      3.741
REMARK  Name = 
REMARK  2 active torsions:
REMARK  status: ('A' for Active; 'I' for Inactive)
REMARK    1  A    between atoms: C_1  and  C_2
REMARK    2  A    between atoms: C_2  and  C_3
REMARK                            x       y       z     vdW  Elec       q    Type
REMARK                         _______ _______ _______ _____ _____    ______ ____
ROOT
ATOM      1  C   UNL     1       7.139   7.022  17.941  0.00  0.00    +0.000 A 
ATOM      2  C   UNL     1       7.773   5.996  18.652  0.00  0.00    +0.000 A 
ATOM      3  C   UNL     1       7.047   4.891  19.101  0.00  0.00    +0.000 A 
ATOM      4  C   UNL     1       5.676   4.799  18.835  0.00  0.00    +0.000 A 
ATOM      5  C   UNL     1       5.037   5.807  18.115  0.00  0.00    +0.000 A 
ATOM      6  C   UNL     1       5.766   6.917  17.671  0.00  0.00    +0.000 A 
ATOM      7  C   UNL     1       3.596   5.707  17.811  0.00  0.00    +0.000 C 
ATOM      8  O   UNL     1       3.038   6.574  17.149  0.00  0.00    +0.000 OA
ATOM      9  C   UNL     1       2.831   4.550  18.321  0.00  0.00    +0.000 A 
ATOM     10  C   UNL     1       1.458   4.454  18.062  0.00  0.00    +0.000 A 
ATOM     11  C   UNL     1       0.724   3.377  18.564  0.00  0.00    +0.000 A 
ATOM     12  C   UNL     1       1.358   2.395  19.323  0.00  0.00    +0.000 A 
ATOM     13  C   UNL     1       2.729   2.480  19.572  0.00  0.00    +0.000 A 
ATOM     14  C   UNL     1       3.468   3.558  19.065  0.00  0.00    +0.000 A 
ATOM     15  C   UNL     1       4.919   3.630  19.324  0.00  0.00    +0.000 C 
ATOM     16  O   UNL     1       5.486   2.733  19.936  0.00  0.00    +0.000 OA
ENDROOT
BRANCH   1  18
ATOM     17  C   UNL     1       8.583   8.965  18.575  0.00  0.00    +0.000 C 
ATOM     18  C   UNL     1       7.931   8.200  17.433  0.00  0.00    +0.000 C 
ENDBRANCH   1  18
TORSDOF 1
ENDMDL
MODEL 8
REMARK VINA RESULT:      -6.9      0.953      5.495
REMARK  Name = 
REMARK  2 active torsions:
REMARK  status: ('A' for Active; 'I' for Inactive)
REMARK    1  A    between atoms: C_1  and  C_2
REMARK    2  A    between atoms: C_2  and  C_3
REMARK                            x       y       z     vdW  Elec       q    Type
REMARK                         _______ _______ _______ _____ _____    ______ ____
ROOT
ATOM      1  C   UNL     1       1.872   4.066  20.384  0.00  0.00    +0.000 A 
ATOM      2  C   UNL     1       1.858   5.466  20.359  0.00  0.00    +0.000 A 
ATOM      3  C   UNL     1       2.584   6.164  19.391  0.00  0.00    +0.000 A 
ATOM      4  C   UNL     1       3.327   5.465  18.433  0.00  0.00    +0.000 A 
ATOM      5  C   UNL     1       3.336   4.071  18.440  0.00  0.00    +0.000 A 
ATOM      6  C   UNL     1       2.612   3.373  19.415  0.00  0.00    +0.000 A 
ATOM      7  C   UNL     1       4.099   3.326  17.419  0.00  0.00    +0.000 C 
ATOM      8  O   UNL     1       4.083   2.100  17.401  0.00  0.00    +0.000 OA
ATOM      9  C   UNL     1       4.890   4.076  16.422  0.00  0.00    +0.000 A 
ATOM     10  C   UNL     1       5.640   3.382  15.463  0.00  0.00    +0.000 A 
ATOM     11  C   UNL     1       6.412   4.084  14.535  0.00  0.00    +0.000 A 
ATOM     12  C   UNL     1       6.437   5.478  14.561  0.00  0.00    +0.000 A 
ATOM     13  C   UNL     1       5.681   6.173  15.507  0.00  0.00    +0.000 A 
ATOM     14  C   UNL     1       4.902   5.470  16.436  0.00  0.00    +0.000 A 
ATOM     15  C   UNL     1       4.097   6.216  17.422  0.00  0.00    +0.000 C 
ATOM     16  O   UNL     1       4.069   7.441  17.403  0.00  0.00    +0.000 OA
ENDROOT
BRANCH   1  18
ATOM     17  C   UNL     1       1.849   2.144  21.987  0.00  0.00    +0.000 C 
ATOM     18  C   UNL     1       1.065   3.314  21.412  0.00  0.00    +0.000 C 
ENDBRANCH   1  18
TORSDOF 1
ENDMDL
MODEL 9
REMARK VINA RESULT:      -6.9      3.228      6.632
REMARK  Name = 
REMARK  2 active torsions:
REMARK  status: ('A' for Active; 'I' for Inactive)
REMARK    1  A    between atoms: C_1  and  C_2
REMARK    2  A    between atoms: C_2  and  C_3
REMARK                            x       y       z     vdW  Elec       q    Type
REMARK                         _______ _______ _______ _____ _____    ______ ____
ROOT
ATOM      1  C   UNL     1       0.280   8.843  21.479  0.00  0.00    +0.000 A 
ATOM      2  C   UNL     1       0.354   9.801  20.459  0.00  0.00    +0.000 A 
ATOM      3  C   UNL     1       1.130   9.566  19.322  0.00  0.00    +0.000 A 
ATOM      4  C   UNL     1       1.835   8.365  19.191  0.00  0.00    +0.000 A 
ATOM      5  C   UNL     1       1.757   7.398  20.193  0.00  0.00    +0.000 A 
ATOM      6  C   UNL     1       0.983   7.638  21.336  0.00  0.00    +0.000 A 
ATOM      7  C   UNL     1       2.480   6.118  20.053  0.00  0.00    +0.000 C 
ATOM      8  O   UNL     1       2.386   5.253  20.916  0.00  0.00    +0.000 OA
ATOM      9  C   UNL     1       3.325   5.896  18.861  0.00  0.00    +0.000 A 
ATOM     10  C   UNL     1       4.037   4.697  18.727  0.00  0.00    +0.000 A 
ATOM     11  C   UNL     1       4.858   4.492  17.616  0.00  0.00    +0.000 A 
ATOM     12  C   UNL     1       4.971   5.480  16.639  0.00  0.00    +0.000 A 
ATOM     13  C   UNL     1       4.252   6.671  16.763  0.00  0.00    +0.000 A 
ATOM     14  C   UNL     1       3.423   6.876  17.875  0.00  0.00    +0.000 A 
ATOM     15  C   UNL     1       2.659   8.134  17.988  0.00  0.00    +0.000 C 
ATOM     16  O   UNL     1       2.708   8.973  17.098  0.00  0.00    +0.000 OA
ENDROOT
BRANCH   1  18
ATOM     17  C   UNL     1      -0.762  10.575  22.955  0.00  0.00    +0.000 C 
ATOM     18  C   UNL     1      -0.581   9.087  22.693  0.00  0.00    +0.000 C 
ENDBRANCH   1  18
TORSDOF 1
ENDMDL
