MODEL 1
REMARK VINA RESULT:      -7.9      0.000      0.000
REMARK  Name = 
REMARK  4 active torsions:
REMARK  status: ('A' for Active; 'I' for Inactive)
REMARK    1  A    between atoms: O_1  and  C_2
REMARK    2  A    between atoms: C_5  and  C_6
REMARK    3  A    between atoms: C_10  and  O_11
REMARK    4  A    between atoms: C_13  and  C_14
REMARK                            x       y       z     vdW  Elec       q    Type
REMARK                         _______ _______ _______ _____ _____    ______ ____
ROOT
ATOM      1  C   UNL     1       4.006   3.805  18.271  0.00  0.00    +0.000 A 
ATOM      2  N   UNL     1       3.848   3.586  16.979  0.00  0.00    +0.000 NA
ATOM      3  C   UNL     1       4.979   4.113  16.411  0.00  0.00    +0.000 A 
ATOM      4  C   UNL     1       5.383   4.143  15.074  0.00  0.00    +0.000 A 
ATOM      5  C   UNL     1       6.619   4.723  14.790  0.00  0.00    +0.000 A 
ATOM      6  C   UNL     1       7.430   5.265  15.790  0.00  0.00    +0.000 A 
ATOM      7  C   UNL     1       7.031   5.281  17.137  0.00  0.00    +0.000 A 
ATOM      8  C   UNL     1       5.796   4.665  17.390  0.00  0.00    +0.000 A 
ATOM      9  O   UNL     1       5.167   4.468  18.593  0.00  0.00    +0.000 OA
ENDROOT
BRANCH   1  13
ATOM     10  C   UNL     1       1.521   2.653  21.551  0.00  0.00    +0.000 A 
ATOM     11  C   UNL     1       2.868   2.311  21.545  0.00  0.00    +0.000 A 
ATOM     12  C   UNL     1       3.665   2.682  20.452  0.00  0.00    +0.000 A 
ATOM     13  C   UNL     1       3.124   3.394  19.364  0.00  0.00    +0.000 A 
ATOM     14  C   UNL     1       1.761   3.704  19.400  0.00  0.00    +0.000 A 
ATOM     15  F   UNL     1       1.179   4.376  18.395  0.00  0.00    +0.000 F 
ATOM     16  C   UNL     1       0.962   3.339  20.482  0.00  0.00    +0.000 A 
BRANCH  10  17
ATOM     17  O   UNL     1       0.708   2.331  22.594  0.00  0.00    +0.000 OA
ATOM     18  H   UNL     1       0.872   1.409  22.858  0.00  0.00    +0.000 HD
ENDBRANCH  10  17
ENDBRANCH   1  13
BRANCH   7  19
ATOM     19  C   UNL     1       7.832   5.771  18.265  0.00  0.00    +0.000 C 
ATOM     20  C   UNL     1       8.209   7.020  18.575  0.00  0.00    +0.000 C 
ATOM     21 BR   UNL     1       7.819   8.619  17.723  0.00  0.00    +0.000 Br
ENDBRANCH   7  19
BRANCH   5  22
ATOM     22  O   UNL     1       7.091   4.767  13.508  0.00  0.00    +0.000 OA
ATOM     23  H   UNL     1       6.363   5.011  12.912  0.00  0.00    +0.000 HD
ENDBRANCH   5  22
TORSDOF 4
ENDMDL
MODEL 2
REMARK VINA RESULT:      -7.8      1.068      1.489
REMARK  Name = 
REMARK  4 active torsions:
REMARK  status: ('A' for Active; 'I' for Inactive)
REMARK    1  A    between atoms: O_1  and  C_2
REMARK    2  A    between atoms: C_5  and  C_6
REMARK    3  A    between atoms: C_10  and  O_11
REMARK    4  A    between atoms: C_13  and  C_14
REMARK                            x       y       z     vdW  Elec       q    Type
REMARK                         _______ _______ _______ _____ _____    ______ ____
ROOT
ATOM      1  C   UNL     1       4.051   3.943  18.447  0.00  0.00    +0.000 A 
ATOM      2  N   UNL     1       3.875   3.695  17.163  0.00  0.00    +0.000 NA
ATOM      3  C   UNL     1       4.991   4.221  16.566  0.00  0.00    +0.000 A 
ATOM      4  C   UNL     1       5.374   4.227  15.222  0.00  0.00    +0.000 A 
ATOM      5  C   UNL     1       6.599   4.813  14.906  0.00  0.00    +0.000 A 
ATOM      6  C   UNL     1       7.419   5.385  15.881  0.00  0.00    +0.000 A 
ATOM      7  C   UNL     1       7.042   5.425  17.234  0.00  0.00    +0.000 A 
ATOM      8  C   UNL     1       5.817   4.803  17.520  0.00  0.00    +0.000 A 
ATOM      9  O   UNL     1       5.209   4.625  18.736  0.00  0.00    +0.000 OA
ENDROOT
BRANCH   1  13
ATOM     10  C   UNL     1       1.438   2.762  21.615  0.00  0.00    +0.000 A 
ATOM     11  C   UNL     1       1.016   3.696  20.677  0.00  0.00    +0.000 A 
ATOM     12  C   UNL     1       1.893   4.085  19.654  0.00  0.00    +0.000 A 
ATOM     13  C   UNL     1       3.191   3.546  19.562  0.00  0.00    +0.000 A 
ATOM     14  C   UNL     1       3.584   2.622  20.535  0.00  0.00    +0.000 A 
ATOM     15  F   UNL     1       4.807   2.072  20.511  0.00  0.00    +0.000 F 
ATOM     16  C   UNL     1       2.718   2.230  21.555  0.00  0.00    +0.000 A 
BRANCH  10  17
ATOM     17  O   UNL     1       0.620   2.340  22.618  0.00  0.00    +0.000 OA
ATOM     18  H   UNL     1       0.896   1.454  22.909  0.00  0.00    +0.000 HD
ENDBRANCH  10  17
ENDBRANCH   1  13
BRANCH   7  19
ATOM     19  C   UNL     1       7.855   5.949  18.338  0.00  0.00    +0.000 C 
ATOM     20  C   UNL     1       8.238   7.205  18.605  0.00  0.00    +0.000 C 
ATOM     21 BR   UNL     1       7.843   8.778  17.708  0.00  0.00    +0.000 Br
ENDBRANCH   7  19
BRANCH   5  22
ATOM     22  O   UNL     1       7.050   4.834  13.615  0.00  0.00    +0.000 OA
ATOM     23  H   UNL     1       7.757   4.175  13.517  0.00  0.00    +0.000 HD
ENDBRANCH   5  22
TORSDOF 4
ENDMDL
MODEL 3
REMARK VINA RESULT:      -7.7      4.748      5.912
REMARK  Name = 
REMARK  4 active torsions:
REMARK  status: ('A' for Active; 'I' for Inactive)
REMARK    1  A    between atoms: O_1  and  C_2
REMARK    2  A    between atoms: C_5  and  C_6
REMARK    3  A    between atoms: C_10  and  O_11
REMARK    4  A    between atoms: C_13  and  C_14
REMARK                            x       y       z     vdW  Elec       q    Type
REMARK                         _______ _______ _______ _____ _____    ______ ____
ROOT
ATOM      1  C   UNL     1       2.564   7.312  18.475  0.00  0.00    +0.000 A 
ATOM      2  N   UNL     1       3.745   7.271  17.886  0.00  0.00    +0.000 NA
ATOM      3  C   UNL     1       3.923   5.945  17.588  0.00  0.00    +0.000 A 
ATOM      4  C   UNL     1       4.976   5.305  16.929  0.00  0.00    +0.000 A 
ATOM      5  C   UNL     1       4.868   3.929  16.731  0.00  0.00    +0.000 A 
ATOM      6  C   UNL     1       3.761   3.202  17.176  0.00  0.00    +0.000 A 
ATOM      7  C   UNL     1       2.706   3.814  17.873  0.00  0.00    +0.000 A 
ATOM      8  C   UNL     1       2.835   5.203  18.030  0.00  0.00    +0.000 A 
ATOM      9  O   UNL     1       1.957   6.085  18.606  0.00  0.00    +0.000 OA
ENDROOT
BRANCH   1  13
ATOM     10  C   UNL     1       0.372  10.750  19.753  0.00  0.00    +0.000 A 
ATOM     11  C   UNL     1       0.874  10.686  18.458  0.00  0.00    +0.000 A 
ATOM     12  C   UNL     1       1.606   9.558  18.061  0.00  0.00    +0.000 A 
ATOM     13  C   UNL     1       1.841   8.491  18.950  0.00  0.00    +0.000 A 
ATOM     14  C   UNL     1       1.333   8.600  20.249  0.00  0.00    +0.000 A 
ATOM     15  F   UNL     1       1.522   7.623  21.149  0.00  0.00    +0.000 F 
ATOM     16  C   UNL     1       0.604   9.718  20.652  0.00  0.00    +0.000 A 
BRANCH  10  17
ATOM     17  O   UNL     1      -0.358  11.815  20.183  0.00  0.00    +0.000 OA
ATOM     18  H   UNL     1       0.243  12.518  20.483  0.00  0.00    +0.000 HD
ENDBRANCH  10  17
ENDBRANCH   1  13
BRANCH   7  19
ATOM     19  C   UNL     1       1.478   3.152  18.328  0.00  0.00    +0.000 C 
ATOM     20  C   UNL     1       1.075   2.844  19.569  0.00  0.00    +0.000 C 
ATOM     21 BR   UNL     1       1.893   3.185  21.198  0.00  0.00    +0.000 Br
ENDBRANCH   7  19
BRANCH   5  22
ATOM     22  O   UNL     1       5.848   3.240  16.073  0.00  0.00    +0.000 OA
ATOM     23  H   UNL     1       5.435   2.633  15.438  0.00  0.00    +0.000 HD
ENDBRANCH   5  22
TORSDOF 4
ENDMDL
MODEL 4
REMARK VINA RESULT:      -7.6      4.627      5.672
REMARK  Name = 
REMARK  4 active torsions:
REMARK  status: ('A' for Active; 'I' for Inactive)
REMARK    1  A    between atoms: O_1  and  C_2
REMARK    2  A    between atoms: C_5  and  C_6
REMARK    3  A    between atoms: C_10  and  O_11
REMARK    4  A    between atoms: C_13  and  C_14
REMARK                            x       y       z     vdW  Elec       q    Type
REMARK                         _______ _______ _______ _____ _____    ______ ____
ROOT
ATOM      1  C   UNL     1       2.549   7.074  18.798  0.00  0.00    +0.000 A 
ATOM      2  N   UNL     1       3.678   7.127  18.116  0.00  0.00    +0.000 NA
ATOM      3  C   UNL     1       3.902   5.827  17.741  0.00  0.00    +0.000 A 
ATOM      4  C   UNL     1       4.931   5.278  16.970  0.00  0.00    +0.000 A 
ATOM      5  C   UNL     1       4.881   3.908  16.716  0.00  0.00    +0.000 A 
ATOM      6  C   UNL     1       3.855   3.100  17.214  0.00  0.00    +0.000 A 
ATOM      7  C   UNL     1       2.830   3.619  18.021  0.00  0.00    +0.000 A 
ATOM      8  C   UNL     1       2.896   5.005  18.233  0.00  0.00    +0.000 A 
ATOM      9  O   UNL     1       2.022   5.809  18.918  0.00  0.00    +0.000 OA
ENDROOT
BRANCH   1  13
ATOM     10  C   UNL     1       0.464  10.330  20.617  0.00  0.00    +0.000 A 
ATOM     11  C   UNL     1       0.803   9.212  21.371  0.00  0.00    +0.000 A 
ATOM     12  C   UNL     1       1.472   8.145  20.754  0.00  0.00    +0.000 A 
ATOM     13  C   UNL     1       1.805   8.187  19.385  0.00  0.00    +0.000 A 
ATOM     14  C   UNL     1       1.432   9.322  18.658  0.00  0.00    +0.000 A 
ATOM     15  F   UNL     1       1.714   9.428  17.351  0.00  0.00    +0.000 F 
ATOM     16  C   UNL     1       0.767  10.387  19.264  0.00  0.00    +0.000 A 
BRANCH  10  17
ATOM     17  O   UNL     1      -0.171  11.398  21.172  0.00  0.00    +0.000 OA
ATOM     18  H   UNL     1      -0.011  11.406  22.131  0.00  0.00    +0.000 HD
ENDBRANCH  10  17
ENDBRANCH   1  13
BRANCH   7  19
ATOM     19  C   UNL     1       1.682   2.868  18.541  0.00  0.00    +0.000 C 
ATOM     20  C   UNL     1       1.363   2.547  19.802  0.00  0.00    +0.000 C 
ATOM     21 BR   UNL     1       2.226   2.973  21.386  0.00  0.00    +0.000 Br
ENDBRANCH   7  19
BRANCH   5  22
ATOM     22  O   UNL     1       5.839   3.305  15.950  0.00  0.00    +0.000 OA
ATOM     23  H   UNL     1       6.163   3.942  15.292  0.00  0.00    +0.000 HD
ENDBRANCH   5  22
TORSDOF 4
ENDMDL
MODEL 5
REMARK VINA RESULT:      -7.5      5.297      6.682
REMARK  Name = 
REMARK  4 active torsions:
REMARK  status: ('A' for Active; 'I' for Inactive)
REMARK    1  A    between atoms: O_1  and  C_2
REMARK    2  A    between atoms: C_5  and  C_6
REMARK    3  A    between atoms: C_10  and  O_11
REMARK    4  A    between atoms: C_13  and  C_14
REMARK                            x       y       z     vdW  Elec       q    Type
REMARK                         _______ _______ _______ _____ _____    ______ ____
ROOT
ATOM      1  C   UNL     1       2.486   6.749  19.342  0.00  0.00    +0.000 A 
ATOM      2  N   UNL     1       2.476   7.564  18.304  0.00  0.00    +0.000 NA
ATOM      3  C   UNL     1       1.821   8.677  18.762  0.00  0.00    +0.000 A 
ATOM      4  C   UNL     1       1.540   9.884  18.115  0.00  0.00    +0.000 A 
ATOM      5  C   UNL     1       0.881  10.868  18.852  0.00  0.00    +0.000 A 
ATOM      6  C   UNL     1       0.501  10.668  20.181  0.00  0.00    +0.000 A 
ATOM      7  C   UNL     1       0.739   9.452  20.843  0.00  0.00    +0.000 A 
ATOM      8  C   UNL     1       1.428   8.495  20.082  0.00  0.00    +0.000 A 
ATOM      9  O   UNL     1       1.855   7.248  20.457  0.00  0.00    +0.000 OA
ENDROOT
BRANCH   1  13
ATOM     10  C   UNL     1       4.423   2.955  19.689  0.00  0.00    +0.000 A 
ATOM     11  C   UNL     1       5.115   4.046  19.176  0.00  0.00    +0.000 A 
ATOM     12  C   UNL     1       4.459   5.279  19.053  0.00  0.00    +0.000 A 
ATOM     13  C   UNL     1       3.113   5.430  19.440  0.00  0.00    +0.000 A 
ATOM     14  C   UNL     1       2.447   4.305  19.935  0.00  0.00    +0.000 A 
ATOM     15  F   UNL     1       1.163   4.376  20.319  0.00  0.00    +0.000 F 
ATOM     16  C   UNL     1       3.092   3.076  20.061  0.00  0.00    +0.000 A 
BRANCH  10  17
ATOM     17  O   UNL     1       5.019   1.742  19.843  0.00  0.00    +0.000 OA
ATOM     18  H   UNL     1       5.805   1.693  19.272  0.00  0.00    +0.000 HD
ENDBRANCH  10  17
ENDBRANCH   1  13
BRANCH   7  19
ATOM     19  C   UNL     1       0.432   9.165  22.249  0.00  0.00    +0.000 C 
ATOM     20  C   UNL     1      -0.323   9.845  23.122  0.00  0.00    +0.000 C 
ATOM     21 BR   UNL     1      -1.317  11.390  22.875  0.00  0.00    +0.000 Br
ENDBRANCH   7  19
BRANCH   5  22
ATOM     22  O   UNL     1       0.594  12.083  18.293  0.00  0.00    +0.000 OA
ATOM     23  H   UNL     1       1.000  12.129  17.412  0.00  0.00    +0.000 HD
ENDBRANCH   5  22
TORSDOF 4
ENDMDL
MODEL 6
REMARK VINA RESULT:      -7.4      5.221      6.522
REMARK  Name = 
REMARK  4 active torsions:
REMARK  status: ('A' for Active; 'I' for Inactive)
REMARK    1  A    between atoms: O_1  and  C_2
REMARK    2  A    between atoms: C_5  and  C_6
REMARK    3  A    between atoms: C_10  and  O_11
REMARK    4  A    between atoms: C_13  and  C_14
REMARK                            x       y       z     vdW  Elec       q    Type
REMARK                         _______ _______ _______ _____ _____    ______ ____
ROOT
ATOM      1  C   UNL     1       2.422   6.712  18.750  0.00  0.00    +0.000 A 
ATOM      2  N   UNL     1       2.437   7.642  17.813  0.00  0.00    +0.000 NA
ATOM      3  C   UNL     1       1.930   8.752  18.438  0.00  0.00    +0.000 A 
ATOM      4  C   UNL     1       1.741  10.049  17.952  0.00  0.00    +0.000 A 
ATOM      5  C   UNL     1       1.232  10.998  18.838  0.00  0.00    +0.000 A 
ATOM      6  C   UNL     1       0.910  10.679  20.160  0.00  0.00    +0.000 A 
ATOM      7  C   UNL     1       1.057   9.375  20.663  0.00  0.00    +0.000 A 
ATOM      8  C   UNL     1       1.597   8.453  19.753  0.00  0.00    +0.000 A 
ATOM      9  O   UNL     1       1.912   7.134  19.955  0.00  0.00    +0.000 OA
ENDROOT
BRANCH   1  13
ATOM     10  C   UNL     1       3.869   2.694  18.606  0.00  0.00    +0.000 A 
ATOM     11  C   UNL     1       4.581   3.666  19.300  0.00  0.00    +0.000 A 
ATOM     12  C   UNL     1       4.101   4.983  19.322  0.00  0.00    +0.000 A 
ATOM     13  C   UNL     1       2.912   5.337  18.654  0.00  0.00    +0.000 A 
ATOM     14  C   UNL     1       2.234   4.334  17.954  0.00  0.00    +0.000 A 
ATOM     15  F   UNL     1       1.098   4.601  17.293  0.00  0.00    +0.000 F 
ATOM     16  C   UNL     1       2.705   3.022  17.927  0.00  0.00    +0.000 A 
BRANCH  10  17
ATOM     17  O   UNL     1       4.284   1.398  18.567  0.00  0.00    +0.000 OA
ATOM     18  H   UNL     1       4.683   1.161  19.422  0.00  0.00    +0.000 HD
ENDBRANCH  10  17
ENDBRANCH   1  13
BRANCH   7  19
ATOM     19  C   UNL     1       0.804   8.954  22.045  0.00  0.00    +0.000 C 
ATOM     20  C   UNL     1       0.030   9.511  22.988  0.00  0.00    +0.000 C 
ATOM     21 BR   UNL     1      -1.062  11.005  22.890  0.00  0.00    +0.000 Br
ENDBRANCH   7  19
BRANCH   5  22
ATOM     22  O   UNL     1       1.042  12.292  18.441  0.00  0.00    +0.000 OA
ATOM     23  H   UNL     1       0.116  12.538  18.600  0.00  0.00    +0.000 HD
ENDBRANCH   5  22
TORSDOF 4
ENDMDL
MODEL 7
REMARK VINA RESULT:      -7.4      5.367      6.779
REMARK  Name = 
REMARK  4 active torsions:
REMARK  status: ('A' for Active; 'I' for Inactive)
REMARK    1  A    between atoms: O_1  and  C_2
REMARK    2  A    between atoms: C_5  and  C_6
REMARK    3  A    between atoms: C_10  and  O_11
REMARK    4  A    between atoms: C_13  and  C_14
REMARK                            x       y       z     vdW  Elec       q    Type
REMARK                         _______ _______ _______ _____ _____    ______ ____
ROOT
ATOM      1  C   UNL     1       2.530   6.775  19.389  0.00  0.00    +0.000 A 
ATOM      2  N   UNL     1       2.496   7.570  18.336  0.00  0.00    +0.000 NA
ATOM      3  C   UNL     1       1.796   8.666  18.769  0.00  0.00    +0.000 A 
ATOM      4  C   UNL     1       1.475   9.850  18.098  0.00  0.00    +0.000 A 
ATOM      5  C   UNL     1       0.773  10.821  18.811  0.00  0.00    +0.000 A 
ATOM      6  C   UNL     1       0.391  10.631  20.142  0.00  0.00    +0.000 A 
ATOM      7  C   UNL     1       0.669   9.437  20.828  0.00  0.00    +0.000 A 
ATOM      8  C   UNL     1       1.400   8.493  20.089  0.00  0.00    +0.000 A 
ATOM      9  O   UNL     1       1.871   7.270  20.490  0.00  0.00    +0.000 OA
ENDROOT
BRANCH   1  13
ATOM     10  C   UNL     1       4.389   2.941  19.713  0.00  0.00    +0.000 A 
ATOM     11  C   UNL     1       3.135   3.157  20.274  0.00  0.00    +0.000 A 
ATOM     12  C   UNL     1       2.547   4.426  20.173  0.00  0.00    +0.000 A 
ATOM     13  C   UNL     1       3.205   5.484  19.515  0.00  0.00    +0.000 A 
ATOM     14  C   UNL     1       4.471   5.231  18.979  0.00  0.00    +0.000 A 
ATOM     15  F   UNL     1       5.156   6.194  18.342  0.00  0.00    +0.000 F 
ATOM     16  C   UNL     1       5.063   3.972  19.074  0.00  0.00    +0.000 A 
BRANCH  10  17
ATOM     17  O   UNL     1       4.995   1.724  19.770  0.00  0.00    +0.000 OA
ATOM     18  H   UNL     1       5.801   1.790  20.310  0.00  0.00    +0.000 HD
ENDBRANCH  10  17
ENDBRANCH   1  13
BRANCH   7  19
ATOM     19  C   UNL     1       0.363   9.164  22.236  0.00  0.00    +0.000 C 
ATOM     20  C   UNL     1      -0.370   9.867  23.111  0.00  0.00    +0.000 C 
ATOM     21 BR   UNL     1      -1.326  11.435  22.861  0.00  0.00    +0.000 Br
ENDBRANCH   7  19
BRANCH   5  22
ATOM     22  O   UNL     1       0.445  12.014  18.229  0.00  0.00    +0.000 OA
ATOM     23  H   UNL     1       1.090  12.687  18.502  0.00  0.00    +0.000 HD
ENDBRANCH   5  22
TORSDOF 4
ENDMDL
MODEL 8
REMARK VINA RESULT:      -7.4      4.177      4.923
REMARK  Name = 
REMARK  4 active torsions:
REMARK  status: ('A' for Active; 'I' for Inactive)
REMARK    1  A    between atoms: O_1  and  C_2
REMARK    2  A    between atoms: C_5  and  C_6
REMARK    3  A    between atoms: C_10  and  O_11
REMARK    4  A    between atoms: C_13  and  C_14
REMARK                            x       y       z     vdW  Elec       q    Type
REMARK                         _______ _______ _______ _____ _____    ______ ____
ROOT
ATOM      1  C   UNL     1       3.056   7.060  18.281  0.00  0.00    +0.000 A 
ATOM      2  N   UNL     1       4.081   7.469  17.556  0.00  0.00    +0.000 NA
ATOM      3  C   UNL     1       4.561   6.322  16.981  0.00  0.00    +0.000 A 
ATOM      4  C   UNL     1       5.618   6.140  16.084  0.00  0.00    +0.000 A 
ATOM      5  C   UNL     1       5.859   4.843  15.631  0.00  0.00    +0.000 A 
ATOM      6  C   UNL     1       5.090   3.756  16.055  0.00  0.00    +0.000 A 
ATOM      7  C   UNL     1       4.046   3.905  16.983  0.00  0.00    +0.000 A 
ATOM      8  C   UNL     1       3.814   5.227  17.396  0.00  0.00    +0.000 A 
ATOM      9  O   UNL     1       2.842   5.703  18.238  0.00  0.00    +0.000 OA
ENDROOT
BRANCH   1  13
ATOM     10  C   UNL     1       0.444   9.447  20.677  0.00  0.00    +0.000 A 
ATOM     11  C   UNL     1       0.998   8.283  21.198  0.00  0.00    +0.000 A 
ATOM     12  C   UNL     1       1.839   7.502  20.392  0.00  0.00    +0.000 A 
ATOM     13  C   UNL     1       2.132   7.878  19.066  0.00  0.00    +0.000 A 
ATOM     14  C   UNL     1       1.542   9.046  18.574  0.00  0.00    +0.000 A 
ATOM     15  F   UNL     1       1.773   9.461  17.319  0.00  0.00    +0.000 F 
ATOM     16  C   UNL     1       0.705   9.828  19.369  0.00  0.00    +0.000 A 
BRANCH  10  17
ATOM     17  O   UNL     1      -0.365  10.246  21.423  0.00  0.00    +0.000 OA
ATOM     18  H   UNL     1      -0.466  11.107  20.981  0.00  0.00    +0.000 HD
ENDBRANCH  10  17
ENDBRANCH   1  13
BRANCH   7  19
ATOM     19  C   UNL     1       3.148   2.841  17.444  0.00  0.00    +0.000 C 
ATOM     20  C   UNL     1       3.148   2.151  18.593  0.00  0.00    +0.000 C 
ATOM     21 BR   UNL     1       4.258   2.312  20.069  0.00  0.00    +0.000 Br
ENDBRANCH   7  19
BRANCH   5  22
ATOM     22  O   UNL     1       6.860   4.592  14.735  0.00  0.00    +0.000 OA
ATOM     23  H   UNL     1       6.736   3.703  14.364  0.00  0.00    +0.000 HD
ENDBRANCH   5  22
TORSDOF 4
ENDMDL
MODEL 9
REMARK VINA RESULT:      -7.4      5.196      6.538
REMARK  Name = 
REMARK  4 active torsions:
REMARK  status: ('A' for Active; 'I' for Inactive)
REMARK    1  A    between atoms: O_1  and  C_2
REMARK    2  A    between atoms: C_5  and  C_6
REMARK    3  A    between atoms: C_10  and  O_11
REMARK    4  A    between atoms: C_13  and  C_14
REMARK                            x       y       z     vdW  Elec       q    Type
REMARK                         _______ _______ _______ _____ _____    ______ ____
ROOT
ATOM      1  C   UNL     1       2.378   6.503  18.839  0.00  0.00    +0.000 A 
ATOM      2  N   UNL     1       2.404   7.400  17.871  0.00  0.00    +0.000 NA
ATOM      3  C   UNL     1       1.938   8.544  18.465  0.00  0.00    +0.000 A 
ATOM      4  C   UNL     1       1.777   9.829  17.939  0.00  0.00    +0.000 A 
ATOM      5  C   UNL     1       1.309  10.821  18.800  0.00  0.00    +0.000 A 
ATOM      6  C   UNL     1       1.000  10.556  20.137  0.00  0.00    +0.000 A 
ATOM      7  C   UNL     1       1.119   9.266  20.681  0.00  0.00    +0.000 A 
ATOM      8  C   UNL     1       1.618   8.299  19.795  0.00  0.00    +0.000 A 
ATOM      9  O   UNL     1       1.899   6.979  20.037  0.00  0.00    +0.000 OA
ENDROOT
BRANCH   1  13
ATOM     10  C   UNL     1       3.651   2.434  18.545  0.00  0.00    +0.000 A 
ATOM     11  C   UNL     1       2.378   2.798  18.119  0.00  0.00    +0.000 A 
ATOM     12  C   UNL     1       1.971   4.134  18.239  0.00  0.00    +0.000 A 
ATOM     13  C   UNL     1       2.827   5.112  18.783  0.00  0.00    +0.000 A 
ATOM     14  C   UNL     1       4.093   4.703  19.215  0.00  0.00    +0.000 A 
ATOM     15  F   UNL     1       4.958   5.579  19.746  0.00  0.00    +0.000 F 
ATOM     16  C   UNL     1       4.506   3.376  19.099  0.00  0.00    +0.000 A 
BRANCH  10  17
ATOM     17  O   UNL     1       4.100   1.154  18.436  0.00  0.00    +0.000 OA
ATOM     18  H   UNL     1       4.838   1.017  19.053  0.00  0.00    +0.000 HD
ENDBRANCH  10  17
ENDBRANCH   1  13
BRANCH   7  19
ATOM     19  C   UNL     1       0.876   8.899  22.081  0.00  0.00    +0.000 C 
ATOM     20  C   UNL     1       0.092   9.478  23.000  0.00  0.00    +0.000 C 
ATOM     21 BR   UNL     1      -1.032  10.944  22.842  0.00  0.00    +0.000 Br
ENDBRANCH   7  19
BRANCH   5  22
ATOM     22  O   UNL     1       1.149  12.106  18.362  0.00  0.00    +0.000 OA
ATOM     23  H   UNL     1       0.214  12.250  18.142  0.00  0.00    +0.000 HD
ENDBRANCH   5  22
TORSDOF 4
ENDMDL
