MODEL 1
REMARK VINA RESULT:      -7.9      0.000      0.000
REMARK  Name = 
REMARK  8 active torsions:
REMARK  status: ('A' for Active; 'I' for Inactive)
REMARK    1  A    between atoms: C_1  and  C_2
REMARK    2  A    between atoms: C_3  and  C_4
REMARK    3  A    between atoms: C_4  and  O_5
REMARK    4  A    between atoms: C_4  and  C_6
REMARK    5  A    between atoms: C_6  and  N_7
REMARK    6  A    between atoms: N_15  and  C_16
REMARK    7  A    between atoms: C_19  and  S_20
REMARK    8  A    between atoms: S_20  and  C_21
REMARK                            x       y       z     vdW  Elec       q    Type
REMARK                         _______ _______ _______ _____ _____    ______ ____
ROOT
ATOM      1  N   UNL     1       2.140   7.622  20.132  0.00  0.00    +0.000 NA
ATOM      2  C   UNL     1       2.255   8.384  18.877  0.00  0.00    +0.000 C 
ATOM      3  C   UNL     1       0.922   8.898  18.321  0.00  0.00    +0.000 C 
ATOM      4  C   UNL     1       0.126   9.708  19.367  0.00  0.00    +0.000 C 
ATOM      5  C   UNL     1       0.055   8.922  20.689  0.00  0.00    +0.000 C 
ATOM      6  C   UNL     1       1.453   8.466  21.135  0.00  0.00    +0.000 C 
ATOM      7  C   UNL     1      -1.279  10.057  18.817  0.00  0.00    +0.000 C 
ATOM      8  C   UNL     1      -1.399  11.575  18.945  0.00  0.00    +0.000 C 
ATOM      9  N   UNL     1      -0.009  12.001  18.823  0.00  0.00    +0.000 N 
ATOM     10  C   UNL     1       0.804  11.079  19.605  0.00  0.00    +0.000 C 
ENDROOT
BRANCH   9  11
ATOM     11  C   UNL     1       0.368  13.329  18.764  0.00  0.00    +0.000 A 
ATOM     12  C   UNL     1      -0.573  14.357  18.967  0.00  0.00    +0.000 A 
ATOM     13  C   UNL     1      -0.205  15.699  18.927  0.00  0.00    +0.000 A 
ATOM     14  C   UNL     1       1.125  15.972  18.685  0.00  0.00    +0.000 A 
ATOM     15  N   UNL     1       2.095  15.041  18.504  0.00  0.00    +0.000 NA
ATOM     16  C   UNL     1       1.682  13.752  18.560  0.00  0.00    +0.000 A 
BRANCH  14  17
ATOM     17  S   UNL     1       1.685  17.650  18.593  0.00  0.00    +0.000 S 
ATOM     18  C   UNL     1       2.413  17.958  20.179  0.00  0.00    +0.000 C 
ATOM     19  O   UNL     1       2.741  17.697  17.595  0.00  0.00    +0.000 OA
ATOM     20  O   UNL     1       0.508  18.491  18.470  0.00  0.00    +0.000 OA
ENDBRANCH  14  17
ENDBRANCH   9  11
BRANCH   1  21
ATOM     21  C   UNL     1       1.431   6.326  19.982  0.00  0.00    +0.000 C 
BRANCH  21  22
ATOM     22  C   UNL     1       2.261   5.017  20.117  0.00  0.00    +0.000 C 
BRANCH  22  25
ATOM     23  C   UNL     1       2.086   3.978  17.220  0.00  0.00    +0.000 C 
ATOM     24  C   UNL     1       3.375   4.379  17.880  0.00  0.00    +0.000 A 
ATOM     25  C   UNL     1       3.477   4.869  19.207  0.00  0.00    +0.000 A 
ATOM     26  C   UNL     1       4.756   5.242  19.708  0.00  0.00    +0.000 A 
ATOM     27  C   UNL     1       5.912   5.143  18.933  0.00  0.00    +0.000 A 
ATOM     28  C   UNL     1       5.776   4.624  17.665  0.00  0.00    +0.000 A 
ATOM     29  C   UNL     1       4.559   4.244  17.145  0.00  0.00    +0.000 A 
ATOM     30  C   UNL     1       4.781   3.698  15.787  0.00  0.00    +0.000 C 
ATOM     31  O   UNL     1       6.203   3.831  15.590  0.00  0.00    +0.000 OA
ATOM     32  C   UNL     1       6.819   4.378  16.679  0.00  0.00    +0.000 C 
ATOM     33  O   UNL     1       8.005   4.609  16.803  0.00  0.00    +0.000 OA
ENDBRANCH  22  25
BRANCH  22  34
ATOM     34  O   UNL     1       2.611   4.813  21.492  0.00  0.00    +0.000 OA
ATOM     35  H   UNL     1       1.898   4.264  21.871  0.00  0.00    +0.000 HD
ENDBRANCH  22  34
ENDBRANCH  21  22
ENDBRANCH   1  21
TORSDOF 6
ENDMDL
MODEL 2
REMARK VINA RESULT:      -7.8      4.775     10.999
REMARK  Name = 
REMARK  8 active torsions:
REMARK  status: ('A' for Active; 'I' for Inactive)
REMARK    1  A    between atoms: C_1  and  C_2
REMARK    2  A    between atoms: C_3  and  C_4
REMARK    3  A    between atoms: C_4  and  O_5
REMARK    4  A    between atoms: C_4  and  C_6
REMARK    5  A    between atoms: C_6  and  N_7
REMARK    6  A    between atoms: N_15  and  C_16
REMARK    7  A    between atoms: C_19  and  S_20
REMARK    8  A    between atoms: S_20  and  C_21
REMARK                            x       y       z     vdW  Elec       q    Type
REMARK                         _______ _______ _______ _____ _____    ______ ____
ROOT
ATOM      1  N   UNL     1      -0.458  12.521  19.552  0.00  0.00    +0.000 NA
ATOM      2  C   UNL     1       0.960  12.251  19.845  0.00  0.00    +0.000 C 
ATOM      3  C   UNL     1       1.197  11.130  20.864  0.00  0.00    +0.000 C 
ATOM      4  C   UNL     1       0.472   9.823  20.473  0.00  0.00    +0.000 C 
ATOM      5  C   UNL     1      -0.995  10.127  20.123  0.00  0.00    +0.000 C 
ATOM      6  C   UNL     1      -1.093  11.265  19.095  0.00  0.00    +0.000 C 
ATOM      7  C   UNL     1       0.600   8.780  21.611  0.00  0.00    +0.000 C 
ATOM      8  C   UNL     1       1.191   7.534  20.955  0.00  0.00    +0.000 C 
ATOM      9  N   UNL     1       1.974   8.106  19.865  0.00  0.00    +0.000 N 
ATOM     10  C   UNL     1       1.179   9.167  19.262  0.00  0.00    +0.000 C 
ENDROOT
BRANCH   9  11
ATOM     11  C   UNL     1       2.795   7.350  19.051  0.00  0.00    +0.000 A 
ATOM     12  C   UNL     1       3.107   6.015  19.379  0.00  0.00    +0.000 A 
ATOM     13  C   UNL     1       3.919   5.236  18.559  0.00  0.00    +0.000 A 
ATOM     14  C   UNL     1       4.396   5.830  17.411  0.00  0.00    +0.000 A 
ATOM     15  N   UNL     1       4.123   7.097  17.013  0.00  0.00    +0.000 NA
ATOM     16  C   UNL     1       3.324   7.808  17.844  0.00  0.00    +0.000 A 
BRANCH  14  17
ATOM     17  S   UNL     1       5.457   4.925  16.317  0.00  0.00    +0.000 S 
ATOM     18  C   UNL     1       7.006   4.844  17.175  0.00  0.00    +0.000 C 
ATOM     19  O   UNL     1       4.924   3.576  16.219  0.00  0.00    +0.000 OA
ATOM     20  O   UNL     1       5.645   5.739  15.129  0.00  0.00    +0.000 OA
ENDBRANCH  14  17
ENDBRANCH   9  11
BRANCH   1  21
ATOM     21  C   UNL     1      -1.210  13.084  20.703  0.00  0.00    +0.000 C 
BRANCH  21  22
ATOM     22  C   UNL     1      -2.489  13.919  20.404  0.00  0.00    +0.000 C 
BRANCH  22  25
ATOM     23  C   UNL     1      -4.655  12.044  19.267  0.00  0.00    +0.000 C 
ATOM     24  C   UNL     1      -4.745  12.689  20.622  0.00  0.00    +0.000 A 
ATOM     25  C   UNL     1      -3.755  13.546  21.168  0.00  0.00    +0.000 A 
ATOM     26  C   UNL     1      -3.946  14.074  22.476  0.00  0.00    +0.000 A 
ATOM     27  C   UNL     1      -5.075  13.772  23.239  0.00  0.00    +0.000 A 
ATOM     28  C   UNL     1      -6.030  12.970  22.656  0.00  0.00    +0.000 A 
ATOM     29  C   UNL     1      -5.889  12.446  21.391  0.00  0.00    +0.000 A 
ATOM     30  C   UNL     1      -7.108  11.672  21.067  0.00  0.00    +0.000 C 
ATOM     31  O   UNL     1      -7.916  11.786  22.256  0.00  0.00    +0.000 OA
ATOM     32  C   UNL     1      -7.307  12.544  23.214  0.00  0.00    +0.000 C 
ATOM     33  O   UNL     1      -7.745  12.814  24.314  0.00  0.00    +0.000 OA
ENDBRANCH  22  25
BRANCH  22  34
ATOM     34  O   UNL     1      -2.188  15.315  20.540  0.00  0.00    +0.000 OA
ATOM     35  H   UNL     1      -2.868  15.677  21.139  0.00  0.00    +0.000 HD
ENDBRANCH  22  34
ENDBRANCH  21  22
ENDBRANCH   1  21
TORSDOF 6
ENDMDL
MODEL 3
REMARK VINA RESULT:      -7.8      4.694     11.017
REMARK  Name = 
REMARK  8 active torsions:
REMARK  status: ('A' for Active; 'I' for Inactive)
REMARK    1  A    between atoms: C_1  and  C_2
REMARK    2  A    between atoms: C_3  and  C_4
REMARK    3  A    between atoms: C_4  and  O_5
REMARK    4  A    between atoms: C_4  and  C_6
REMARK    5  A    between atoms: C_6  and  N_7
REMARK    6  A    between atoms: N_15  and  C_16
REMARK    7  A    between atoms: C_19  and  S_20
REMARK    8  A    between atoms: S_20  and  C_21
REMARK                            x       y       z     vdW  Elec       q    Type
REMARK                         _______ _______ _______ _____ _____    ______ ____
ROOT
ATOM      1  N   UNL     1      -0.132  13.048  19.634  0.00  0.00    +0.000 NA
ATOM      2  C   UNL     1       1.145  12.539  20.164  0.00  0.00    +0.000 C 
ATOM      3  C   UNL     1       1.001  11.423  21.206  0.00  0.00    +0.000 C 
ATOM      4  C   UNL     1       0.129  10.256  20.695  0.00  0.00    +0.000 C 
ATOM      5  C   UNL     1      -1.180  10.806  20.101  0.00  0.00    +0.000 C 
ATOM      6  C   UNL     1      -0.897  11.913  19.073  0.00  0.00    +0.000 C 
ATOM      7  C   UNL     1      -0.127   9.241  21.836  0.00  0.00    +0.000 C 
ATOM      8  C   UNL     1       0.331   7.890  21.288  0.00  0.00    +0.000 C 
ATOM      9  N   UNL     1       1.376   8.282  20.349  0.00  0.00    +0.000 N 
ATOM     10  C   UNL     1       0.899   9.450  19.621  0.00  0.00    +0.000 C 
ENDROOT
BRANCH   9  11
ATOM     11  C   UNL     1       2.172   7.368  19.685  0.00  0.00    +0.000 A 
ATOM     12  C   UNL     1       2.788   7.700  18.463  0.00  0.00    +0.000 A 
ATOM     13  C   UNL     1       3.607   6.795  17.791  0.00  0.00    +0.000 A 
ATOM     14  C   UNL     1       3.789   5.564  18.384  0.00  0.00    +0.000 A 
ATOM     15  N   UNL     1       3.253   5.177  19.567  0.00  0.00    +0.000 NA
ATOM     16  C   UNL     1       2.471   6.098  20.180  0.00  0.00    +0.000 A 
BRANCH  14  17
ATOM     17  S   UNL     1       4.795   4.338  17.593  0.00  0.00    +0.000 S 
ATOM     18  C   UNL     1       3.867   2.837  17.757  0.00  0.00    +0.000 C 
ATOM     19  O   UNL     1       4.857   4.678  16.181  0.00  0.00    +0.000 OA
ATOM     20  O   UNL     1       6.008   4.202  18.380  0.00  0.00    +0.000 OA
ENDBRANCH  14  17
ENDBRANCH   9  11
BRANCH   1  21
ATOM     21  C   UNL     1      -0.952  13.769  20.640  0.00  0.00    +0.000 C 
BRANCH  21  22
ATOM     22  C   UNL     1      -2.357  14.281  20.210  0.00  0.00    +0.000 C 
BRANCH  22  25
ATOM     23  C   UNL     1      -4.450  12.267  19.178  0.00  0.00    +0.000 C 
ATOM     24  C   UNL     1      -4.507  12.896  20.542  0.00  0.00    +0.000 A 
ATOM     25  C   UNL     1      -3.549  13.816  21.040  0.00  0.00    +0.000 A 
ATOM     26  C   UNL     1      -3.701  14.321  22.363  0.00  0.00    +0.000 A 
ATOM     27  C   UNL     1      -4.761  13.936  23.184  0.00  0.00    +0.000 A 
ATOM     28  C   UNL     1      -5.691  13.073  22.648  0.00  0.00    +0.000 A 
ATOM     29  C   UNL     1      -5.586  12.568  21.371  0.00  0.00    +0.000 A 
ATOM     30  C   UNL     1      -6.765  11.713  21.108  0.00  0.00    +0.000 C 
ATOM     31  O   UNL     1      -7.510  11.763  22.342  0.00  0.00    +0.000 OA
ATOM     32  C   UNL     1      -6.901  12.555  23.272  0.00  0.00    +0.000 C 
ATOM     33  O   UNL     1      -7.294  12.787  24.398  0.00  0.00    +0.000 OA
ENDBRANCH  22  25
BRANCH  22  34
ATOM     34  O   UNL     1      -2.328  15.710  20.093  0.00  0.00    +0.000 OA
ATOM     35  H   UNL     1      -2.706  16.054  20.924  0.00  0.00    +0.000 HD
ENDBRANCH  22  34
ENDBRANCH  21  22
ENDBRANCH   1  21
TORSDOF 6
ENDMDL
MODEL 4
REMARK VINA RESULT:      -7.5      0.869      1.175
REMARK  Name = 
REMARK  8 active torsions:
REMARK  status: ('A' for Active; 'I' for Inactive)
REMARK    1  A    between atoms: C_1  and  C_2
REMARK    2  A    between atoms: C_3  and  C_4
REMARK    3  A    between atoms: C_4  and  O_5
REMARK    4  A    between atoms: C_4  and  C_6
REMARK    5  A    between atoms: C_6  and  N_7
REMARK    6  A    between atoms: N_15  and  C_16
REMARK    7  A    between atoms: C_19  and  S_20
REMARK    8  A    between atoms: S_20  and  C_21
REMARK                            x       y       z     vdW  Elec       q    Type
REMARK                         _______ _______ _______ _____ _____    ______ ____
ROOT
ATOM      1  N   UNL     1       2.091   7.283  20.451  0.00  0.00    +0.000 NA
ATOM      2  C   UNL     1       2.367   7.949  19.167  0.00  0.00    +0.000 C 
ATOM      3  C   UNL     1       1.141   8.593  18.508  0.00  0.00    +0.000 C 
ATOM      4  C   UNL     1       0.403   9.556  19.464  0.00  0.00    +0.000 C 
ATOM      5  C   UNL     1       0.164   8.864  20.817  0.00  0.00    +0.000 C 
ATOM      6  C   UNL     1       1.467   8.263  21.367  0.00  0.00    +0.000 C 
ATOM      7  C   UNL     1      -0.915  10.046  18.815  0.00  0.00    +0.000 C 
ATOM      8  C   UNL     1      -0.845  11.572  18.857  0.00  0.00    +0.000 C 
ATOM      9  N   UNL     1       0.592  11.812  18.795  0.00  0.00    +0.000 N 
ATOM     10  C   UNL     1       1.238  10.843  19.669  0.00  0.00    +0.000 C 
ENDROOT
BRANCH   9  11
ATOM     11  C   UNL     1       1.139  13.076  18.689  0.00  0.00    +0.000 A 
ATOM     12  C   UNL     1       2.493  13.251  18.340  0.00  0.00    +0.000 A 
ATOM     13  C   UNL     1       3.054  14.519  18.212  0.00  0.00    +0.000 A 
ATOM     14  C   UNL     1       2.220  15.593  18.438  0.00  0.00    +0.000 A 
ATOM     15  N   UNL     1       0.904  15.510  18.753  0.00  0.00    +0.000 NA
ATOM     16  C   UNL     1       0.409  14.253  18.858  0.00  0.00    +0.000 A 
BRANCH  14  17
ATOM     17  S   UNL     1       2.848  17.246  18.322  0.00  0.00    +0.000 S 
ATOM     18  C   UNL     1       4.568  17.090  18.723  0.00  0.00    +0.000 C 
ATOM     19  O   UNL     1       2.744  17.649  16.931  0.00  0.00    +0.000 OA
ATOM     20  O   UNL     1       2.213  18.022  19.373  0.00  0.00    +0.000 OA
ENDBRANCH  14  17
ENDBRANCH   9  11
BRANCH   1  21
ATOM     21  C   UNL     1       1.229   6.079  20.327  0.00  0.00    +0.000 C 
BRANCH  21  22
ATOM     22  C   UNL     1       1.923   4.696  20.164  0.00  0.00    +0.000 C 
BRANCH  22  25
ATOM     23  C   UNL     1       1.910   3.918  17.181  0.00  0.00    +0.000 C 
ATOM     24  C   UNL     1       3.158   4.278  17.939  0.00  0.00    +0.000 A 
ATOM     25  C   UNL     1       3.184   4.648  19.308  0.00  0.00    +0.000 A 
ATOM     26  C   UNL     1       4.430   4.993  19.904  0.00  0.00    +0.000 A 
ATOM     27  C   UNL     1       5.624   4.980  19.183  0.00  0.00    +0.000 A 
ATOM     28  C   UNL     1       5.561   4.575  17.869  0.00  0.00    +0.000 A 
ATOM     29  C   UNL     1       4.378   4.226  17.256  0.00  0.00    +0.000 A 
ATOM     30  C   UNL     1       4.678   3.807  15.868  0.00  0.00    +0.000 C 
ATOM     31  O   UNL     1       6.105   3.978  15.756  0.00  0.00    +0.000 OA
ATOM     32  C   UNL     1       6.656   4.434  16.919  0.00  0.00    +0.000 C 
ATOM     33  O   UNL     1       7.830   4.670  17.123  0.00  0.00    +0.000 OA
ENDBRANCH  22  25
BRANCH  22  34
ATOM     34  O   UNL     1       2.148   4.120  21.458  0.00  0.00    +0.000 OA
ATOM     35  H   UNL     1       1.301   3.712  21.720  0.00  0.00    +0.000 HD
ENDBRANCH  22  34
ENDBRANCH  21  22
ENDBRANCH   1  21
TORSDOF 6
ENDMDL
MODEL 5
REMARK VINA RESULT:      -7.5      3.717      4.744
REMARK  Name = 
REMARK  8 active torsions:
REMARK  status: ('A' for Active; 'I' for Inactive)
REMARK    1  A    between atoms: C_1  and  C_2
REMARK    2  A    between atoms: C_3  and  C_4
REMARK    3  A    between atoms: C_4  and  O_5
REMARK    4  A    between atoms: C_4  and  C_6
REMARK    5  A    between atoms: C_6  and  N_7
REMARK    6  A    between atoms: N_15  and  C_16
REMARK    7  A    between atoms: C_19  and  S_20
REMARK    8  A    between atoms: S_20  and  C_21
REMARK                            x       y       z     vdW  Elec       q    Type
REMARK                         _______ _______ _______ _____ _____    ______ ____
ROOT
ATOM      1  N   UNL     1       2.462   6.288  19.012  0.00  0.00    +0.000 NA
ATOM      2  C   UNL     1       1.562   6.836  20.042  0.00  0.00    +0.000 C 
ATOM      3  C   UNL     1       1.726   8.340  20.294  0.00  0.00    +0.000 C 
ATOM      4  C   UNL     1       1.618   9.165  18.993  0.00  0.00    +0.000 C 
ATOM      5  C   UNL     1       2.526   8.552  17.912  0.00  0.00    +0.000 C 
ATOM      6  C   UNL     1       2.262   7.047  17.758  0.00  0.00    +0.000 C 
ATOM      7  C   UNL     1       1.959  10.650  19.272  0.00  0.00    +0.000 C 
ATOM      8  C   UNL     1       0.761  11.445  18.756  0.00  0.00    +0.000 C 
ATOM      9  N   UNL     1      -0.331  10.494  18.926  0.00  0.00    +0.000 N 
ATOM     10  C   UNL     1       0.152   9.188  18.500  0.00  0.00    +0.000 C 
ENDROOT
BRANCH   9  11
ATOM     11  C   UNL     1      -1.654  10.819  18.694  0.00  0.00    +0.000 A 
ATOM     12  C   UNL     1      -2.434  10.072  17.790  0.00  0.00    +0.000 A 
ATOM     13  C   UNL     1      -3.773  10.376  17.560  0.00  0.00    +0.000 A 
ATOM     14  C   UNL     1      -4.299  11.440  18.263  0.00  0.00    +0.000 A 
ATOM     15  N   UNL     1      -3.623  12.191  19.166  0.00  0.00    +0.000 NA
ATOM     16  C   UNL     1      -2.326  11.847  19.356  0.00  0.00    +0.000 A 
BRANCH  14  17
ATOM     17  S   UNL     1      -5.987  11.918  18.019  0.00  0.00    +0.000 S 
ATOM     18  C   UNL     1      -6.339  12.996  19.382  0.00  0.00    +0.000 C 
ATOM     19  O   UNL     1      -6.040  12.704  16.797  0.00  0.00    +0.000 OA
ATOM     20  O   UNL     1      -6.800  10.724  18.172  0.00  0.00    +0.000 OA
ENDBRANCH  14  17
ENDBRANCH   9  11
BRANCH   1  21
ATOM     21  C   UNL     1       3.895   6.307  19.399  0.00  0.00    +0.000 C 
BRANCH  21  22
ATOM     22  C   UNL     1       4.772   5.078  19.025  0.00  0.00    +0.000 C 
BRANCH  22  25
ATOM     23  C   UNL     1       3.746   3.484  16.594  0.00  0.00    +0.000 C 
ATOM     24  C   UNL     1       4.973   4.352  16.558  0.00  0.00    +0.000 A 
ATOM     25  C   UNL     1       5.456   5.101  17.661  0.00  0.00    +0.000 A 
ATOM     26  C   UNL     1       6.616   5.908  17.491  0.00  0.00    +0.000 A 
ATOM     27  C   UNL     1       7.290   5.987  16.272  0.00  0.00    +0.000 A 
ATOM     28  C   UNL     1       6.813   5.213  15.239  0.00  0.00    +0.000 A 
ATOM     29  C   UNL     1       5.699   4.412  15.363  0.00  0.00    +0.000 A 
ATOM     30  C   UNL     1       5.493   3.695  14.085  0.00  0.00    +0.000 C 
ATOM     31  O   UNL     1       6.557   4.180  13.242  0.00  0.00    +0.000 OA
ATOM     32  C   UNL     1       7.352   5.080  13.892  0.00  0.00    +0.000 C 
ATOM     33  O   UNL     1       8.322   5.653  13.439  0.00  0.00    +0.000 OA
ENDBRANCH  22  25
BRANCH  22  34
ATOM     34  O   UNL     1       5.714   4.827  20.077  0.00  0.00    +0.000 OA
ATOM     35  H   UNL     1       6.548   5.249  19.795  0.00  0.00    +0.000 HD
ENDBRANCH  22  34
ENDBRANCH  21  22
ENDBRANCH   1  21
TORSDOF 6
ENDMDL
MODEL 6
REMARK VINA RESULT:      -7.5      3.100     10.354
REMARK  Name = 
REMARK  8 active torsions:
REMARK  status: ('A' for Active; 'I' for Inactive)
REMARK    1  A    between atoms: C_1  and  C_2
REMARK    2  A    between atoms: C_3  and  C_4
REMARK    3  A    between atoms: C_4  and  O_5
REMARK    4  A    between atoms: C_4  and  C_6
REMARK    5  A    between atoms: C_6  and  N_7
REMARK    6  A    between atoms: N_15  and  C_16
REMARK    7  A    between atoms: C_19  and  S_20
REMARK    8  A    between atoms: S_20  and  C_21
REMARK                            x       y       z     vdW  Elec       q    Type
REMARK                         _______ _______ _______ _____ _____    ______ ____
ROOT
ATOM      1  N   UNL     1       0.166  13.201  18.793  0.00  0.00    +0.000 NA
ATOM      2  C   UNL     1       1.405  12.687  19.401  0.00  0.00    +0.000 C 
ATOM      3  C   UNL     1       1.189  11.818  20.646  0.00  0.00    +0.000 C 
ATOM      4  C   UNL     1       0.199  10.662  20.387  0.00  0.00    +0.000 C 
ATOM      5  C   UNL     1      -1.070  11.206  19.708  0.00  0.00    +0.000 C 
ATOM      6  C   UNL     1      -0.716  12.056  18.478  0.00  0.00    +0.000 C 
ATOM      7  C   UNL     1      -0.116   9.921  21.710  0.00  0.00    +0.000 C 
ATOM      8  C   UNL     1       0.199   8.451  21.437  0.00  0.00    +0.000 C 
ATOM      9  N   UNL     1       1.249   8.547  20.429  0.00  0.00    +0.000 N 
ATOM     10  C   UNL     1       0.860   9.589  19.488  0.00  0.00    +0.000 C 
ENDROOT
BRANCH   9  11
ATOM     11  C   UNL     1       1.937   7.449  19.953  0.00  0.00    +0.000 A 
ATOM     12  C   UNL     1       1.913   6.223  20.648  0.00  0.00    +0.000 A 
ATOM     13  C   UNL     1       2.588   5.103  20.171  0.00  0.00    +0.000 A 
ATOM     14  C   UNL     1       3.275   5.249  18.985  0.00  0.00    +0.000 A 
ATOM     15  N   UNL     1       3.328   6.384  18.245  0.00  0.00    +0.000 NA
ATOM     16  C   UNL     1       2.648   7.441  18.752  0.00  0.00    +0.000 A 
BRANCH  14  17
ATOM     17  S   UNL     1       4.184   3.885  18.311  0.00  0.00    +0.000 S 
ATOM     18  C   UNL     1       2.935   2.747  17.775  0.00  0.00    +0.000 C 
ATOM     19  O   UNL     1       4.884   4.374  17.135  0.00  0.00    +0.000 OA
ATOM     20  O   UNL     1       4.910   3.268  19.407  0.00  0.00    +0.000 OA
ENDBRANCH  14  17
ENDBRANCH   9  11
BRANCH   1  21
ATOM     21  C   UNL     1      -0.555  14.182  19.644  0.00  0.00    +0.000 C 
BRANCH  21  22
ATOM     22  C   UNL     1      -0.229  15.692  19.458  0.00  0.00    +0.000 C 
BRANCH  22  25
ATOM     23  C   UNL     1       1.408  15.825  22.066  0.00  0.00    +0.000 C 
ATOM     24  C   UNL     1       1.974  16.160  20.714  0.00  0.00    +0.000 A 
ATOM     25  C   UNL     1       1.241  16.096  19.501  0.00  0.00    +0.000 A 
ATOM     26  C   UNL     1       1.900  16.414  18.280  0.00  0.00    +0.000 A 
ATOM     27  C   UNL     1       3.245  16.783  18.239  0.00  0.00    +0.000 A 
ATOM     28  C   UNL     1       3.908  16.873  19.442  0.00  0.00    +0.000 A 
ATOM     29  C   UNL     1       3.307  16.583  20.646  0.00  0.00    +0.000 A 
ATOM     30  C   UNL     1       4.287  16.822  21.728  0.00  0.00    +0.000 C 
ATOM     31  O   UNL     1       5.478  17.237  21.030  0.00  0.00    +0.000 OA
ATOM     32  C   UNL     1       5.289  17.275  19.678  0.00  0.00    +0.000 C 
ATOM     33  O   UNL     1       6.108  17.587  18.838  0.00  0.00    +0.000 OA
ENDBRANCH  22  25
BRANCH  22  34
ATOM     34  O   UNL     1      -0.868  16.174  18.268  0.00  0.00    +0.000 OA
ATOM     35  H   UNL     1      -0.299  16.891  17.930  0.00  0.00    +0.000 HD
ENDBRANCH  22  34
ENDBRANCH  21  22
ENDBRANCH   1  21
TORSDOF 6
ENDMDL
MODEL 7
REMARK VINA RESULT:      -7.4      5.036     10.926
REMARK  Name = 
REMARK  8 active torsions:
REMARK  status: ('A' for Active; 'I' for Inactive)
REMARK    1  A    between atoms: C_1  and  C_2
REMARK    2  A    between atoms: C_3  and  C_4
REMARK    3  A    between atoms: C_4  and  O_5
REMARK    4  A    between atoms: C_4  and  C_6
REMARK    5  A    between atoms: C_6  and  N_7
REMARK    6  A    between atoms: N_15  and  C_16
REMARK    7  A    between atoms: C_19  and  S_20
REMARK    8  A    between atoms: S_20  and  C_21
REMARK                            x       y       z     vdW  Elec       q    Type
REMARK                         _______ _______ _______ _____ _____    ______ ____
ROOT
ATOM      1  N   UNL     1       0.280  12.729  21.805  0.00  0.00    +0.000 NA
ATOM      2  C   UNL     1      -0.112  11.314  21.929  0.00  0.00    +0.000 C 
ATOM      3  C   UNL     1      -0.616  10.678  20.628  0.00  0.00    +0.000 C 
ATOM      4  C   UNL     1       0.384  10.858  19.465  0.00  0.00    +0.000 C 
ATOM      5  C   UNL     1       0.822  12.330  19.378  0.00  0.00    +0.000 C 
ATOM      6  C   UNL     1       1.304  12.844  20.743  0.00  0.00    +0.000 C 
ATOM      7  C   UNL     1      -0.241  10.353  18.141  0.00  0.00    +0.000 C 
ATOM      8  C   UNL     1       0.753   9.334  17.585  0.00  0.00    +0.000 C 
ATOM      9  N   UNL     1       1.371   8.819  18.802  0.00  0.00    +0.000 N 
ATOM     10  C   UNL     1       1.619   9.951  19.683  0.00  0.00    +0.000 C 
ENDROOT
BRANCH   9  11
ATOM     11  C   UNL     1       2.271   7.770  18.801  0.00  0.00    +0.000 A 
ATOM     12  C   UNL     1       2.226   6.778  19.801  0.00  0.00    +0.000 A 
ATOM     13  C   UNL     1       3.115   5.707  19.804  0.00  0.00    +0.000 A 
ATOM     14  C   UNL     1       4.036   5.661  18.779  0.00  0.00    +0.000 A 
ATOM     15  N   UNL     1       4.129   6.560  17.769  0.00  0.00    +0.000 NA
ATOM     16  C   UNL     1       3.236   7.578  17.812  0.00  0.00    +0.000 A 
BRANCH  14  17
ATOM     17  S   UNL     1       5.224   4.348  18.711  0.00  0.00    +0.000 S 
ATOM     18  C   UNL     1       5.637   4.218  16.992  0.00  0.00    +0.000 C 
ATOM     19  O   UNL     1       6.406   4.800  19.426  0.00  0.00    +0.000 OA
ATOM     20  O   UNL     1       4.540   3.127  19.100  0.00  0.00    +0.000 OA
ENDBRANCH  14  17
ENDBRANCH   9  11
BRANCH   1  21
ATOM     21  C   UNL     1      -0.856  13.642  21.521  0.00  0.00    +0.000 C 
BRANCH  21  22
ATOM     22  C   UNL     1      -1.692  14.168  22.723  0.00  0.00    +0.000 C 
BRANCH  22  25
ATOM     23  C   UNL     1      -3.330  13.171  20.310  0.00  0.00    +0.000 C 
ATOM     24  C   UNL     1      -3.871  13.230  21.712  0.00  0.00    +0.000 A 
ATOM     25  C   UNL     1      -3.131  13.676  22.837  0.00  0.00    +0.000 A 
ATOM     26  C   UNL     1      -3.749  13.658  24.119  0.00  0.00    +0.000 A 
ATOM     27  C   UNL     1      -5.059  13.214  24.303  0.00  0.00    +0.000 A 
ATOM     28  C   UNL     1      -5.755  12.829  23.180  0.00  0.00    +0.000 A 
ATOM     29  C   UNL     1      -5.198  12.838  21.921  0.00  0.00    +0.000 A 
ATOM     30  C   UNL     1      -6.229  12.407  20.950  0.00  0.00    +0.000 C 
ATOM     31  O   UNL     1      -7.383  12.135  21.770  0.00  0.00    +0.000 OA
ATOM     32  C   UNL     1      -7.136  12.371  23.092  0.00  0.00    +0.000 C 
ATOM     33  O   UNL     1      -7.915  12.232  24.013  0.00  0.00    +0.000 OA
ENDBRANCH  22  25
BRANCH  22  34
ATOM     34  O   UNL     1      -0.967  13.947  23.940  0.00  0.00    +0.000 OA
ATOM     35  H   UNL     1      -0.678  13.016  23.914  0.00  0.00    +0.000 HD
ENDBRANCH  22  34
ENDBRANCH  21  22
ENDBRANCH   1  21
TORSDOF 6
ENDMDL
MODEL 8
REMARK VINA RESULT:      -7.4      6.240      8.381
REMARK  Name = 
REMARK  8 active torsions:
REMARK  status: ('A' for Active; 'I' for Inactive)
REMARK    1  A    between atoms: C_1  and  C_2
REMARK    2  A    between atoms: C_3  and  C_4
REMARK    3  A    between atoms: C_4  and  O_5
REMARK    4  A    between atoms: C_4  and  C_6
REMARK    5  A    between atoms: C_6  and  N_7
REMARK    6  A    between atoms: N_15  and  C_16
REMARK    7  A    between atoms: C_19  and  S_20
REMARK    8  A    between atoms: S_20  and  C_21
REMARK                            x       y       z     vdW  Elec       q    Type
REMARK                         _______ _______ _______ _____ _____    ______ ____
ROOT
ATOM      1  N   UNL     1       1.192  13.092  21.296  0.00  0.00    +0.000 NA
ATOM      2  C   UNL     1       1.915  12.644  20.093  0.00  0.00    +0.000 C 
ATOM      3  C   UNL     1       1.921  13.656  18.941  0.00  0.00    +0.000 C 
ATOM      4  C   UNL     1       2.429  15.044  19.386  0.00  0.00    +0.000 C 
ATOM      5  C   UNL     1       1.700  15.479  20.669  0.00  0.00    +0.000 C 
ATOM      6  C   UNL     1       1.768  14.380  21.741  0.00  0.00    +0.000 C 
ATOM      7  C   UNL     1       2.256  16.070  18.238  0.00  0.00    +0.000 C 
ATOM      8  C   UNL     1       3.640  16.680  18.026  0.00  0.00    +0.000 C 
ATOM      9  N   UNL     1       4.519  15.589  18.432  0.00  0.00    +0.000 N 
ATOM     10  C   UNL     1       3.956  14.995  19.637  0.00  0.00    +0.000 C 
ENDROOT
BRANCH   9  11
ATOM     11  C   UNL     1       5.893  15.641  18.300  0.00  0.00    +0.000 A 
ATOM     12  C   UNL     1       6.603  16.824  18.588  0.00  0.00    +0.000 A 
ATOM     13  C   UNL     1       7.989  16.886  18.477  0.00  0.00    +0.000 A 
ATOM     14  C   UNL     1       8.633  15.734  18.077  0.00  0.00    +0.000 A 
ATOM     15  N   UNL     1       8.027  14.553  17.805  0.00  0.00    +0.000 NA
ATOM     16  C   UNL     1       6.678  14.546  17.936  0.00  0.00    +0.000 A 
BRANCH  14  17
ATOM     17  S   UNL     1      10.394  15.723  17.883  0.00  0.00    +0.000 S 
ATOM     18  C   UNL     1      10.777  14.047  17.451  0.00  0.00    +0.000 C 
ATOM     19  O   UNL     1      10.707  16.566  16.741  0.00  0.00    +0.000 OA
ATOM     20  O   UNL     1      10.973  15.992  19.188  0.00  0.00    +0.000 OA
ENDBRANCH  14  17
ENDBRANCH   9  11
BRANCH   1  21
ATOM     21  C   UNL     1      -0.273  13.231  21.095  0.00  0.00    +0.000 C 
BRANCH  21  22
ATOM     22  C   UNL     1      -1.131  11.934  21.042  0.00  0.00    +0.000 C 
BRANCH  22  25
ATOM     23  C   UNL     1      -3.851  12.846  19.914  0.00  0.00    +0.000 C 
ATOM     24  C   UNL     1      -2.915  11.927  19.180  0.00  0.00    +0.000 A 
ATOM     25  C   UNL     1      -1.656  11.503  19.676  0.00  0.00    +0.000 A 
ATOM     26  C   UNL     1      -0.849  10.651  18.870  0.00  0.00    +0.000 A 
ATOM     27  C   UNL     1      -1.258  10.222  17.607  0.00  0.00    +0.000 A 
ATOM     28  C   UNL     1      -2.504  10.623  17.181  0.00  0.00    +0.000 A 
ATOM     29  C   UNL     1      -3.319  11.440  17.931  0.00  0.00    +0.000 A 
ATOM     30  C   UNL     1      -4.589  11.636  17.197  0.00  0.00    +0.000 C 
ATOM     31  O   UNL     1      -4.401  10.891  15.977  0.00  0.00    +0.000 OA
ATOM     32  C   UNL     1      -3.179  10.283  15.935  0.00  0.00    +0.000 C 
ATOM     33  O   UNL     1      -2.742   9.591  15.037  0.00  0.00    +0.000 OA
ENDBRANCH  22  25
BRANCH  22  34
ATOM     34  O   UNL     1      -0.423  10.867  21.689  0.00  0.00    +0.000 OA
ATOM     35  H   UNL     1      -0.202  11.196  22.581  0.00  0.00    +0.000 HD
ENDBRANCH  22  34
ENDBRANCH  21  22
ENDBRANCH   1  21
TORSDOF 6
ENDMDL
MODEL 9
REMARK VINA RESULT:      -7.4      0.987      1.053
REMARK  Name = 
REMARK  8 active torsions:
REMARK  status: ('A' for Active; 'I' for Inactive)
REMARK    1  A    between atoms: C_1  and  C_2
REMARK    2  A    between atoms: C_3  and  C_4
REMARK    3  A    between atoms: C_4  and  O_5
REMARK    4  A    between atoms: C_4  and  C_6
REMARK    5  A    between atoms: C_6  and  N_7
REMARK    6  A    between atoms: N_15  and  C_16
REMARK    7  A    between atoms: C_19  and  S_20
REMARK    8  A    between atoms: S_20  and  C_21
REMARK                            x       y       z     vdW  Elec       q    Type
REMARK                         _______ _______ _______ _____ _____    ______ ____
ROOT
ATOM      1  N   UNL     1       2.423   7.883  19.510  0.00  0.00    +0.000 NA
ATOM      2  C   UNL     1       2.491   8.807  18.365  0.00  0.00    +0.000 C 
ATOM      3  C   UNL     1       1.127   9.274  17.843  0.00  0.00    +0.000 C 
ATOM      4  C   UNL     1       0.247   9.871  18.962  0.00  0.00    +0.000 C 
ATOM      5  C   UNL     1       0.223   8.918  20.170  0.00  0.00    +0.000 C 
ATOM      6  C   UNL     1       1.648   8.529  20.593  0.00  0.00    +0.000 C 
ATOM      7  C   UNL     1      -1.175  10.169  18.422  0.00  0.00    +0.000 C 
ATOM      8  C   UNL     1      -1.429  11.642  18.738  0.00  0.00    +0.000 C 
ATOM      9  N   UNL     1      -0.080  12.196  18.710  0.00  0.00    +0.000 N 
ATOM     10  C   UNL     1       0.797  11.253  19.390  0.00  0.00    +0.000 C 
ENDROOT
BRANCH   9  11
ATOM     11  C   UNL     1       0.180  13.547  18.830  0.00  0.00    +0.000 A 
ATOM     12  C   UNL     1      -0.810  14.436  19.294  0.00  0.00    +0.000 A 
ATOM     13  C   UNL     1      -0.556  15.797  19.437  0.00  0.00    +0.000 A 
ATOM     14  C   UNL     1       0.710  16.232  19.109  0.00  0.00    +0.000 A 
ATOM     15  N   UNL     1       1.723  15.439  18.679  0.00  0.00    +0.000 NA
ATOM     16  C   UNL     1       1.424  14.123  18.565  0.00  0.00    +0.000 A 
BRANCH  14  17
ATOM     17  S   UNL     1       1.120  17.951  19.235  0.00  0.00    +0.000 S 
ATOM     18  C   UNL     1       2.413  18.006  20.445  0.00  0.00    +0.000 C 
ATOM     19  O   UNL     1       1.681  18.355  17.957  0.00  0.00    +0.000 OA
ATOM     20  O   UNL     1      -0.039  18.631  19.787  0.00  0.00    +0.000 OA
ENDBRANCH  14  17
ENDBRANCH   9  11
BRANCH   1  21
ATOM     21  C   UNL     1       1.832   6.562  19.177  0.00  0.00    +0.000 C 
BRANCH  21  22
ATOM     22  C   UNL     1       2.767   5.317  19.190  0.00  0.00    +0.000 C 
BRANCH  22  25
ATOM     23  C   UNL     1       2.911   3.078  17.076  0.00  0.00    +0.000 C 
ATOM     24  C   UNL     1       3.902   4.205  17.158  0.00  0.00    +0.000 A 
ATOM     25  C   UNL     1       3.848   5.251  18.116  0.00  0.00    +0.000 A 
ATOM     26  C   UNL     1       4.833   6.278  18.071  0.00  0.00    +0.000 A 
ATOM     27  C   UNL     1       5.848   6.289  17.114  0.00  0.00    +0.000 A 
ATOM     28  C   UNL     1       5.888   5.234  16.230  0.00  0.00    +0.000 A 
ATOM     29  C   UNL     1       4.961   4.217  16.243  0.00  0.00    +0.000 A 
ATOM     30  C   UNL     1       5.324   3.239  15.193  0.00  0.00    +0.000 C 
ATOM     31  O   UNL     1       6.502   3.806  14.585  0.00  0.00    +0.000 OA
ATOM     32  C   UNL     1       6.860   4.986  15.172  0.00  0.00    +0.000 C 
ATOM     33  O   UNL     1       7.804   5.689  14.874  0.00  0.00    +0.000 OA
ENDBRANCH  22  25
BRANCH  22  34
ATOM     34  O   UNL     1       3.322   5.152  20.501  0.00  0.00    +0.000 OA
ATOM     35  H   UNL     1       3.966   5.877  20.612  0.00  0.00    +0.000 HD
ENDBRANCH  22  34
ENDBRANCH  21  22
ENDBRANCH   1  21
TORSDOF 6
ENDMDL
