MODEL 1
REMARK VINA RESULT:      -8.4      0.000      0.000
REMARK  Name = 
REMARK  9 active torsions:
REMARK  status: ('A' for Active; 'I' for Inactive)
REMARK    1  A    between atoms: C_1  and  C_2
REMARK    2  A    between atoms: C_4  and  C_5
REMARK    3  A    between atoms: C_6  and  C_7
REMARK    4  A    between atoms: C_10  and  C_11
REMARK    5  A    between atoms: C_12  and  O_13
REMARK    6  A    between atoms: O_13  and  C_14
REMARK    7  A    between atoms: N_17  and  C_18
REMARK    8  A    between atoms: C_21  and  C_22
REMARK    9  A    between atoms: C_22  and  N_23
REMARK                            x       y       z     vdW  Elec       q    Type
REMARK                         _______ _______ _______ _____ _____    ______ ____
ROOT
ATOM      1  C   UNL     1       4.432   4.875  18.673  0.00  0.00    +0.000 A 
ATOM      2  N   UNL     1       4.057   5.961  19.363  0.00  0.00    +0.000 NA
ATOM      3  C   UNL     1       2.770   6.184  19.656  0.00  0.00    +0.000 A 
ATOM      4  N   UNL     1       2.526   7.294  20.449  0.00  0.00    +0.000 N 
ATOM      5  N   UNL     1       1.775   5.367  19.340  0.00  0.00    +0.000 NA
ATOM      6  C   UNL     1       2.184   4.211  18.805  0.00  0.00    +0.000 A 
ATOM      7  S   UNL     1       1.068   2.946  18.558  0.00  0.00    +0.000 S 
ATOM      8  C   UNL     1       2.291   1.914  17.966  0.00  0.00    +0.000 A 
ATOM      9  C   UNL     1       3.515   2.549  17.893  0.00  0.00    +0.000 A 
ATOM     10  C   UNL     1       3.477   3.878  18.430  0.00  0.00    +0.000 A 
ATOM     11  H   UNL     1       3.338   7.533  20.993  0.00  0.00    +0.000 HD
ENDROOT
BRANCH   4  12
ATOM     12  C   UNL     1       1.490   8.225  20.439  0.00  0.00    +0.000 A 
ATOM     13  C   UNL     1       0.632   8.288  21.529  0.00  0.00    +0.000 A 
ATOM     14  C   UNL     1      -0.432   9.207  21.577  0.00  0.00    +0.000 A 
ATOM     15  C   UNL     1      -0.621  10.119  20.534  0.00  0.00    +0.000 A 
ATOM     16  C   UNL     1       0.197  10.009  19.403  0.00  0.00    +0.000 A 
ATOM     17  C   UNL     1       1.230   9.071  19.346  0.00  0.00    +0.000 A 
BRANCH  15  18
ATOM     18  C   UNL     1      -1.708  11.171  20.576  0.00  0.00    +0.000 C 
BRANCH  18  19
ATOM     19  N   UNL     1      -1.394  12.363  21.382  0.00  0.00    +0.000 NA
ATOM     20  C   UNL     1      -1.999  13.604  20.860  0.00  0.00    +0.000 C 
ATOM     21  C   UNL     1      -3.516  13.744  21.089  0.00  0.00    +0.000 C 
ATOM     22  N   UNL     1      -3.913  13.596  22.491  0.00  0.00    +0.000 NA
ATOM     23  C   UNL     1      -3.282  12.439  23.135  0.00  0.00    +0.000 C 
ATOM     24  C   UNL     1      -1.788  12.203  22.795  0.00  0.00    +0.000 C 
ATOM     25  H   UNL     1      -4.927  13.507  22.548  0.00  0.00    +0.000 HD
ENDBRANCH  18  19
ENDBRANCH  15  18
ENDBRANCH   4  12
BRANCH   1  26
ATOM     26  O   UNL     1       5.728   4.772  18.171  0.00  0.00    +0.000 OA
BRANCH  26  34
ATOM     27  C   UNL     1       8.155   5.307  20.205  0.00  0.00    +0.000 C 
ATOM     28  C   UNL     1       7.674   6.124  19.041  0.00  0.00    +0.000 A 
ATOM     29  C   UNL     1       8.413   7.313  18.873  0.00  0.00    +0.000 A 
ATOM     30  C   UNL     1       8.116   8.247  17.901  0.00  0.00    +0.000 A 
ATOM     31  C   UNL     1       7.050   7.991  17.038  0.00  0.00    +0.000 A 
ATOM     32  C   UNL     1       6.306   6.795  17.141  0.00  0.00    +0.000 A 
ATOM     33  C   UNL     1       5.161   6.596  16.178  0.00  0.00    +0.000 C 
ATOM     34  C   UNL     1       6.624   5.832  18.138  0.00  0.00    +0.000 A 
BRANCH  30  35
ATOM     35  C   UNL     1       8.935   9.459  17.868  0.00  0.00    +0.000 C 
ATOM     36  C   UNL     1       9.127  10.203  18.954  0.00  0.00    +0.000 C 
BRANCH  36  37
ATOM     37  C   UNL     1       9.924  11.497  18.938  0.00  0.00    +0.000 C 
ATOM     38  N   UNL     1      10.585  12.571  18.925  0.00  0.00    +0.000 NA
ENDBRANCH  36  37
ENDBRANCH  30  35
ENDBRANCH  26  34
ENDBRANCH   1  26
TORSDOF 7
ENDMDL
MODEL 2
REMARK VINA RESULT:      -8.3      0.800      1.035
REMARK  Name = 
REMARK  9 active torsions:
REMARK  status: ('A' for Active; 'I' for Inactive)
REMARK    1  A    between atoms: C_1  and  C_2
REMARK    2  A    between atoms: C_4  and  C_5
REMARK    3  A    between atoms: C_6  and  C_7
REMARK    4  A    between atoms: C_10  and  C_11
REMARK    5  A    between atoms: C_12  and  O_13
REMARK    6  A    between atoms: O_13  and  C_14
REMARK    7  A    between atoms: N_17  and  C_18
REMARK    8  A    between atoms: C_21  and  C_22
REMARK    9  A    between atoms: C_22  and  N_23
REMARK                            x       y       z     vdW  Elec       q    Type
REMARK                         _______ _______ _______ _____ _____    ______ ____
ROOT
ATOM      1  C   UNL     1       4.360   4.885  18.714  0.00  0.00    +0.000 A 
ATOM      2  N   UNL     1       4.021   5.962  19.435  0.00  0.00    +0.000 NA
ATOM      3  C   UNL     1       2.752   6.180  19.799  0.00  0.00    +0.000 A 
ATOM      4  N   UNL     1       2.551   7.280  20.617  0.00  0.00    +0.000 N 
ATOM      5  N   UNL     1       1.742   5.366  19.527  0.00  0.00    +0.000 NA
ATOM      6  C   UNL     1       2.122   4.217  18.957  0.00  0.00    +0.000 A 
ATOM      7  S   UNL     1       0.994   2.954  18.754  0.00  0.00    +0.000 S 
ATOM      8  C   UNL     1       2.185   1.930  18.086  0.00  0.00    +0.000 A 
ATOM      9  C   UNL     1       3.403   2.567  17.956  0.00  0.00    +0.000 A 
ATOM     10  C   UNL     1       3.393   3.889  18.510  0.00  0.00    +0.000 A 
ATOM     11  H   UNL     1       3.390   7.514  21.120  0.00  0.00    +0.000 HD
ENDROOT
BRANCH   4  12
ATOM     12  C   UNL     1       1.515   8.211  20.673  0.00  0.00    +0.000 A 
ATOM     13  C   UNL     1       0.714   8.257  21.806  0.00  0.00    +0.000 A 
ATOM     14  C   UNL     1      -0.346   9.175  21.922  0.00  0.00    +0.000 A 
ATOM     15  C   UNL     1      -0.588  10.101  20.903  0.00  0.00    +0.000 A 
ATOM     16  C   UNL     1       0.171  10.008  19.730  0.00  0.00    +0.000 A 
ATOM     17  C   UNL     1       1.200   9.072  19.608  0.00  0.00    +0.000 A 
BRANCH  15  18
ATOM     18  C   UNL     1      -1.671  11.152  21.016  0.00  0.00    +0.000 C 
BRANCH  18  19
ATOM     19  N   UNL     1      -1.766  12.078  19.875  0.00  0.00    +0.000 NA
ATOM     20  C   UNL     1      -2.929  11.822  19.002  0.00  0.00    +0.000 C 
ATOM     21  C   UNL     1      -4.291  12.255  19.576  0.00  0.00    +0.000 C 
ATOM     22  N   UNL     1      -4.332  13.659  19.992  0.00  0.00    +0.000 NA
ATOM     23  C   UNL     1      -3.161  14.044  20.788  0.00  0.00    +0.000 C 
ATOM     24  C   UNL     1      -1.797  13.491  20.302  0.00  0.00    +0.000 C 
ATOM     25  H   UNL     1      -5.181  13.828  20.531  0.00  0.00    +0.000 HD
ENDBRANCH  18  19
ENDBRANCH  15  18
ENDBRANCH   4  12
BRANCH   1  26
ATOM     26  O   UNL     1       5.627   4.789  18.143  0.00  0.00    +0.000 OA
BRANCH  26  34
ATOM     27  C   UNL     1       8.052   5.269  20.194  0.00  0.00    +0.000 C 
ATOM     28  C   UNL     1       7.590   6.102  19.032  0.00  0.00    +0.000 A 
ATOM     29  C   UNL     1       8.349   7.281  18.878  0.00  0.00    +0.000 A 
ATOM     30  C   UNL     1       8.072   8.226  17.911  0.00  0.00    +0.000 A 
ATOM     31  C   UNL     1       7.007   7.994  17.040  0.00  0.00    +0.000 A 
ATOM     32  C   UNL     1       6.243   6.809  17.131  0.00  0.00    +0.000 A 
ATOM     33  C   UNL     1       5.101   6.636  16.160  0.00  0.00    +0.000 C 
ATOM     34  C   UNL     1       6.540   5.833  18.122  0.00  0.00    +0.000 A 
BRANCH  30  35
ATOM     35  C   UNL     1       8.911   9.425  17.891  0.00  0.00    +0.000 C 
ATOM     36  C   UNL     1       9.039  10.206  18.960  0.00  0.00    +0.000 C 
BRANCH  36  37
ATOM     37  C   UNL     1       9.856  11.488  18.953  0.00  0.00    +0.000 C 
ATOM     38  N   UNL     1      10.533  12.552  18.947  0.00  0.00    +0.000 NA
ENDBRANCH  36  37
ENDBRANCH  30  35
ENDBRANCH  26  34
ENDBRANCH   1  26
TORSDOF 7
ENDMDL
MODEL 3
REMARK VINA RESULT:      -8.3      4.480     10.370
REMARK  Name = 
REMARK  9 active torsions:
REMARK  status: ('A' for Active; 'I' for Inactive)
REMARK    1  A    between atoms: C_1  and  C_2
REMARK    2  A    between atoms: C_4  and  C_5
REMARK    3  A    between atoms: C_6  and  C_7
REMARK    4  A    between atoms: C_10  and  C_11
REMARK    5  A    between atoms: C_12  and  O_13
REMARK    6  A    between atoms: O_13  and  C_14
REMARK    7  A    between atoms: N_17  and  C_18
REMARK    8  A    between atoms: C_21  and  C_22
REMARK    9  A    between atoms: C_22  and  N_23
REMARK                            x       y       z     vdW  Elec       q    Type
REMARK                         _______ _______ _______ _____ _____    ______ ____
ROOT
ATOM      1  C   UNL     1      -2.414  11.861  18.931  0.00  0.00    +0.000 A 
ATOM      2  N   UNL     1      -1.196  11.438  19.297  0.00  0.00    +0.000 NA
ATOM      3  C   UNL     1      -0.586  10.440  18.646  0.00  0.00    +0.000 A 
ATOM      4  N   UNL     1       0.704  10.160  19.067  0.00  0.00    +0.000 N 
ATOM      5  N   UNL     1      -1.086   9.816  17.589  0.00  0.00    +0.000 NA
ATOM      6  C   UNL     1      -2.220  10.362  17.134  0.00  0.00    +0.000 A 
ATOM      7  S   UNL     1      -2.878   9.844  15.649  0.00  0.00    +0.000 S 
ATOM      8  C   UNL     1      -4.151  10.975  15.760  0.00  0.00    +0.000 A 
ATOM      9  C   UNL     1      -4.112  11.685  16.945  0.00  0.00    +0.000 A 
ATOM     10  C   UNL     1      -2.958  11.371  17.735  0.00  0.00    +0.000 A 
ATOM     11  H   UNL     1       1.122  10.962  19.506  0.00  0.00    +0.000 HD
ENDROOT
BRANCH   4  12
ATOM     12  C   UNL     1       1.391   8.954  19.196  0.00  0.00    +0.000 A 
ATOM     13  C   UNL     1       1.358   8.289  20.414  0.00  0.00    +0.000 A 
ATOM     14  C   UNL     1       2.031   7.068  20.606  0.00  0.00    +0.000 A 
ATOM     15  C   UNL     1       2.717   6.470  19.545  0.00  0.00    +0.000 A 
ATOM     16  C   UNL     1       2.812   7.174  18.337  0.00  0.00    +0.000 A 
ATOM     17  C   UNL     1       2.170   8.402  18.164  0.00  0.00    +0.000 A 
BRANCH  15  18
ATOM     18  C   UNL     1       3.394   5.124  19.685  0.00  0.00    +0.000 C 
BRANCH  18  19
ATOM     19  N   UNL     1       2.498   4.004  20.017  0.00  0.00    +0.000 NA
ATOM     20  C   UNL     1       1.509   3.708  18.963  0.00  0.00    +0.000 C 
ATOM     21  C   UNL     1       2.069   3.001  17.714  0.00  0.00    +0.000 C 
ATOM     22  N   UNL     1       2.799   1.767  18.017  0.00  0.00    +0.000 NA
ATOM     23  C   UNL     1       3.744   1.931  19.126  0.00  0.00    +0.000 C 
ATOM     24  C   UNL     1       3.241   2.768  20.330  0.00  0.00    +0.000 C 
ATOM     25  H   UNL     1       3.300   1.457  17.184  0.00  0.00    +0.000 HD
ENDBRANCH  18  19
ENDBRANCH  15  18
ENDBRANCH   4  12
BRANCH   1  26
ATOM     26  O   UNL     1      -3.135  12.728  19.750  0.00  0.00    +0.000 OA
BRANCH  26  34
ATOM     27  C   UNL     1      -0.576  14.633  19.380  0.00  0.00    +0.000 C 
ATOM     28  C   UNL     1      -1.399  14.348  20.604  0.00  0.00    +0.000 A 
ATOM     29  C   UNL     1      -0.916  15.019  21.748  0.00  0.00    +0.000 A 
ATOM     30  C   UNL     1      -1.481  14.864  22.998  0.00  0.00    +0.000 A 
ATOM     31  C   UNL     1      -2.586  14.023  23.129  0.00  0.00    +0.000 A 
ATOM     32  C   UNL     1      -3.128  13.361  22.006  0.00  0.00    +0.000 A 
ATOM     33  C   UNL     1      -4.318  12.459  22.230  0.00  0.00    +0.000 C 
ATOM     34  C   UNL     1      -2.550  13.532  20.718  0.00  0.00    +0.000 A 
BRANCH  30  35
ATOM     35  C   UNL     1      -0.852  15.583  24.106  0.00  0.00    +0.000 C 
ATOM     36  C   UNL     1      -1.276  15.445  25.360  0.00  0.00    +0.000 C 
BRANCH  36  37
ATOM     37  C   UNL     1      -0.681  16.222  26.523  0.00  0.00    +0.000 C 
ATOM     38  N   UNL     1      -0.189  16.867  27.488  0.00  0.00    +0.000 NA
ENDBRANCH  36  37
ENDBRANCH  30  35
ENDBRANCH  26  34
ENDBRANCH   1  26
TORSDOF 7
ENDMDL
MODEL 4
REMARK VINA RESULT:      -8.1      0.670      1.024
REMARK  Name = 
REMARK  9 active torsions:
REMARK  status: ('A' for Active; 'I' for Inactive)
REMARK    1  A    between atoms: C_1  and  C_2
REMARK    2  A    between atoms: C_4  and  C_5
REMARK    3  A    between atoms: C_6  and  C_7
REMARK    4  A    between atoms: C_10  and  C_11
REMARK    5  A    between atoms: C_12  and  O_13
REMARK    6  A    between atoms: O_13  and  C_14
REMARK    7  A    between atoms: N_17  and  C_18
REMARK    8  A    between atoms: C_21  and  C_22
REMARK    9  A    between atoms: C_22  and  N_23
REMARK                            x       y       z     vdW  Elec       q    Type
REMARK                         _______ _______ _______ _____ _____    ______ ____
ROOT
ATOM      1  C   UNL     1       4.370   4.817  18.805  0.00  0.00    +0.000 A 
ATOM      2  N   UNL     1       4.002   5.919  19.474  0.00  0.00    +0.000 NA
ATOM      3  C   UNL     1       2.715   6.165  19.747  0.00  0.00    +0.000 A 
ATOM      4  N   UNL     1       2.478   7.290  20.521  0.00  0.00    +0.000 N 
ATOM      5  N   UNL     1       1.712   5.358  19.431  0.00  0.00    +0.000 NA
ATOM      6  C   UNL     1       2.111   4.188  18.918  0.00  0.00    +0.000 A 
ATOM      7  S   UNL     1       0.979   2.937  18.675  0.00  0.00    +0.000 S 
ATOM      8  C   UNL     1       2.194   1.877  18.114  0.00  0.00    +0.000 A 
ATOM      9  C   UNL     1       3.428   2.493  18.048  0.00  0.00    +0.000 A 
ATOM     10  C   UNL     1       3.403   3.830  18.564  0.00  0.00    +0.000 A 
ATOM     11  H   UNL     1       3.287   7.525  21.071  0.00  0.00    +0.000 HD
ENDROOT
BRANCH   4  12
ATOM     12  C   UNL     1       1.456   8.236  20.484  0.00  0.00    +0.000 A 
ATOM     13  C   UNL     1       0.535   8.272  21.522  0.00  0.00    +0.000 A 
ATOM     14  C   UNL     1      -0.518   9.204  21.541  0.00  0.00    +0.000 A 
ATOM     15  C   UNL     1      -0.633  10.156  20.524  0.00  0.00    +0.000 A 
ATOM     16  C   UNL     1       0.251  10.075  19.440  0.00  0.00    +0.000 A 
ATOM     17  C   UNL     1       1.273   9.125  19.410  0.00  0.00    +0.000 A 
BRANCH  15  18
ATOM     18  C   UNL     1      -1.706  11.222  20.540  0.00  0.00    +0.000 C 
BRANCH  18  19
ATOM     19  N   UNL     1      -1.736  12.062  21.748  0.00  0.00    +0.000 NA
ATOM     20  C   UNL     1      -0.488  12.819  21.972  0.00  0.00    +0.000 C 
ATOM     21  C   UNL     1      -0.273  14.024  21.036  0.00  0.00    +0.000 C 
ATOM     22  N   UNL     1      -1.389  14.972  21.035  0.00  0.00    +0.000 NA
ATOM     23  C   UNL     1      -2.691  14.308  20.918  0.00  0.00    +0.000 C 
ATOM     24  C   UNL     1      -2.869  13.009  21.745  0.00  0.00    +0.000 C 
ATOM     25  H   UNL     1      -1.272  15.632  20.266  0.00  0.00    +0.000 HD
ENDBRANCH  18  19
ENDBRANCH  15  18
ENDBRANCH   4  12
BRANCH   1  26
ATOM     26  O   UNL     1       5.670   4.688  18.321  0.00  0.00    +0.000 OA
BRANCH  26  34
ATOM     27  C   UNL     1       8.145   5.305  20.273  0.00  0.00    +0.000 C 
ATOM     28  C   UNL     1       7.633   6.076  19.089  0.00  0.00    +0.000 A 
ATOM     29  C   UNL     1       8.364   7.260  18.859  0.00  0.00    +0.000 A 
ATOM     30  C   UNL     1       8.040   8.154  17.858  0.00  0.00    +0.000 A 
ATOM     31  C   UNL     1       6.954   7.863  17.032  0.00  0.00    +0.000 A 
ATOM     32  C   UNL     1       6.217   6.671  17.200  0.00  0.00    +0.000 A 
ATOM     33  C   UNL     1       5.049   6.432  16.273  0.00  0.00    +0.000 C 
ATOM     34  C   UNL     1       6.562   5.747  18.225  0.00  0.00    +0.000 A 
BRANCH  30  35
ATOM     35  C   UNL     1       8.854   9.366  17.758  0.00  0.00    +0.000 C 
ATOM     36  C   UNL     1       9.097  10.135  18.817  0.00  0.00    +0.000 C 
BRANCH  36  37
ATOM     37  C   UNL     1       9.890  11.429  18.733  0.00  0.00    +0.000 C 
ATOM     38  N   UNL     1      10.547  12.503  18.664  0.00  0.00    +0.000 NA
ENDBRANCH  36  37
ENDBRANCH  30  35
ENDBRANCH  26  34
ENDBRANCH   1  26
TORSDOF 7
ENDMDL
MODEL 5
REMARK VINA RESULT:      -8.0      1.466      2.067
REMARK  Name = 
REMARK  9 active torsions:
REMARK  status: ('A' for Active; 'I' for Inactive)
REMARK    1  A    between atoms: C_1  and  C_2
REMARK    2  A    between atoms: C_4  and  C_5
REMARK    3  A    between atoms: C_6  and  C_7
REMARK    4  A    between atoms: C_10  and  C_11
REMARK    5  A    between atoms: C_12  and  O_13
REMARK    6  A    between atoms: O_13  and  C_14
REMARK    7  A    between atoms: N_17  and  C_18
REMARK    8  A    between atoms: C_21  and  C_22
REMARK    9  A    between atoms: C_22  and  N_23
REMARK                            x       y       z     vdW  Elec       q    Type
REMARK                         _______ _______ _______ _____ _____    ______ ____
ROOT
ATOM      1  C   UNL     1       4.382   4.608  18.930  0.00  0.00    +0.000 A 
ATOM      2  N   UNL     1       4.006   5.714  19.587  0.00  0.00    +0.000 NA
ATOM      3  C   UNL     1       2.716   5.965  19.838  0.00  0.00    +0.000 A 
ATOM      4  N   UNL     1       2.469   7.094  20.602  0.00  0.00    +0.000 N 
ATOM      5  N   UNL     1       1.715   5.159  19.509  0.00  0.00    +0.000 NA
ATOM      6  C   UNL     1       2.119   3.986  19.008  0.00  0.00    +0.000 A 
ATOM      7  S   UNL     1       0.988   2.736  18.752  0.00  0.00    +0.000 S 
ATOM      8  C   UNL     1       2.210   1.671  18.217  0.00  0.00    +0.000 A 
ATOM      9  C   UNL     1       3.447   2.283  18.168  0.00  0.00    +0.000 A 
ATOM     10  C   UNL     1       3.416   3.623  18.678  0.00  0.00    +0.000 A 
ATOM     11  H   UNL     1       3.268   7.330  21.165  0.00  0.00    +0.000 HD
ENDROOT
BRANCH   4  12
ATOM     12  C   UNL     1       1.450   8.043  20.544  0.00  0.00    +0.000 A 
ATOM     13  C   UNL     1       1.462   8.979  19.519  0.00  0.00    +0.000 A 
ATOM     14  C   UNL     1       0.461   9.962  19.406  0.00  0.00    +0.000 A 
ATOM     15  C   UNL     1      -0.605   9.986  20.311  0.00  0.00    +0.000 A 
ATOM     16  C   UNL     1      -0.580   9.089  21.387  0.00  0.00    +0.000 A 
ATOM     17  C   UNL     1       0.435   8.139  21.512  0.00  0.00    +0.000 A 
BRANCH  15  18
ATOM     18  C   UNL     1      -1.740  10.979  20.186  0.00  0.00    +0.000 C 
BRANCH  18  19
ATOM     19  N   UNL     1      -1.952  11.521  18.834  0.00  0.00    +0.000 NA
ATOM     20  C   UNL     1      -2.058  10.482  17.791  0.00  0.00    +0.000 C 
ATOM     21  C   UNL     1      -3.384   9.698  17.777  0.00  0.00    +0.000 C 
ATOM     22  N   UNL     1      -4.570  10.553  17.693  0.00  0.00    +0.000 NA
ATOM     23  C   UNL     1      -4.516  11.683  18.627  0.00  0.00    +0.000 C 
ATOM     24  C   UNL     1      -3.143  12.390  18.760  0.00  0.00    +0.000 C 
ATOM     25  H   UNL     1      -5.404   9.996  17.879  0.00  0.00    +0.000 HD
ENDBRANCH  18  19
ENDBRANCH  15  18
ENDBRANCH   4  12
BRANCH   1  26
ATOM     26  O   UNL     1       5.690   4.473  18.468  0.00  0.00    +0.000 OA
BRANCH  26  34
ATOM     27  C   UNL     1       8.107   5.287  20.420  0.00  0.00    +0.000 C 
ATOM     28  C   UNL     1       7.606   5.957  19.172  0.00  0.00    +0.000 A 
ATOM     29  C   UNL     1       8.319   7.135  18.868  0.00  0.00    +0.000 A 
ATOM     30  C   UNL     1       8.000   7.946  17.797  0.00  0.00    +0.000 A 
ATOM     31  C   UNL     1       6.939   7.570  16.972  0.00  0.00    +0.000 A 
ATOM     32  C   UNL     1       6.222   6.378  17.214  0.00  0.00    +0.000 A 
ATOM     33  C   UNL     1       5.081   6.046  16.283  0.00  0.00    +0.000 C 
ATOM     34  C   UNL     1       6.562   5.541  18.312  0.00  0.00    +0.000 A 
BRANCH  30  35
ATOM     35  C   UNL     1       8.792   9.164  17.624  0.00  0.00    +0.000 C 
ATOM     36  C   UNL     1       8.977  10.026  18.621  0.00  0.00    +0.000 C 
BRANCH  36  37
ATOM     37  C   UNL     1       9.745  11.327  18.456  0.00  0.00    +0.000 C 
ATOM     38  N   UNL     1      10.382  12.406  18.319  0.00  0.00    +0.000 NA
ENDBRANCH  36  37
ENDBRANCH  30  35
ENDBRANCH  26  34
ENDBRANCH   1  26
TORSDOF 7
ENDMDL
MODEL 6
REMARK VINA RESULT:      -7.9      4.428     10.565
REMARK  Name = 
REMARK  9 active torsions:
REMARK  status: ('A' for Active; 'I' for Inactive)
REMARK    1  A    between atoms: C_1  and  C_2
REMARK    2  A    between atoms: C_4  and  C_5
REMARK    3  A    between atoms: C_6  and  C_7
REMARK    4  A    between atoms: C_10  and  C_11
REMARK    5  A    between atoms: C_12  and  O_13
REMARK    6  A    between atoms: O_13  and  C_14
REMARK    7  A    between atoms: N_17  and  C_18
REMARK    8  A    between atoms: C_21  and  C_22
REMARK    9  A    between atoms: C_22  and  N_23
REMARK                            x       y       z     vdW  Elec       q    Type
REMARK                         _______ _______ _______ _____ _____    ______ ____
ROOT
ATOM      1  C   UNL     1      -2.507  11.860  19.624  0.00  0.00    +0.000 A 
ATOM      2  N   UNL     1      -1.265  11.416  19.855  0.00  0.00    +0.000 NA
ATOM      3  C   UNL     1      -0.683  10.530  19.038  0.00  0.00    +0.000 A 
ATOM      4  N   UNL     1       0.634  10.222  19.339  0.00  0.00    +0.000 N 
ATOM      5  N   UNL     1      -1.238  10.047  17.936  0.00  0.00    +0.000 NA
ATOM      6  C   UNL     1      -2.404  10.626  17.628  0.00  0.00    +0.000 A 
ATOM      7  S   UNL     1      -3.145  10.304  16.127  0.00  0.00    +0.000 S 
ATOM      8  C   UNL     1      -4.423  11.382  16.468  0.00  0.00    +0.000 A 
ATOM      9  C   UNL     1      -4.321  11.923  17.735  0.00  0.00    +0.000 A 
ATOM     10  C   UNL     1      -3.117  11.528  18.405  0.00  0.00    +0.000 A 
ATOM     11  H   UNL     1       1.068  10.965  19.861  0.00  0.00    +0.000 HD
ENDROOT
BRANCH   4  12
ATOM     12  C   UNL     1       1.342   9.024  19.260  0.00  0.00    +0.000 A 
ATOM     13  C   UNL     1       1.899   8.653  18.043  0.00  0.00    +0.000 A 
ATOM     14  C   UNL     1       2.626   7.456  17.900  0.00  0.00    +0.000 A 
ATOM     15  C   UNL     1       2.842   6.629  19.006  0.00  0.00    +0.000 A 
ATOM     16  C   UNL     1       2.221   6.965  20.215  0.00  0.00    +0.000 A 
ATOM     17  C   UNL     1       1.472   8.137  20.342  0.00  0.00    +0.000 A 
BRANCH  15  18
ATOM     18  C   UNL     1       3.677   5.370  18.914  0.00  0.00    +0.000 C 
BRANCH  18  19
ATOM     19  N   UNL     1       3.187   4.235  19.713  0.00  0.00    +0.000 NA
ATOM     20  C   UNL     1       1.773   3.899  19.456  0.00  0.00    +0.000 C 
ATOM     21  C   UNL     1       1.499   3.185  18.119  0.00  0.00    +0.000 C 
ATOM     22  N   UNL     1       2.300   1.974  17.925  0.00  0.00    +0.000 NA
ATOM     23  C   UNL     1       3.715   2.178  18.253  0.00  0.00    +0.000 C 
ATOM     24  C   UNL     1       4.005   3.021  19.521  0.00  0.00    +0.000 C 
ATOM     25  H   UNL     1       2.215   1.662  16.958  0.00  0.00    +0.000 HD
ENDBRANCH  18  19
ENDBRANCH  15  18
ENDBRANCH   4  12
BRANCH   1  26
ATOM     26  O   UNL     1      -3.188  12.590  20.596  0.00  0.00    +0.000 OA
BRANCH  26  34
ATOM     27  C   UNL     1      -1.542  11.274  23.019  0.00  0.00    +0.000 C 
ATOM     28  C   UNL     1      -1.862  12.714  22.740  0.00  0.00    +0.000 A 
ATOM     29  C   UNL     1      -1.369  13.580  23.738  0.00  0.00    +0.000 A 
ATOM     30  C   UNL     1      -1.590  14.943  23.720  0.00  0.00    +0.000 A 
ATOM     31  C   UNL     1      -2.316  15.484  22.659  0.00  0.00    +0.000 A 
ATOM     32  C   UNL     1      -2.796  14.662  21.616  0.00  0.00    +0.000 A 
ATOM     33  C   UNL     1      -3.582  15.321  20.508  0.00  0.00    +0.000 C 
ATOM     34  C   UNL     1      -2.555  13.260  21.634  0.00  0.00    +0.000 A 
BRANCH  30  35
ATOM     35  C   UNL     1      -1.062  15.719  24.842  0.00  0.00    +0.000 C 
ATOM     36  C   UNL     1      -1.633  16.853  25.240  0.00  0.00    +0.000 C 
BRANCH  36  37
ATOM     37  C   UNL     1      -1.074  17.710  26.364  0.00  0.00    +0.000 C 
ATOM     38  N   UNL     1      -0.610  18.420  27.296  0.00  0.00    +0.000 NA
ENDBRANCH  36  37
ENDBRANCH  30  35
ENDBRANCH  26  34
ENDBRANCH   1  26
TORSDOF 7
ENDMDL
MODEL 7
REMARK VINA RESULT:      -7.9      4.507     10.446
REMARK  Name = 
REMARK  9 active torsions:
REMARK  status: ('A' for Active; 'I' for Inactive)
REMARK    1  A    between atoms: C_1  and  C_2
REMARK    2  A    between atoms: C_4  and  C_5
REMARK    3  A    between atoms: C_6  and  C_7
REMARK    4  A    between atoms: C_10  and  C_11
REMARK    5  A    between atoms: C_12  and  O_13
REMARK    6  A    between atoms: O_13  and  C_14
REMARK    7  A    between atoms: N_17  and  C_18
REMARK    8  A    between atoms: C_21  and  C_22
REMARK    9  A    between atoms: C_22  and  N_23
REMARK                            x       y       z     vdW  Elec       q    Type
REMARK                         _______ _______ _______ _____ _____    ______ ____
ROOT
ATOM      1  C   UNL     1      -2.553  12.372  19.627  0.00  0.00    +0.000 A 
ATOM      2  N   UNL     1      -1.297  11.936  19.798  0.00  0.00    +0.000 NA
ATOM      3  C   UNL     1      -0.828  10.888  19.111  0.00  0.00    +0.000 A 
ATOM      4  N   UNL     1       0.511  10.596  19.315  0.00  0.00    +0.000 N 
ATOM      5  N   UNL     1      -1.517  10.220  18.196  0.00  0.00    +0.000 NA
ATOM      6  C   UNL     1      -2.703  10.771  17.915  0.00  0.00    +0.000 A 
ATOM      7  S   UNL     1      -3.621  10.191  16.601  0.00  0.00    +0.000 S 
ATOM      8  C   UNL     1      -4.835  11.360  16.866  0.00  0.00    +0.000 A 
ATOM      9  C   UNL     1      -4.577  12.132  17.981  0.00  0.00    +0.000 A 
ATOM     10  C   UNL     1      -3.307  11.832  18.574  0.00  0.00    +0.000 A 
ATOM     11  H   UNL     1       1.013  11.410  19.627  0.00  0.00    +0.000 HD
ENDROOT
BRANCH   4  12
ATOM     12  C   UNL     1       1.189   9.381  19.393  0.00  0.00    +0.000 A 
ATOM     13  C   UNL     1       1.823   8.892  18.259  0.00  0.00    +0.000 A 
ATOM     14  C   UNL     1       2.524   7.672  18.275  0.00  0.00    +0.000 A 
ATOM     15  C   UNL     1       2.635   6.941  19.461  0.00  0.00    +0.000 A 
ATOM     16  C   UNL     1       1.935   7.395  20.586  0.00  0.00    +0.000 A 
ATOM     17  C   UNL     1       1.213   8.589  20.554  0.00  0.00    +0.000 A 
BRANCH  15  18
ATOM     18  C   UNL     1       3.438   5.661  19.542  0.00  0.00    +0.000 C 
BRANCH  18  19
ATOM     19  N   UNL     1       2.866   4.516  18.815  0.00  0.00    +0.000 NA
ATOM     20  C   UNL     1       3.557   3.240  19.085  0.00  0.00    +0.000 C 
ATOM     21  C   UNL     1       3.272   2.616  20.464  0.00  0.00    +0.000 C 
ATOM     22  N   UNL     1       1.845   2.430  20.739  0.00  0.00    +0.000 NA
ATOM     23  C   UNL     1       1.050   3.617  20.408  0.00  0.00    +0.000 C 
ATOM     24  C   UNL     1       1.426   4.341  19.090  0.00  0.00    +0.000 C 
ATOM     25  H   UNL     1       1.718   2.198  21.725  0.00  0.00    +0.000 HD
ENDBRANCH  18  19
ENDBRANCH  15  18
ENDBRANCH   4  12
BRANCH   1  26
ATOM     26  O   UNL     1      -3.103  13.301  20.507  0.00  0.00    +0.000 OA
BRANCH  26  34
ATOM     27  C   UNL     1      -2.633  11.911  23.364  0.00  0.00    +0.000 C 
ATOM     28  C   UNL     1      -2.227  13.271  22.874  0.00  0.00    +0.000 A 
ATOM     29  C   UNL     1      -1.569  14.028  23.865  0.00  0.00    +0.000 A 
ATOM     30  C   UNL     1      -1.153  15.328  23.658  0.00  0.00    +0.000 A 
ATOM     31  C   UNL     1      -1.379  15.908  22.410  0.00  0.00    +0.000 A 
ATOM     32  C   UNL     1      -1.999  15.176  21.374  0.00  0.00    +0.000 A 
ATOM     33  C   UNL     1      -2.218  15.876  20.055  0.00  0.00    +0.000 C 
ATOM     34  C   UNL     1      -2.416  13.833  21.588  0.00  0.00    +0.000 A 
BRANCH  30  35
ATOM     35  C   UNL     1      -0.524  16.014  24.787  0.00  0.00    +0.000 C 
ATOM     36  C   UNL     1      -0.903  15.788  26.043  0.00  0.00    +0.000 C 
BRANCH  36  37
ATOM     37  C   UNL     1      -0.308  16.526  27.231  0.00  0.00    +0.000 C 
ATOM     38  N   UNL     1       0.185  17.138  28.216  0.00  0.00    +0.000 NA
ENDBRANCH  36  37
ENDBRANCH  30  35
ENDBRANCH  26  34
ENDBRANCH   1  26
TORSDOF 7
ENDMDL
MODEL 8
REMARK VINA RESULT:      -7.9      4.218     11.158
REMARK  Name = 
REMARK  9 active torsions:
REMARK  status: ('A' for Active; 'I' for Inactive)
REMARK    1  A    between atoms: C_1  and  C_2
REMARK    2  A    between atoms: C_4  and  C_5
REMARK    3  A    between atoms: C_6  and  C_7
REMARK    4  A    between atoms: C_10  and  C_11
REMARK    5  A    between atoms: C_12  and  O_13
REMARK    6  A    between atoms: O_13  and  C_14
REMARK    7  A    between atoms: N_17  and  C_18
REMARK    8  A    between atoms: C_21  and  C_22
REMARK    9  A    between atoms: C_22  and  N_23
REMARK                            x       y       z     vdW  Elec       q    Type
REMARK                         _______ _______ _______ _____ _____    ______ ____
ROOT
ATOM      1  C   UNL     1      -3.474  12.687  20.387  0.00  0.00    +0.000 A 
ATOM      2  N   UNL     1      -2.196  12.316  20.536  0.00  0.00    +0.000 NA
ATOM      3  C   UNL     1      -1.619  11.462  19.682  0.00  0.00    +0.000 A 
ATOM      4  N   UNL     1      -0.269  11.230  19.896  0.00  0.00    +0.000 N 
ATOM      5  N   UNL     1      -2.216  10.944  18.618  0.00  0.00    +0.000 NA
ATOM      6  C   UNL     1      -3.431  11.456  18.388  0.00  0.00    +0.000 A 
ATOM      7  S   UNL     1      -4.249  11.088  16.938  0.00  0.00    +0.000 S 
ATOM      8  C   UNL     1      -5.562  12.092  17.363  0.00  0.00    +0.000 A 
ATOM      9  C   UNL     1      -5.408  12.641  18.621  0.00  0.00    +0.000 A 
ATOM     10  C   UNL     1      -4.142  12.318  19.210  0.00  0.00    +0.000 A 
ATOM     11  H   UNL     1       0.154  11.998  20.388  0.00  0.00    +0.000 HD
ENDROOT
BRANCH   4  12
ATOM     12  C   UNL     1       0.499  10.075  19.769  0.00  0.00    +0.000 A 
ATOM     13  C   UNL     1       0.646   9.241  20.869  0.00  0.00    +0.000 A 
ATOM     14  C   UNL     1       1.409   8.060  20.803  0.00  0.00    +0.000 A 
ATOM     15  C   UNL     1       2.005   7.676  19.598  0.00  0.00    +0.000 A 
ATOM     16  C   UNL     1       1.920   8.552  18.508  0.00  0.00    +0.000 A 
ATOM     17  C   UNL     1       1.189   9.739  18.591  0.00  0.00    +0.000 A 
BRANCH  15  18
ATOM     18  C   UNL     1       2.775   6.380  19.462  0.00  0.00    +0.000 C 
BRANCH  18  19
ATOM     19  N   UNL     1       3.050   5.958  18.079  0.00  0.00    +0.000 NA
ATOM     20  C   UNL     1       4.486   5.965  17.734  0.00  0.00    +0.000 C 
ATOM     21  C   UNL     1       5.313   4.815  18.340  0.00  0.00    +0.000 C 
ATOM     22  N   UNL     1       4.777   3.485  18.040  0.00  0.00    +0.000 NA
ATOM     23  C   UNL     1       3.328   3.402  18.255  0.00  0.00    +0.000 C 
ATOM     24  C   UNL     1       2.498   4.622  17.780  0.00  0.00    +0.000 C 
ATOM     25  H   UNL     1       5.249   2.791  18.619  0.00  0.00    +0.000 HD
ENDBRANCH  18  19
ENDBRANCH  15  18
ENDBRANCH   4  12
BRANCH   1  26
ATOM     26  O   UNL     1      -4.130  13.380  21.402  0.00  0.00    +0.000 OA
BRANCH  26  34
ATOM     27  C   UNL     1      -2.297  15.965  20.882  0.00  0.00    +0.000 C 
ATOM     28  C   UNL     1      -2.623  15.255  22.165  0.00  0.00    +0.000 A 
ATOM     29  C   UNL     1      -1.979  15.831  23.279  0.00  0.00    +0.000 A 
ATOM     30  C   UNL     1      -2.088  15.313  24.555  0.00  0.00    +0.000 A 
ATOM     31  C   UNL     1      -2.884  14.184  24.748  0.00  0.00    +0.000 A 
ATOM     32  C   UNL     1      -3.580  13.597  23.669  0.00  0.00    +0.000 A 
ATOM     33  C   UNL     1      -4.413  12.371  23.957  0.00  0.00    +0.000 C 
ATOM     34  C   UNL     1      -3.474  14.141  22.359  0.00  0.00    +0.000 A 
BRANCH  30  35
ATOM     35  C   UNL     1      -1.329  15.982  25.612  0.00  0.00    +0.000 C 
ATOM     36  C   UNL     1      -1.504  17.270  25.892  0.00  0.00    +0.000 C 
BRANCH  36  37
ATOM     37  C   UNL     1      -0.690  18.006  26.944  0.00  0.00    +0.000 C 
ATOM     38  N   UNL     1      -0.015  18.615  27.817  0.00  0.00    +0.000 NA
ENDBRANCH  36  37
ENDBRANCH  30  35
ENDBRANCH  26  34
ENDBRANCH   1  26
TORSDOF 7
ENDMDL
MODEL 9
REMARK VINA RESULT:      -7.7      4.422     10.324
REMARK  Name = 
REMARK  9 active torsions:
REMARK  status: ('A' for Active; 'I' for Inactive)
REMARK    1  A    between atoms: C_1  and  C_2
REMARK    2  A    between atoms: C_4  and  C_5
REMARK    3  A    between atoms: C_6  and  C_7
REMARK    4  A    between atoms: C_10  and  C_11
REMARK    5  A    between atoms: C_12  and  O_13
REMARK    6  A    between atoms: O_13  and  C_14
REMARK    7  A    between atoms: N_17  and  C_18
REMARK    8  A    between atoms: C_21  and  C_22
REMARK    9  A    between atoms: C_22  and  N_23
REMARK                            x       y       z     vdW  Elec       q    Type
REMARK                         _______ _______ _______ _____ _____    ______ ____
ROOT
ATOM      1  C   UNL     1      -2.494  11.984  18.905  0.00  0.00    +0.000 A 
ATOM      2  N   UNL     1      -1.245  11.604  19.203  0.00  0.00    +0.000 NA
ATOM      3  C   UNL     1      -0.638  10.624  18.523  0.00  0.00    +0.000 A 
ATOM      4  N   UNL     1       0.683  10.389  18.872  0.00  0.00    +0.000 N 
ATOM      5  N   UNL     1      -1.174   9.977  17.498  0.00  0.00    +0.000 NA
ATOM      6  C   UNL     1      -2.349  10.483  17.105  0.00  0.00    +0.000 A 
ATOM      7  S   UNL     1      -3.070   9.936  15.660  0.00  0.00    +0.000 S 
ATOM      8  C   UNL     1      -4.373  11.024  15.838  0.00  0.00    +0.000 A 
ATOM      9  C   UNL     1      -4.293  11.740  17.016  0.00  0.00    +0.000 A 
ATOM     10  C   UNL     1      -3.086  11.470  17.742  0.00  0.00    +0.000 A 
ATOM     11  H   UNL     1       1.097  11.208  19.285  0.00  0.00    +0.000 HD
ENDROOT
BRANCH   4  12
ATOM     12  C   UNL     1       1.416   9.208  18.967  0.00  0.00    +0.000 A 
ATOM     13  C   UNL     1       1.402   8.503  20.163  0.00  0.00    +0.000 A 
ATOM     14  C   UNL     1       2.122   7.304  20.319  0.00  0.00    +0.000 A 
ATOM     15  C   UNL     1       2.838   6.769  19.244  0.00  0.00    +0.000 A 
ATOM     16  C   UNL     1       2.912   7.515  18.061  0.00  0.00    +0.000 A 
ATOM     17  C   UNL     1       2.224   8.722  17.924  0.00  0.00    +0.000 A 
BRANCH  15  18
ATOM     18  C   UNL     1       3.567   5.447  19.345  0.00  0.00    +0.000 C 
BRANCH  18  19
ATOM     19  N   UNL     1       2.896   4.310  18.694  0.00  0.00    +0.000 NA
ATOM     20  C   UNL     1       3.494   3.002  19.026  0.00  0.00    +0.000 C 
ATOM     21  C   UNL     1       3.189   2.480  20.443  0.00  0.00    +0.000 C 
ATOM     22  N   UNL     1       1.759   2.420  20.750  0.00  0.00    +0.000 NA
ATOM     23  C   UNL     1       1.049   3.644  20.363  0.00  0.00    +0.000 C 
ATOM     24  C   UNL     1       1.453   4.262  19.000  0.00  0.00    +0.000 C 
ATOM     25  H   UNL     1       1.633   2.254  21.749  0.00  0.00    +0.000 HD
ENDBRANCH  18  19
ENDBRANCH  15  18
ENDBRANCH   4  12
BRANCH   1  26
ATOM     26  O   UNL     1      -3.197  12.830  19.760  0.00  0.00    +0.000 OA
BRANCH  26  34
ATOM     27  C   UNL     1      -0.566  14.663  19.598  0.00  0.00    +0.000 C 
ATOM     28  C   UNL     1      -1.425  14.310  20.778  0.00  0.00    +0.000 A 
ATOM     29  C   UNL     1      -0.945  14.868  21.981  0.00  0.00    +0.000 A 
ATOM     30  C   UNL     1      -1.543  14.633  23.204  0.00  0.00    +0.000 A 
ATOM     31  C   UNL     1      -2.679  13.825  23.243  0.00  0.00    +0.000 A 
ATOM     32  C   UNL     1      -3.220  13.277  22.060  0.00  0.00    +0.000 A 
ATOM     33  C   UNL     1      -4.445  12.405  22.186  0.00  0.00    +0.000 C 
ATOM     34  C   UNL     1      -2.606  13.531  20.801  0.00  0.00    +0.000 A 
BRANCH  30  35
ATOM     35  C   UNL     1      -0.914  15.236  24.379  0.00  0.00    +0.000 C 
ATOM     36  C   UNL     1      -1.617  15.931  25.270  0.00  0.00    +0.000 C 
BRANCH  36  37
ATOM     37  C   UNL     1      -0.984  16.618  26.469  0.00  0.00    +0.000 C 
ATOM     38  N   UNL     1      -0.459  17.186  27.463  0.00  0.00    +0.000 NA
ENDBRANCH  36  37
ENDBRANCH  30  35
ENDBRANCH  26  34
ENDBRANCH   1  26
TORSDOF 7
ENDMDL
