MODEL 1
REMARK VINA RESULT:      -8.4      0.000      0.000
REMARK  Name = 
REMARK  4 active torsions:
REMARK  status: ('A' for Active; 'I' for Inactive)
REMARK    1  A    between atoms: C_2  and  C_15
REMARK    2  A    between atoms: N_3  and  C_4
REMARK    3  A    between atoms: C_4  and  C_5
REMARK    4  A    between atoms: C_19  and  C_21
REMARK                            x       y       z     vdW  Elec       q    Type
REMARK                         _______ _______ _______ _____ _____    ______ ____
ROOT
ATOM      1  O   UNL     1       6.501   7.073  16.381  0.00  0.00    +0.000 OA
ATOM      2  C   UNL     1       7.144   6.873  17.404  0.00  0.00    +0.000 C 
ATOM      3  N   UNL     1       7.945   7.830  17.985  0.00  0.00    +0.000 N 
ATOM      4  H   UNL     1       8.444   7.615  18.838  0.00  0.00    +0.000 HD
ENDROOT
BRANCH   2   5
ATOM      5  C   UNL     1       7.136   5.545  18.162  0.00  0.00    +0.000 C 
ATOM      6  C   UNL     1       6.825   4.371  17.220  0.00  0.00    +0.000 C 
ATOM      7  C   UNL     1       5.346   4.335  16.837  0.00  0.00    +0.000 C 
ATOM      8  N   UNL     1       4.512   4.307  18.035  0.00  0.00    +0.000 N 
ATOM      9  C   UNL     1       3.823   3.125  18.356  0.00  0.00    +0.000 C 
ATOM     10  O   UNL     1       3.990   2.106  17.681  0.00  0.00    +0.000 OA
ATOM     11  C   UNL     1       4.701   5.453  18.923  0.00  0.00    +0.000 C 
ATOM     12  C   UNL     1       6.165   5.565  19.350  0.00  0.00    +0.000 C 
BRANCH   9  13
ATOM     13  C   UNL     1       2.936   3.109  19.507  0.00  0.00    +0.000 A 
ATOM     14  C   UNL     1       1.622   3.527  19.623  0.00  0.00    +0.000 A 
ATOM     15  C   UNL     1       1.223   3.274  20.958  0.00  0.00    +0.000 A 
ATOM     16  C   UNL     1       2.330   2.768  21.594  0.00  0.00    +0.000 A 
ATOM     17  O   UNL     1       3.379   2.700  20.737  0.00  0.00    +0.000 OA
ENDBRANCH   9  13
ENDBRANCH   2   5
BRANCH   3  18
ATOM     18  C   UNL     1       8.159   9.148  17.410  0.00  0.00    +0.000 C 
BRANCH  18  19
ATOM     19  C   UNL     1       8.341  10.221  18.490  0.00  0.00    +0.000 C 
ATOM     20  C   UNL     1       9.363   9.754  19.523  0.00  0.00    +0.000 C 
ATOM     21  O   UNL     1       9.479  10.700  20.591  0.00  0.00    +0.000 OA
ATOM     22  C   UNL     1       9.545  11.987  20.123  0.00  0.00    +0.000 A 
ATOM     23  C   UNL     1       9.934  12.962  21.038  0.00  0.00    +0.000 A 
ATOM     24  C   UNL     1      10.032  14.294  20.634  0.00  0.00    +0.000 A 
ATOM     25  C   UNL     1       9.744  14.646  19.313  0.00  0.00    +0.000 A 
ATOM     26  C   UNL     1       9.348  13.669  18.395  0.00  0.00    +0.000 A 
ATOM     27  C   UNL     1       9.232  12.343  18.804  0.00  0.00    +0.000 A 
ATOM     28  O   UNL     1       8.813  11.433  17.864  0.00  0.00    +0.000 OA
ENDBRANCH  18  19
ENDBRANCH   3  18
TORSDOF 4
ENDMDL
MODEL 2
REMARK VINA RESULT:      -8.1      4.941      7.299
REMARK  Name = 
REMARK  4 active torsions:
REMARK  status: ('A' for Active; 'I' for Inactive)
REMARK    1  A    between atoms: C_2  and  C_15
REMARK    2  A    between atoms: N_3  and  C_4
REMARK    3  A    between atoms: C_4  and  C_5
REMARK    4  A    between atoms: C_19  and  C_21
REMARK                            x       y       z     vdW  Elec       q    Type
REMARK                         _______ _______ _______ _____ _____    ______ ____
ROOT
ATOM      1  O   UNL     1       1.979   3.984  19.014  0.00  0.00    +0.000 OA
ATOM      2  C   UNL     1       3.020   4.518  19.379  0.00  0.00    +0.000 C 
ATOM      3  N   UNL     1       3.048   5.641  20.174  0.00  0.00    +0.000 N 
ATOM      4  H   UNL     1       3.937   6.032  20.457  0.00  0.00    +0.000 HD
ENDROOT
BRANCH   2   5
ATOM      5  C   UNL     1       4.410   4.005  19.002  0.00  0.00    +0.000 C 
ATOM      6  C   UNL     1       5.461   5.122  19.109  0.00  0.00    +0.000 C 
ATOM      7  C   UNL     1       5.345   6.114  17.951  0.00  0.00    +0.000 C 
ATOM      8  N   UNL     1       5.426   5.413  16.673  0.00  0.00    +0.000 N 
ATOM      9  C   UNL     1       6.577   5.569  15.883  0.00  0.00    +0.000 C 
ATOM     10  O   UNL     1       7.536   6.222  16.304  0.00  0.00    +0.000 OA
ATOM     11  C   UNL     1       4.389   4.400  16.480  0.00  0.00    +0.000 C 
ATOM     12  C   UNL     1       4.431   3.367  17.607  0.00  0.00    +0.000 C 
BRANCH   9  13
ATOM     13  C   UNL     1       6.636   4.931  14.578  0.00  0.00    +0.000 A 
ATOM     14  C   UNL     1       5.962   3.820  14.100  0.00  0.00    +0.000 A 
ATOM     15  C   UNL     1       6.372   3.634  12.758  0.00  0.00    +0.000 A 
ATOM     16  C   UNL     1       7.310   4.607  12.510  0.00  0.00    +0.000 A 
ATOM     17  O   UNL     1       7.503   5.370  13.614  0.00  0.00    +0.000 OA
ENDBRANCH   9  13
ENDBRANCH   2   5
BRANCH   3  18
ATOM     18  C   UNL     1       1.850   6.343  20.606  0.00  0.00    +0.000 C 
BRANCH  18  19
ATOM     19  C   UNL     1       1.895   7.831  20.237  0.00  0.00    +0.000 C 
ATOM     20  C   UNL     1       1.945   7.992  18.720  0.00  0.00    +0.000 C 
ATOM     21  O   UNL     1       2.081   9.370  18.357  0.00  0.00    +0.000 OA
ATOM     22  C   UNL     1       1.242  10.172  19.086  0.00  0.00    +0.000 A 
ATOM     23  C   UNL     1       1.086  11.480  18.635  0.00  0.00    +0.000 A 
ATOM     24  C   UNL     1       0.240  12.354  19.319  0.00  0.00    +0.000 A 
ATOM     25  C   UNL     1      -0.450  11.915  20.451  0.00  0.00    +0.000 A 
ATOM     26  C   UNL     1      -0.289  10.605  20.909  0.00  0.00    +0.000 A 
ATOM     27  C   UNL     1       0.569   9.738  20.235  0.00  0.00    +0.000 A 
ATOM     28  O   UNL     1       0.706   8.471  20.748  0.00  0.00    +0.000 OA
ENDBRANCH  18  19
ENDBRANCH   3  18
TORSDOF 4
ENDMDL
MODEL 3
REMARK VINA RESULT:      -7.9      5.780      8.513
REMARK  Name = 
REMARK  4 active torsions:
REMARK  status: ('A' for Active; 'I' for Inactive)
REMARK    1  A    between atoms: C_2  and  C_15
REMARK    2  A    between atoms: N_3  and  C_4
REMARK    3  A    between atoms: C_4  and  C_5
REMARK    4  A    between atoms: C_19  and  C_21
REMARK                            x       y       z     vdW  Elec       q    Type
REMARK                         _______ _______ _______ _____ _____    ______ ____
ROOT
ATOM      1  O   UNL     1       2.154   7.786  20.688  0.00  0.00    +0.000 OA
ATOM      2  C   UNL     1       2.139   7.461  19.507  0.00  0.00    +0.000 C 
ATOM      3  N   UNL     1       1.901   8.353  18.486  0.00  0.00    +0.000 N 
ATOM      4  H   UNL     1       1.914   8.033  17.527  0.00  0.00    +0.000 HD
ENDROOT
BRANCH   2   5
ATOM      5  C   UNL     1       2.384   6.033  19.020  0.00  0.00    +0.000 C 
ATOM      6  C   UNL     1       3.487   5.347  19.843  0.00  0.00    +0.000 C 
ATOM      7  C   UNL     1       4.873   5.874  19.472  0.00  0.00    +0.000 C 
ATOM      8  N   UNL     1       5.101   5.736  18.037  0.00  0.00    +0.000 N 
ATOM      9  C   UNL     1       6.021   4.775  17.583  0.00  0.00    +0.000 C 
ATOM     10  O   UNL     1       6.562   4.007  18.383  0.00  0.00    +0.000 OA
ATOM     11  C   UNL     1       4.131   6.448  17.205  0.00  0.00    +0.000 C 
ATOM     12  C   UNL     1       2.710   5.982  17.521  0.00  0.00    +0.000 C 
BRANCH   9  13
ATOM     13  C   UNL     1       6.306   4.679  16.161  0.00  0.00    +0.000 A 
ATOM     14  C   UNL     1       5.813   3.798  15.213  0.00  0.00    +0.000 A 
ATOM     15  C   UNL     1       6.403   4.151  13.975  0.00  0.00    +0.000 A 
ATOM     16  C   UNL     1       7.261   5.189  14.247  0.00  0.00    +0.000 A 
ATOM     17  O   UNL     1       7.237   5.489  15.569  0.00  0.00    +0.000 OA
ENDBRANCH   9  13
ENDBRANCH   2   5
BRANCH   3  18
ATOM     18  C   UNL     1       1.581   9.754  18.710  0.00  0.00    +0.000 C 
BRANCH  18  19
ATOM     19  C   UNL     1       0.067   9.992  18.769  0.00  0.00    +0.000 C 
ATOM     20  C   UNL     1      -0.224  11.358  19.384  0.00  0.00    +0.000 C 
ATOM     21  O   UNL     1      -1.633  11.561  19.533  0.00  0.00    +0.000 OA
ATOM     22  C   UNL     1      -2.323  11.173  18.415  0.00  0.00    +0.000 A 
ATOM     23  C   UNL     1      -3.654  11.575  18.335  0.00  0.00    +0.000 A 
ATOM     24  C   UNL     1      -4.419  11.226  17.222  0.00  0.00    +0.000 A 
ATOM     25  C   UNL     1      -3.849  10.478  16.189  0.00  0.00    +0.000 A 
ATOM     26  C   UNL     1      -2.515  10.069  16.270  0.00  0.00    +0.000 A 
ATOM     27  C   UNL     1      -1.757  10.403  17.390  0.00  0.00    +0.000 A 
ATOM     28  O   UNL     1      -0.461   9.949  17.425  0.00  0.00    +0.000 OA
ENDBRANCH  18  19
ENDBRANCH   3  18
TORSDOF 4
ENDMDL
MODEL 4
REMARK VINA RESULT:      -7.7      0.907      1.233
REMARK  Name = 
REMARK  4 active torsions:
REMARK  status: ('A' for Active; 'I' for Inactive)
REMARK    1  A    between atoms: C_2  and  C_15
REMARK    2  A    between atoms: N_3  and  C_4
REMARK    3  A    between atoms: C_4  and  C_5
REMARK    4  A    between atoms: C_19  and  C_21
REMARK                            x       y       z     vdW  Elec       q    Type
REMARK                         _______ _______ _______ _____ _____    ______ ____
ROOT
ATOM      1  O   UNL     1       6.849   7.078  16.470  0.00  0.00    +0.000 OA
ATOM      2  C   UNL     1       7.380   6.910  17.562  0.00  0.00    +0.000 C 
ATOM      3  N   UNL     1       8.075   7.900  18.217  0.00  0.00    +0.000 N 
ATOM      4  H   UNL     1       8.483   7.711  19.124  0.00  0.00    +0.000 HD
ENDROOT
BRANCH   2   5
ATOM      5  C   UNL     1       7.334   5.589  18.330  0.00  0.00    +0.000 C 
ATOM      6  C   UNL     1       7.079   4.405  17.383  0.00  0.00    +0.000 C 
ATOM      7  C   UNL     1       5.623   4.362  16.920  0.00  0.00    +0.000 C 
ATOM      8  N   UNL     1       4.724   4.341  18.070  0.00  0.00    +0.000 N 
ATOM      9  C   UNL     1       4.022   3.160  18.364  0.00  0.00    +0.000 C 
ATOM     10  O   UNL     1       4.228   2.135  17.708  0.00  0.00    +0.000 OA
ATOM     11  C   UNL     1       4.862   5.496  18.957  0.00  0.00    +0.000 C 
ATOM     12  C   UNL     1       6.299   5.616  19.463  0.00  0.00    +0.000 C 
BRANCH   9  13
ATOM     13  C   UNL     1       3.074   3.152  19.465  0.00  0.00    +0.000 A 
ATOM     14  C   UNL     1       1.764   3.596  19.514  0.00  0.00    +0.000 A 
ATOM     15  C   UNL     1       1.288   3.338  20.822  0.00  0.00    +0.000 A 
ATOM     16  C   UNL     1       2.347   2.802  21.512  0.00  0.00    +0.000 A 
ATOM     17  O   UNL     1       3.440   2.720  20.712  0.00  0.00    +0.000 OA
ENDBRANCH   9  13
ENDBRANCH   2   5
BRANCH   3  18
ATOM     18  C   UNL     1       8.306   9.221  17.654  0.00  0.00    +0.000 C 
BRANCH  18  19
ATOM     19  C   UNL     1       9.208  10.076  18.551  0.00  0.00    +0.000 C 
ATOM     20  C   UNL     1      10.113  10.958  17.695  0.00  0.00    +0.000 C 
ATOM     21  O   UNL     1      11.028  11.696  18.511  0.00  0.00    +0.000 OA
ATOM     22  C   UNL     1      10.406  12.242  19.604  0.00  0.00    +0.000 A 
ATOM     23  C   UNL     1      11.125  13.200  20.315  0.00  0.00    +0.000 A 
ATOM     24  C   UNL     1      10.555  13.808  21.434  0.00  0.00    +0.000 A 
ATOM     25  C   UNL     1       9.264  13.457  21.837  0.00  0.00    +0.000 A 
ATOM     26  C   UNL     1       8.544  12.490  21.129  0.00  0.00    +0.000 A 
ATOM     27  C   UNL     1       9.121  11.871  20.023  0.00  0.00    +0.000 A 
ATOM     28  O   UNL     1       8.375  10.911  19.384  0.00  0.00    +0.000 OA
ENDBRANCH  18  19
ENDBRANCH   3  18
TORSDOF 4
ENDMDL
MODEL 5
REMARK VINA RESULT:      -7.5      5.505      7.810
REMARK  Name = 
REMARK  4 active torsions:
REMARK  status: ('A' for Active; 'I' for Inactive)
REMARK    1  A    between atoms: C_2  and  C_15
REMARK    2  A    between atoms: N_3  and  C_4
REMARK    3  A    between atoms: C_4  and  C_5
REMARK    4  A    between atoms: C_19  and  C_21
REMARK                            x       y       z     vdW  Elec       q    Type
REMARK                         _______ _______ _______ _____ _____    ______ ____
ROOT
ATOM      1  O   UNL     1       3.652   3.375  19.784  0.00  0.00    +0.000 OA
ATOM      2  C   UNL     1       3.157   4.034  18.878  0.00  0.00    +0.000 C 
ATOM      3  N   UNL     1       3.800   4.271  17.685  0.00  0.00    +0.000 N 
ATOM      4  H   UNL     1       3.338   4.812  16.965  0.00  0.00    +0.000 HD
ENDROOT
BRANCH   2   5
ATOM      5  C   UNL     1       1.768   4.669  18.956  0.00  0.00    +0.000 C 
ATOM      6  C   UNL     1       1.658   5.878  18.014  0.00  0.00    +0.000 C 
ATOM      7  C   UNL     1       2.411   7.090  18.564  0.00  0.00    +0.000 C 
ATOM      8  N   UNL     1       1.946   7.407  19.911  0.00  0.00    +0.000 N 
ATOM      9  C   UNL     1       1.179   8.567  20.110  0.00  0.00    +0.000 C 
ATOM     10  O   UNL     1       0.836   9.258  19.147  0.00  0.00    +0.000 OA
ATOM     11  C   UNL     1       2.115   6.319  20.873  0.00  0.00    +0.000 C 
ATOM     12  C   UNL     1       1.393   5.060  20.392  0.00  0.00    +0.000 C 
BRANCH   9  13
ATOM     13  C   UNL     1       0.772   8.928  21.458  0.00  0.00    +0.000 A 
ATOM     14  C   UNL     1      -0.495   9.091  21.990  0.00  0.00    +0.000 A 
ATOM     15  C   UNL     1      -0.330   9.426  23.356  0.00  0.00    +0.000 A 
ATOM     16  C   UNL     1       1.026   9.502  23.566  0.00  0.00    +0.000 A 
ATOM     17  O   UNL     1       1.698   9.240  22.418  0.00  0.00    +0.000 OA
ENDBRANCH   9  13
ENDBRANCH   2   5
BRANCH   3  18
ATOM     18  C   UNL     1       5.154   3.821  17.404  0.00  0.00    +0.000 C 
BRANCH  18  19
ATOM     19  C   UNL     1       5.725   4.477  16.142  0.00  0.00    +0.000 C 
ATOM     20  C   UNL     1       7.189   4.850  16.362  0.00  0.00    +0.000 C 
ATOM     21  O   UNL     1       7.714   5.547  15.228  0.00  0.00    +0.000 OA
ATOM     22  C   UNL     1       7.348   4.950  14.050  0.00  0.00    +0.000 A 
ATOM     23  C   UNL     1       8.020   5.371  12.904  0.00  0.00    +0.000 A 
ATOM     24  C   UNL     1       7.708   4.802  11.669  0.00  0.00    +0.000 A 
ATOM     25  C   UNL     1       6.728   3.811  11.583  0.00  0.00    +0.000 A 
ATOM     26  C   UNL     1       6.049   3.393  12.731  0.00  0.00    +0.000 A 
ATOM     27  C   UNL     1       6.347   3.973  13.961  0.00  0.00    +0.000 A 
ATOM     28  O   UNL     1       5.628   3.539  15.048  0.00  0.00    +0.000 OA
ENDBRANCH  18  19
ENDBRANCH   3  18
TORSDOF 4
ENDMDL
MODEL 6
REMARK VINA RESULT:      -7.5      5.138      7.105
REMARK  Name = 
REMARK  4 active torsions:
REMARK  status: ('A' for Active; 'I' for Inactive)
REMARK    1  A    between atoms: C_2  and  C_15
REMARK    2  A    between atoms: N_3  and  C_4
REMARK    3  A    between atoms: C_4  and  C_5
REMARK    4  A    between atoms: C_19  and  C_21
REMARK                            x       y       z     vdW  Elec       q    Type
REMARK                         _______ _______ _______ _____ _____    ______ ____
ROOT
ATOM      1  O   UNL     1       1.237   3.579  19.036  0.00  0.00    +0.000 OA
ATOM      2  C   UNL     1       2.410   3.789  19.317  0.00  0.00    +0.000 C 
ATOM      3  N   UNL     1       2.812   4.815  20.141  0.00  0.00    +0.000 N 
ATOM      4  H   UNL     1       3.794   4.935  20.351  0.00  0.00    +0.000 HD
ENDROOT
BRANCH   2   5
ATOM      5  C   UNL     1       3.570   2.941  18.794  0.00  0.00    +0.000 C 
ATOM      6  C   UNL     1       4.913   3.424  19.367  0.00  0.00    +0.000 C 
ATOM      7  C   UNL     1       5.367   4.727  18.709  0.00  0.00    +0.000 C 
ATOM      8  N   UNL     1       5.421   4.571  17.259  0.00  0.00    +0.000 N 
ATOM      9  C   UNL     1       6.674   4.532  16.624  0.00  0.00    +0.000 C 
ATOM     10  O   UNL     1       7.710   4.546  17.294  0.00  0.00    +0.000 OA
ATOM     11  C   UNL     1       4.143   4.202  16.649  0.00  0.00    +0.000 C 
ATOM     12  C   UNL     1       3.612   2.905  17.260  0.00  0.00    +0.000 C 
BRANCH   9  13
ATOM     13  C   UNL     1       6.734   4.448  15.174  0.00  0.00    +0.000 A 
ATOM     14  C   UNL     1       7.317   5.306  14.257  0.00  0.00    +0.000 A 
ATOM     15  C   UNL     1       7.102   4.747  12.974  0.00  0.00    +0.000 A 
ATOM     16  C   UNL     1       6.356   3.612  13.175  0.00  0.00    +0.000 A 
ATOM     17  O   UNL     1       6.097   3.443  14.496  0.00  0.00    +0.000 OA
ENDBRANCH   9  13
ENDBRANCH   2   5
BRANCH   3  18
ATOM     18  C   UNL     1       1.893   5.790  20.707  0.00  0.00    +0.000 C 
BRANCH  18  19
ATOM     19  C   UNL     1       2.146   7.200  20.160  0.00  0.00    +0.000 C 
ATOM     20  C   UNL     1       2.168   7.172  18.634  0.00  0.00    +0.000 C 
ATOM     21  O   UNL     1       2.495   8.461  18.104  0.00  0.00    +0.000 OA
ATOM     22  C   UNL     1       1.809   9.461  18.743  0.00  0.00    +0.000 A 
ATOM     23  C   UNL     1       1.834  10.716  18.139  0.00  0.00    +0.000 A 
ATOM     24  C   UNL     1       1.152  11.782  18.725  0.00  0.00    +0.000 A 
ATOM     25  C   UNL     1       0.443  11.589  19.914  0.00  0.00    +0.000 A 
ATOM     26  C   UNL     1       0.423  10.332  20.524  0.00  0.00    +0.000 A 
ATOM     27  C   UNL     1       1.119   9.272  19.948  0.00  0.00    +0.000 A 
ATOM     28  O   UNL     1       1.084   8.069  20.608  0.00  0.00    +0.000 OA
ENDBRANCH  18  19
ENDBRANCH   3  18
TORSDOF 4
ENDMDL
MODEL 7
REMARK VINA RESULT:      -7.4      7.366     10.397
REMARK  Name = 
REMARK  4 active torsions:
REMARK  status: ('A' for Active; 'I' for Inactive)
REMARK    1  A    between atoms: C_2  and  C_15
REMARK    2  A    between atoms: N_3  and  C_4
REMARK    3  A    between atoms: C_4  and  C_5
REMARK    4  A    between atoms: C_19  and  C_21
REMARK                            x       y       z     vdW  Elec       q    Type
REMARK                         _______ _______ _______ _____ _____    ______ ____
ROOT
ATOM      1  O   UNL     1       0.006   9.770  17.780  0.00  0.00    +0.000 OA
ATOM      2  C   UNL     1       0.978  10.094  18.452  0.00  0.00    +0.000 C 
ATOM      3  N   UNL     1       2.157   9.385  18.457  0.00  0.00    +0.000 N 
ATOM      4  H   UNL     1       2.933   9.706  19.022  0.00  0.00    +0.000 HD
ENDROOT
BRANCH   2   5
ATOM      5  C   UNL     1       1.004  11.322  19.363  0.00  0.00    +0.000 C 
ATOM      6  C   UNL     1       1.191  10.918  20.834  0.00  0.00    +0.000 C 
ATOM      7  C   UNL     1      -0.089  10.323  21.419  0.00  0.00    +0.000 C 
ATOM      8  N   UNL     1      -1.204  11.249  21.248  0.00  0.00    +0.000 N 
ATOM      9  C   UNL     1      -1.725  11.904  22.377  0.00  0.00    +0.000 C 
ATOM     10  O   UNL     1      -1.191  11.758  23.480  0.00  0.00    +0.000 OA
ATOM     11  C   UNL     1      -1.486  11.595  19.855  0.00  0.00    +0.000 C 
ATOM     12  C   UNL     1      -0.246  12.195  19.191  0.00  0.00    +0.000 C 
BRANCH   9  13
ATOM     13  C   UNL     1      -2.879  12.774  22.226  0.00  0.00    +0.000 A 
ATOM     14  C   UNL     1      -2.942  14.145  22.047  0.00  0.00    +0.000 A 
ATOM     15  C   UNL     1      -4.312  14.485  21.939  0.00  0.00    +0.000 A 
ATOM     16  C   UNL     1      -5.008  13.314  22.112  0.00  0.00    +0.000 A 
ATOM     17  O   UNL     1      -4.154  12.282  22.323  0.00  0.00    +0.000 OA
ENDBRANCH   9  13
ENDBRANCH   2   5
BRANCH   3  18
ATOM     18  C   UNL     1       2.346   8.147  17.719  0.00  0.00    +0.000 C 
BRANCH  18  19
ATOM     19  C   UNL     1       2.525   6.945  18.653  0.00  0.00    +0.000 C 
ATOM     20  C   UNL     1       1.860   7.224  19.998  0.00  0.00    +0.000 C 
ATOM     21  O   UNL     1       2.095   6.152  20.917  0.00  0.00    +0.000 OA
ATOM     22  C   UNL     1       1.916   4.929  20.326  0.00  0.00    +0.000 A 
ATOM     23  C   UNL     1       1.846   3.830  21.180  0.00  0.00    +0.000 A 
ATOM     24  C   UNL     1       1.655   2.553  20.653  0.00  0.00    +0.000 A 
ATOM     25  C   UNL     1       1.532   2.377  19.273  0.00  0.00    +0.000 A 
ATOM     26  C   UNL     1       1.609   3.478  18.415  0.00  0.00    +0.000 A 
ATOM     27  C   UNL     1       1.816   4.751  18.940  0.00  0.00    +0.000 A 
ATOM     28  O   UNL     1       1.909   5.789  18.045  0.00  0.00    +0.000 OA
ENDBRANCH  18  19
ENDBRANCH   3  18
TORSDOF 4
ENDMDL
MODEL 8
REMARK VINA RESULT:      -7.4      5.565      8.094
REMARK  Name = 
REMARK  4 active torsions:
REMARK  status: ('A' for Active; 'I' for Inactive)
REMARK    1  A    between atoms: C_2  and  C_15
REMARK    2  A    between atoms: N_3  and  C_4
REMARK    3  A    between atoms: C_4  and  C_5
REMARK    4  A    between atoms: C_19  and  C_21
REMARK                            x       y       z     vdW  Elec       q    Type
REMARK                         _______ _______ _______ _____ _____    ______ ____
ROOT
ATOM      1  O   UNL     1       2.546   8.442  18.758  0.00  0.00    +0.000 OA
ATOM      2  C   UNL     1       2.270   7.474  19.456  0.00  0.00    +0.000 C 
ATOM      3  N   UNL     1       1.705   7.586  20.705  0.00  0.00    +0.000 N 
ATOM      4  H   UNL     1       1.485   6.752  21.233  0.00  0.00    +0.000 HD
ENDROOT
BRANCH   2   5
ATOM      5  C   UNL     1       2.516   6.026  19.028  0.00  0.00    +0.000 C 
ATOM      6  C   UNL     1       3.654   5.392  19.844  0.00  0.00    +0.000 C 
ATOM      7  C   UNL     1       5.020   5.915  19.402  0.00  0.00    +0.000 C 
ATOM      8  N   UNL     1       5.201   5.711  17.967  0.00  0.00    +0.000 N 
ATOM      9  C   UNL     1       6.117   4.740  17.528  0.00  0.00    +0.000 C 
ATOM     10  O   UNL     1       6.694   4.017  18.345  0.00  0.00    +0.000 OA
ATOM     11  C   UNL     1       4.195   6.373  17.137  0.00  0.00    +0.000 C 
ATOM     12  C   UNL     1       2.791   5.908  17.523  0.00  0.00    +0.000 C 
BRANCH   9  13
ATOM     13  C   UNL     1       6.354   4.579  16.103  0.00  0.00    +0.000 A 
ATOM     14  C   UNL     1       5.826   3.661  15.212  0.00  0.00    +0.000 A 
ATOM     15  C   UNL     1       6.377   3.955  13.941  0.00  0.00    +0.000 A 
ATOM     16  C   UNL     1       7.248   4.998  14.138  0.00  0.00    +0.000 A 
ATOM     17  O   UNL     1       7.270   5.357  15.446  0.00  0.00    +0.000 OA
ENDBRANCH   9  13
ENDBRANCH   2   5
BRANCH   3  18
ATOM     18  C   UNL     1       1.438   8.863  21.348  0.00  0.00    +0.000 C 
BRANCH  18  19
ATOM     19  C   UNL     1       0.107   9.469  20.887  0.00  0.00    +0.000 C 
ATOM     20  C   UNL     1      -0.046  10.881  21.445  0.00  0.00    +0.000 C 
ATOM     21  O   UNL     1      -1.323  11.430  21.103  0.00  0.00    +0.000 OA
ATOM     22  C   UNL     1      -1.642  11.193  19.791  0.00  0.00    +0.000 A 
ATOM     23  C   UNL     1      -2.720  11.909  19.274  0.00  0.00    +0.000 A 
ATOM     24  C   UNL     1      -3.099  11.728  17.944  0.00  0.00    +0.000 A 
ATOM     25  C   UNL     1      -2.396  10.834  17.132  0.00  0.00    +0.000 A 
ATOM     26  C   UNL     1      -1.319  10.111  17.651  0.00  0.00    +0.000 A 
ATOM     27  C   UNL     1      -0.952  10.278  18.985  0.00  0.00    +0.000 A 
ATOM     28  O   UNL     1       0.097   9.520  19.444  0.00  0.00    +0.000 OA
ENDBRANCH  18  19
ENDBRANCH   3  18
TORSDOF 4
ENDMDL
MODEL 9
REMARK VINA RESULT:      -7.3      6.920     10.269
REMARK  Name = 
REMARK  4 active torsions:
REMARK  status: ('A' for Active; 'I' for Inactive)
REMARK    1  A    between atoms: C_2  and  C_15
REMARK    2  A    between atoms: N_3  and  C_4
REMARK    3  A    between atoms: C_4  and  C_5
REMARK    4  A    between atoms: C_19  and  C_21
REMARK                            x       y       z     vdW  Elec       q    Type
REMARK                         _______ _______ _______ _____ _____    ______ ____
ROOT
ATOM      1  O   UNL     1       1.686   8.856  20.030  0.00  0.00    +0.000 OA
ATOM      2  C   UNL     1       1.509   9.267  18.889  0.00  0.00    +0.000 C 
ATOM      3  N   UNL     1       2.225   8.807  17.807  0.00  0.00    +0.000 N 
ATOM      4  H   UNL     1       2.028   9.172  16.884  0.00  0.00    +0.000 HD
ENDROOT
BRANCH   2   5
ATOM      5  C   UNL     1       0.477  10.334  18.525  0.00  0.00    +0.000 C 
ATOM      6  C   UNL     1       1.046  11.748  18.727  0.00  0.00    +0.000 C 
ATOM      7  C   UNL     1       1.127  12.114  20.209  0.00  0.00    +0.000 C 
ATOM      8  N   UNL     1      -0.179  11.959  20.842  0.00  0.00    +0.000 N 
ATOM      9  C   UNL     1      -0.888  13.108  21.229  0.00  0.00    +0.000 C 
ATOM     10  O   UNL     1      -0.448  14.230  20.961  0.00  0.00    +0.000 OA
ATOM     11  C   UNL     1      -0.726  10.605  20.760  0.00  0.00    +0.000 C 
ATOM     12  C   UNL     1      -0.834  10.157  19.302  0.00  0.00    +0.000 C 
BRANCH   9  13
ATOM     13  C   UNL     1      -2.156  12.961  21.923  0.00  0.00    +0.000 A 
ATOM     14  C   UNL     1      -2.416  12.750  23.266  0.00  0.00    +0.000 A 
ATOM     15  C   UNL     1      -3.823  12.699  23.412  0.00  0.00    +0.000 A 
ATOM     16  C   UNL     1      -4.341  12.828  22.146  0.00  0.00    +0.000 A 
ATOM     17  O   UNL     1      -3.342  12.949  21.237  0.00  0.00    +0.000 OA
ENDBRANCH   9  13
ENDBRANCH   2   5
BRANCH   3  18
ATOM     18  C   UNL     1       3.303   7.837  17.917  0.00  0.00    +0.000 C 
BRANCH  18  19
ATOM     19  C   UNL     1       2.788   6.396  17.821  0.00  0.00    +0.000 C 
ATOM     20  C   UNL     1       3.906   5.471  17.349  0.00  0.00    +0.000 C 
ATOM     21  O   UNL     1       3.422   4.137  17.164  0.00  0.00    +0.000 OA
ATOM     22  C   UNL     1       2.621   3.739  18.203  0.00  0.00    +0.000 A 
ATOM     23  C   UNL     1       2.320   2.381  18.271  0.00  0.00    +0.000 A 
ATOM     24  C   UNL     1       1.518   1.898  19.305  0.00  0.00    +0.000 A 
ATOM     25  C   UNL     1       1.022   2.776  20.272  0.00  0.00    +0.000 A 
ATOM     26  C   UNL     1       1.318   4.140  20.202  0.00  0.00    +0.000 A 
ATOM     27  C   UNL     1       2.104   4.624  19.159  0.00  0.00    +0.000 A 
ATOM     28  O   UNL     1       2.338   5.977  19.128  0.00  0.00    +0.000 OA
ENDBRANCH  18  19
ENDBRANCH   3  18
TORSDOF 4
ENDMDL
