MODEL 1
REMARK VINA RESULT:      -8.2      0.000      0.000
REMARK  Name = 
REMARK  6 active torsions:
REMARK  status: ('A' for Active; 'I' for Inactive)
REMARK    1  A    between atoms: C_1  and  C_2
REMARK    2  A    between atoms: C_5  and  N_6
REMARK    3  A    between atoms: C_7  and  C_9
REMARK    4  A    between atoms: C_9  and  N_10
REMARK    5  A    between atoms: C_18  and  S_19
REMARK    6  A    between atoms: S_19  and  N_22
REMARK                            x       y       z     vdW  Elec       q    Type
REMARK                         _______ _______ _______ _____ _____    ______ ____
ROOT
ATOM      1  N   UNL     1       2.632   3.780  19.921  0.00  0.00    +0.000 N 
ATOM      2  C   UNL     1       1.790   2.700  20.106  0.00  0.00    +0.000 C 
ATOM      3  O   UNL     1       0.956   2.662  21.012  0.00  0.00    +0.000 OA
ATOM      4  C   UNL     1       1.891   1.585  19.072  0.00  0.00    +0.000 C 
ATOM      5  O   UNL     1       2.945   1.569  18.132  0.00  0.00    +0.000 OA
ATOM      6  C   UNL     1       3.456   2.802  17.844  0.00  0.00    +0.000 A 
ATOM      7  C   UNL     1       4.138   2.898  16.627  0.00  0.00    +0.000 A 
ATOM      8  C   UNL     1       4.692   4.113  16.229  0.00  0.00    +0.000 A 
ATOM      9  C   UNL     1       4.608   5.218  17.081  0.00  0.00    +0.000 A 
ATOM     10  C   UNL     1       4.007   5.096  18.338  0.00  0.00    +0.000 A 
ATOM     11  C   UNL     1       3.377   3.899  18.714  0.00  0.00    +0.000 A 
ENDROOT
BRANCH   9  12
ATOM     12  S   UNL     1       5.292   6.766  16.509  0.00  0.00    +0.000 S 
ATOM     13  O   UNL     1       4.973   6.831  15.099  0.00  0.00    +0.000 OA
ATOM     14  O   UNL     1       4.855   7.787  17.434  0.00  0.00    +0.000 OA
BRANCH  12  15
ATOM     15  N   UNL     1       6.972   6.597  16.669  0.00  0.00    +0.000 NA
ATOM     16  C   UNL     1       7.575   5.262  16.346  0.00  0.00    +0.000 C 
ATOM     17  C   UNL     1       7.585   4.321  17.558  0.00  0.00    +0.000 C 
ATOM     18  O   UNL     1       8.198   4.930  18.705  0.00  0.00    +0.000 OA
ATOM     19  C   UNL     1       7.531   6.152  19.057  0.00  0.00    +0.000 C 
ATOM     20  C   UNL     1       7.592   7.156  17.905  0.00  0.00    +0.000 C 
ENDBRANCH  12  15
ENDBRANCH   9  12
BRANCH   1  21
ATOM     21  C   UNL     1       2.677   4.809  20.956  0.00  0.00    +0.000 C 
BRANCH  21  23
ATOM     22  N   UNL     1       2.177   7.217  20.848  0.00  0.00    +0.000 N 
ATOM     23  C   UNL     1       1.663   5.933  20.772  0.00  0.00    +0.000 C 
ATOM     24  O   UNL     1       0.488   5.640  20.558  0.00  0.00    +0.000 OA
ATOM     25  H   UNL     1       3.168   7.307  21.062  0.00  0.00    +0.000 HD
BRANCH  22  30
ATOM     26  C   UNL     1      -1.152  11.882  20.572  0.00  0.00    +0.000 C 
ATOM     27  C   UNL     1      -0.237  10.697  20.640  0.00  0.00    +0.000 A 
ATOM     28  C   UNL     1       0.338  10.182  19.482  0.00  0.00    +0.000 A 
ATOM     29  C   UNL     1       1.159   9.054  19.544  0.00  0.00    +0.000 A 
ATOM     30  C   UNL     1       1.417   8.408  20.758  0.00  0.00    +0.000 A 
ATOM     31  C   UNL     1       0.883   8.952  21.928  0.00  0.00    +0.000 A 
ATOM     32  C   UNL     1       0.059  10.080  21.858  0.00  0.00    +0.000 A 
ATOM     33  F   UNL     1      -0.469  10.565  22.991  0.00  0.00    +0.000 F 
ENDBRANCH  22  30
ENDBRANCH  21  23
ENDBRANCH   1  21
TORSDOF 5
ENDMDL
MODEL 2
REMARK VINA RESULT:      -8.1      3.371      6.362
REMARK  Name = 
REMARK  6 active torsions:
REMARK  status: ('A' for Active; 'I' for Inactive)
REMARK    1  A    between atoms: C_1  and  C_2
REMARK    2  A    between atoms: C_5  and  N_6
REMARK    3  A    between atoms: C_7  and  C_9
REMARK    4  A    between atoms: C_9  and  N_10
REMARK    5  A    between atoms: C_18  and  S_19
REMARK    6  A    between atoms: S_19  and  N_22
REMARK                            x       y       z     vdW  Elec       q    Type
REMARK                         _______ _______ _______ _____ _____    ______ ____
ROOT
ATOM      1  N   UNL     1       1.218  10.510  20.835  0.00  0.00    +0.000 N 
ATOM      2  C   UNL     1       1.307  11.839  20.463  0.00  0.00    +0.000 C 
ATOM      3  O   UNL     1       1.292  12.756  21.285  0.00  0.00    +0.000 OA
ATOM      4  C   UNL     1       1.510  12.107  18.976  0.00  0.00    +0.000 C 
ATOM      5  O   UNL     1       1.376  11.065  18.032  0.00  0.00    +0.000 OA
ATOM      6  C   UNL     1       1.632   9.821  18.533  0.00  0.00    +0.000 A 
ATOM      7  C   UNL     1       1.969   8.852  17.583  0.00  0.00    +0.000 A 
ATOM      8  C   UNL     1       2.261   7.550  17.984  0.00  0.00    +0.000 A 
ATOM      9  C   UNL     1       2.159   7.209  19.336  0.00  0.00    +0.000 A 
ATOM     10  C   UNL     1       1.731   8.156  20.273  0.00  0.00    +0.000 A 
ATOM     11  C   UNL     1       1.513   9.488  19.890  0.00  0.00    +0.000 A 
ENDROOT
BRANCH   9  12
ATOM     12  S   UNL     1       2.587   5.540  19.810  0.00  0.00    +0.000 S 
ATOM     13  O   UNL     1       4.034   5.504  19.832  0.00  0.00    +0.000 OA
ATOM     14  O   UNL     1       1.802   5.220  20.979  0.00  0.00    +0.000 OA
BRANCH  12  15
ATOM     15  N   UNL     1       2.049   4.563  18.532  0.00  0.00    +0.000 NA
ATOM     16  C   UNL     1       1.105   3.444  18.856  0.00  0.00    +0.000 C 
ATOM     17  C   UNL     1       1.842   2.155  19.243  0.00  0.00    +0.000 C 
ATOM     18  O   UNL     1       2.814   1.776  18.256  0.00  0.00    +0.000 OA
ATOM     19  C   UNL     1       3.770   2.826  18.045  0.00  0.00    +0.000 C 
ATOM     20  C   UNL     1       3.080   4.100  17.557  0.00  0.00    +0.000 C 
ENDBRANCH  12  15
ENDBRANCH   9  12
BRANCH   1  21
ATOM     21  C   UNL     1       0.884  10.201  22.222  0.00  0.00    +0.000 C 
BRANCH  21  23
ATOM     22  N   UNL     1      -1.084  11.678  22.288  0.00  0.00    +0.000 N 
ATOM     23  C   UNL     1      -0.581  10.422  22.583  0.00  0.00    +0.000 C 
ATOM     24  O   UNL     1      -1.212   9.493  23.085  0.00  0.00    +0.000 OA
ATOM     25  H   UNL     1      -0.434  12.358  21.901  0.00  0.00    +0.000 HD
BRANCH  22  30
ATOM     26  C   UNL     1      -6.475  13.184  23.549  0.00  0.00    +0.000 C 
ATOM     27  C   UNL     1      -5.054  12.845  23.219  0.00  0.00    +0.000 A 
ATOM     28  C   UNL     1      -4.593  12.937  21.908  0.00  0.00    +0.000 A 
ATOM     29  C   UNL     1      -3.278  12.584  21.597  0.00  0.00    +0.000 A 
ATOM     30  C   UNL     1      -2.397  12.121  22.580  0.00  0.00    +0.000 A 
ATOM     31  C   UNL     1      -2.841  12.077  23.904  0.00  0.00    +0.000 A 
ATOM     32  C   UNL     1      -4.159  12.429  24.207  0.00  0.00    +0.000 A 
ATOM     33  F   UNL     1      -4.572  12.347  25.480  0.00  0.00    +0.000 F 
ENDBRANCH  22  30
ENDBRANCH  21  23
ENDBRANCH   1  21
TORSDOF 5
ENDMDL
MODEL 3
REMARK VINA RESULT:      -8.1      6.141     11.272
REMARK  Name = 
REMARK  6 active torsions:
REMARK  status: ('A' for Active; 'I' for Inactive)
REMARK    1  A    between atoms: C_1  and  C_2
REMARK    2  A    between atoms: C_5  and  N_6
REMARK    3  A    between atoms: C_7  and  C_9
REMARK    4  A    between atoms: C_9  and  N_10
REMARK    5  A    between atoms: C_18  and  S_19
REMARK    6  A    between atoms: S_19  and  N_22
REMARK                            x       y       z     vdW  Elec       q    Type
REMARK                         _______ _______ _______ _____ _____    ______ ____
ROOT
ATOM      1  N   UNL     1      -2.788  11.894  18.316  0.00  0.00    +0.000 N 
ATOM      2  C   UNL     1      -3.014  11.195  17.145  0.00  0.00    +0.000 C 
ATOM      3  O   UNL     1      -2.099  10.708  16.481  0.00  0.00    +0.000 OA
ATOM      4  C   UNL     1      -4.474  10.987  16.760  0.00  0.00    +0.000 C 
ATOM      5  O   UNL     1      -5.504  11.673  17.442  0.00  0.00    +0.000 OA
ATOM      6  C   UNL     1      -5.188  12.021  18.724  0.00  0.00    +0.000 A 
ATOM      7  C   UNL     1      -6.281  12.262  19.564  0.00  0.00    +0.000 A 
ATOM      8  C   UNL     1      -6.076  12.614  20.896  0.00  0.00    +0.000 A 
ATOM      9  C   UNL     1      -4.770  12.778  21.370  0.00  0.00    +0.000 A 
ATOM     10  C   UNL     1      -3.681  12.628  20.504  0.00  0.00    +0.000 A 
ATOM     11  C   UNL     1      -3.876  12.196  19.183  0.00  0.00    +0.000 A 
ENDROOT
BRANCH   9  12
ATOM     12  S   UNL     1      -4.554  13.184  23.095  0.00  0.00    +0.000 S 
ATOM     13  O   UNL     1      -5.855  13.621  23.556  0.00  0.00    +0.000 OA
ATOM     14  O   UNL     1      -3.866  12.071  23.708  0.00  0.00    +0.000 OA
BRANCH  12  15
ATOM     15  N   UNL     1      -3.508  14.520  23.110  0.00  0.00    +0.000 NA
ATOM     16  C   UNL     1      -2.335  14.481  24.044  0.00  0.00    +0.000 C 
ATOM     17  C   UNL     1      -2.685  15.016  25.439  0.00  0.00    +0.000 C 
ATOM     18  O   UNL     1      -3.286  16.318  25.379  0.00  0.00    +0.000 OA
ATOM     19  C   UNL     1      -4.469  16.301  24.565  0.00  0.00    +0.000 C 
ATOM     20  C   UNL     1      -4.140  15.871  23.135  0.00  0.00    +0.000 C 
ENDBRANCH  12  15
ENDBRANCH   9  12
BRANCH   1  21
ATOM     21  C   UNL     1      -1.412  12.242  18.659  0.00  0.00    +0.000 C 
BRANCH  21  23
ATOM     22  N   UNL     1       0.326  10.520  18.389  0.00  0.00    +0.000 N 
ATOM     23  C   UNL     1      -0.598  11.095  19.246  0.00  0.00    +0.000 C 
ATOM     24  O   UNL     1      -0.795  10.768  20.415  0.00  0.00    +0.000 OA
ATOM     25  H   UNL     1       0.356  10.875  17.436  0.00  0.00    +0.000 HD
BRANCH  22  30
ATOM     26  C   UNL     1       3.521   5.872  19.440  0.00  0.00    +0.000 C 
ATOM     27  C   UNL     1       2.723   7.116  19.195  0.00  0.00    +0.000 A 
ATOM     28  C   UNL     1       1.882   7.621  20.182  0.00  0.00    +0.000 A 
ATOM     29  C   UNL     1       1.111   8.760  19.937  0.00  0.00    +0.000 A 
ATOM     30  C   UNL     1       1.152   9.414  18.700  0.00  0.00    +0.000 A 
ATOM     31  C   UNL     1       2.033   8.940  17.726  0.00  0.00    +0.000 A 
ATOM     32  C   UNL     1       2.800   7.797  17.978  0.00  0.00    +0.000 A 
ATOM     33  F   UNL     1       3.614   7.342  17.015  0.00  0.00    +0.000 F 
ENDBRANCH  22  30
ENDBRANCH  21  23
ENDBRANCH   1  21
TORSDOF 5
ENDMDL
MODEL 4
REMARK VINA RESULT:      -8.1      0.841      1.192
REMARK  Name = 
REMARK  6 active torsions:
REMARK  status: ('A' for Active; 'I' for Inactive)
REMARK    1  A    between atoms: C_1  and  C_2
REMARK    2  A    between atoms: C_5  and  N_6
REMARK    3  A    between atoms: C_7  and  C_9
REMARK    4  A    between atoms: C_9  and  N_10
REMARK    5  A    between atoms: C_18  and  S_19
REMARK    6  A    between atoms: S_19  and  N_22
REMARK                            x       y       z     vdW  Elec       q    Type
REMARK                         _______ _______ _______ _____ _____    ______ ____
ROOT
ATOM      1  N   UNL     1       2.619   3.864  19.982  0.00  0.00    +0.000 N 
ATOM      2  C   UNL     1       1.783   2.784  20.196  0.00  0.00    +0.000 C 
ATOM      3  O   UNL     1       0.945   2.768  21.099  0.00  0.00    +0.000 OA
ATOM      4  C   UNL     1       1.897   1.638  19.198  0.00  0.00    +0.000 C 
ATOM      5  O   UNL     1       2.957   1.600  18.264  0.00  0.00    +0.000 OA
ATOM      6  C   UNL     1       3.461   2.828  17.942  0.00  0.00    +0.000 A 
ATOM      7  C   UNL     1       4.150   2.891  16.726  0.00  0.00    +0.000 A 
ATOM      8  C   UNL     1       4.698   4.096  16.293  0.00  0.00    +0.000 A 
ATOM      9  C   UNL     1       4.601   5.227  17.110  0.00  0.00    +0.000 A 
ATOM     10  C   UNL     1       3.994   5.139  18.368  0.00  0.00    +0.000 A 
ATOM     11  C   UNL     1       3.370   3.950  18.776  0.00  0.00    +0.000 A 
ENDROOT
BRANCH   9  12
ATOM     12  S   UNL     1       5.277   6.761  16.494  0.00  0.00    +0.000 S 
ATOM     13  O   UNL     1       4.965   6.782  15.081  0.00  0.00    +0.000 OA
ATOM     14  O   UNL     1       4.831   7.806  17.386  0.00  0.00    +0.000 OA
BRANCH  12  15
ATOM     15  N   UNL     1       6.958   6.607  16.666  0.00  0.00    +0.000 NA
ATOM     16  C   UNL     1       7.577   5.282  16.337  0.00  0.00    +0.000 C 
ATOM     17  C   UNL     1       7.587   4.331  17.542  0.00  0.00    +0.000 C 
ATOM     18  O   UNL     1       8.185   4.936  18.699  0.00  0.00    +0.000 OA
ATOM     19  C   UNL     1       7.502   6.148  19.055  0.00  0.00    +0.000 C 
ATOM     20  C   UNL     1       7.562   7.162  17.912  0.00  0.00    +0.000 C 
ENDBRANCH  12  15
ENDBRANCH   9  12
BRANCH   1  21
ATOM     21  C   UNL     1       2.651   4.924  20.985  0.00  0.00    +0.000 C 
BRANCH  21  23
ATOM     22  N   UNL     1       2.052   7.311  20.981  0.00  0.00    +0.000 N 
ATOM     23  C   UNL     1       1.606   6.015  20.783  0.00  0.00    +0.000 C 
ATOM     24  O   UNL     1       0.468   5.689  20.450  0.00  0.00    +0.000 OA
ATOM     25  H   UNL     1       3.016   7.428  21.285  0.00  0.00    +0.000 HD
BRANCH  22  30
ATOM     26  C   UNL     1      -0.949  12.186  20.584  0.00  0.00    +0.000 C 
ATOM     27  C   UNL     1      -0.214  10.884  20.685  0.00  0.00    +0.000 A 
ATOM     28  C   UNL     1      -0.141  10.208  21.900  0.00  0.00    +0.000 A 
ATOM     29  C   UNL     1       0.578   9.014  22.000  0.00  0.00    +0.000 A 
ATOM     30  C   UNL     1       1.248   8.474  20.897  0.00  0.00    +0.000 A 
ATOM     31  C   UNL     1       1.135   9.123  19.666  0.00  0.00    +0.000 A 
ATOM     32  C   UNL     1       0.416  10.320  19.574  0.00  0.00    +0.000 A 
ATOM     33  F   UNL     1       0.349  10.942  18.389  0.00  0.00    +0.000 F 
ENDBRANCH  22  30
ENDBRANCH  21  23
ENDBRANCH   1  21
TORSDOF 5
ENDMDL
MODEL 5
REMARK VINA RESULT:      -8.0      4.892      8.914
REMARK  Name = 
REMARK  6 active torsions:
REMARK  status: ('A' for Active; 'I' for Inactive)
REMARK    1  A    between atoms: C_1  and  C_2
REMARK    2  A    between atoms: C_5  and  N_6
REMARK    3  A    between atoms: C_7  and  C_9
REMARK    4  A    between atoms: C_9  and  N_10
REMARK    5  A    between atoms: C_18  and  S_19
REMARK    6  A    between atoms: S_19  and  N_22
REMARK                            x       y       z     vdW  Elec       q    Type
REMARK                         _______ _______ _______ _____ _____    ______ ____
ROOT
ATOM      1  N   UNL     1       0.425  10.693  21.938  0.00  0.00    +0.000 N 
ATOM      2  C   UNL     1      -0.377  10.307  22.995  0.00  0.00    +0.000 C 
ATOM      3  O   UNL     1      -0.045   9.422  23.786  0.00  0.00    +0.000 OA
ATOM      4  C   UNL     1      -1.668  11.095  23.181  0.00  0.00    +0.000 C 
ATOM      5  O   UNL     1      -2.109  11.999  22.189  0.00  0.00    +0.000 OA
ATOM      6  C   UNL     1      -1.106  12.520  21.423  0.00  0.00    +0.000 A 
ATOM      7  C   UNL     1      -1.410  13.722  20.777  0.00  0.00    +0.000 A 
ATOM      8  C   UNL     1      -0.456  14.349  19.977  0.00  0.00    +0.000 A 
ATOM      9  C   UNL     1       0.785  13.736  19.783  0.00  0.00    +0.000 A 
ATOM     10  C   UNL     1       1.054  12.488  20.355  0.00  0.00    +0.000 A 
ATOM     11  C   UNL     1       0.130  11.889  21.226  0.00  0.00    +0.000 A 
ENDROOT
BRANCH   9  12
ATOM     12  S   UNL     1       1.993  14.597  18.788  0.00  0.00    +0.000 S 
ATOM     13  O   UNL     1       2.505  13.610  17.861  0.00  0.00    +0.000 OA
ATOM     14  O   UNL     1       1.370  15.817  18.330  0.00  0.00    +0.000 OA
BRANCH  12  15
ATOM     15  N   UNL     1       3.239  15.014  19.862  0.00  0.00    +0.000 NA
ATOM     16  C   UNL     1       2.957  16.079  20.881  0.00  0.00    +0.000 C 
ATOM     17  C   UNL     1       3.246  17.487  20.344  0.00  0.00    +0.000 C 
ATOM     18  O   UNL     1       4.570  17.593  19.800  0.00  0.00    +0.000 OA
ATOM     19  C   UNL     1       4.774  16.633  18.752  0.00  0.00    +0.000 C 
ATOM     20  C   UNL     1       4.597  15.209  19.277  0.00  0.00    +0.000 C 
ENDBRANCH  12  15
ENDBRANCH   9  12
BRANCH   1  21
ATOM     21  C   UNL     1       1.601   9.885  21.630  0.00  0.00    +0.000 C 
BRANCH  21  23
ATOM     22  N   UNL     1       2.032   7.566  20.924  0.00  0.00    +0.000 N 
ATOM     23  C   UNL     1       1.340   8.737  20.661  0.00  0.00    +0.000 C 
ATOM     24  O   UNL     1       0.543   8.910  19.740  0.00  0.00    +0.000 OA
ATOM     25  H   UNL     1       2.684   7.579  21.705  0.00  0.00    +0.000 HD
BRANCH  22  30
ATOM     26  C   UNL     1       2.026   2.676  17.922  0.00  0.00    +0.000 C 
ATOM     27  C   UNL     1       1.985   3.971  18.674  0.00  0.00    +0.000 A 
ATOM     28  C   UNL     1       2.553   5.121  18.132  0.00  0.00    +0.000 A 
ATOM     29  C   UNL     1       2.546   6.317  18.853  0.00  0.00    +0.000 A 
ATOM     30  C   UNL     1       1.985   6.393  20.132  0.00  0.00    +0.000 A 
ATOM     31  C   UNL     1       1.369   5.255  20.658  0.00  0.00    +0.000 A 
ATOM     32  C   UNL     1       1.382   4.059  19.932  0.00  0.00    +0.000 A 
ATOM     33  F   UNL     1       0.813   2.971  20.470  0.00  0.00    +0.000 F 
ENDBRANCH  22  30
ENDBRANCH  21  23
ENDBRANCH   1  21
TORSDOF 5
ENDMDL
MODEL 6
REMARK VINA RESULT:      -8.0      3.428      6.456
REMARK  Name = 
REMARK  6 active torsions:
REMARK  status: ('A' for Active; 'I' for Inactive)
REMARK    1  A    between atoms: C_1  and  C_2
REMARK    2  A    between atoms: C_5  and  N_6
REMARK    3  A    between atoms: C_7  and  C_9
REMARK    4  A    between atoms: C_9  and  N_10
REMARK    5  A    between atoms: C_18  and  S_19
REMARK    6  A    between atoms: S_19  and  N_22
REMARK                            x       y       z     vdW  Elec       q    Type
REMARK                         _______ _______ _______ _____ _____    ______ ____
ROOT
ATOM      1  N   UNL     1       1.173  10.517  20.873  0.00  0.00    +0.000 N 
ATOM      2  C   UNL     1       1.244  11.850  20.512  0.00  0.00    +0.000 C 
ATOM      3  O   UNL     1       1.214  12.760  21.341  0.00  0.00    +0.000 OA
ATOM      4  C   UNL     1       1.446  12.132  19.028  0.00  0.00    +0.000 C 
ATOM      5  O   UNL     1       1.328  11.096  18.075  0.00  0.00    +0.000 OA
ATOM      6  C   UNL     1       1.602   9.852  18.567  0.00  0.00    +0.000 A 
ATOM      7  C   UNL     1       1.955   8.895  17.610  0.00  0.00    +0.000 A 
ATOM      8  C   UNL     1       2.265   7.594  18.002  0.00  0.00    +0.000 A 
ATOM      9  C   UNL     1       2.165   7.241  19.351  0.00  0.00    +0.000 A 
ATOM     10  C   UNL     1       1.722   8.175  20.294  0.00  0.00    +0.000 A 
ATOM     11  C   UNL     1       1.485   9.507  19.921  0.00  0.00    +0.000 A 
ENDROOT
BRANCH   9  12
ATOM     12  S   UNL     1       2.617   5.576  19.813  0.00  0.00    +0.000 S 
ATOM     13  O   UNL     1       4.064   5.550  19.801  0.00  0.00    +0.000 OA
ATOM     14  O   UNL     1       1.861   5.249  21.000  0.00  0.00    +0.000 OA
BRANCH  12  15
ATOM     15  N   UNL     1       2.056   4.595  18.547  0.00  0.00    +0.000 NA
ATOM     16  C   UNL     1       1.112   3.481  18.889  0.00  0.00    +0.000 C 
ATOM     17  C   UNL     1       1.851   2.192  19.270  0.00  0.00    +0.000 C 
ATOM     18  O   UNL     1       2.806   1.805  18.270  0.00  0.00    +0.000 OA
ATOM     19  C   UNL     1       3.763   2.851  18.041  0.00  0.00    +0.000 C 
ATOM     20  C   UNL     1       3.070   4.125  17.559  0.00  0.00    +0.000 C 
ENDBRANCH  12  15
ENDBRANCH   9  12
BRANCH   1  21
ATOM     21  C   UNL     1       0.841  10.193  22.257  0.00  0.00    +0.000 C 
BRANCH  21  23
ATOM     22  N   UNL     1      -1.140  11.648  22.372  0.00  0.00    +0.000 N 
ATOM     23  C   UNL     1      -0.628  10.385  22.616  0.00  0.00    +0.000 C 
ATOM     24  O   UNL     1      -1.255   9.430  23.071  0.00  0.00    +0.000 OA
ATOM     25  H   UNL     1      -0.494  12.350  22.021  0.00  0.00    +0.000 HD
BRANCH  22  30
ATOM     26  C   UNL     1      -6.408  13.629  23.493  0.00  0.00    +0.000 C 
ATOM     27  C   UNL     1      -5.052  13.060  23.206  0.00  0.00    +0.000 A 
ATOM     28  C   UNL     1      -4.240  12.613  24.245  0.00  0.00    +0.000 A 
ATOM     29  C   UNL     1      -2.961  12.118  23.977  0.00  0.00    +0.000 A 
ATOM     30  C   UNL     1      -2.459  12.067  22.672  0.00  0.00    +0.000 A 
ATOM     31  C   UNL     1      -3.290  12.467  21.623  0.00  0.00    +0.000 A 
ATOM     32  C   UNL     1      -4.568  12.964  21.899  0.00  0.00    +0.000 A 
ATOM     33  F   UNL     1      -5.336  13.372  20.878  0.00  0.00    +0.000 F 
ENDBRANCH  22  30
ENDBRANCH  21  23
ENDBRANCH   1  21
TORSDOF 5
ENDMDL
MODEL 7
REMARK VINA RESULT:      -7.9      5.781     10.896
REMARK  Name = 
REMARK  6 active torsions:
REMARK  status: ('A' for Active; 'I' for Inactive)
REMARK    1  A    between atoms: C_1  and  C_2
REMARK    2  A    between atoms: C_5  and  N_6
REMARK    3  A    between atoms: C_7  and  C_9
REMARK    4  A    between atoms: C_9  and  N_10
REMARK    5  A    between atoms: C_18  and  S_19
REMARK    6  A    between atoms: S_19  and  N_22
REMARK                            x       y       z     vdW  Elec       q    Type
REMARK                         _______ _______ _______ _____ _____    ______ ____
ROOT
ATOM      1  N   UNL     1      -2.621  11.803  18.224  0.00  0.00    +0.000 N 
ATOM      2  C   UNL     1      -3.230  11.300  17.090  0.00  0.00    +0.000 C 
ATOM      3  O   UNL     1      -2.601  10.706  16.212  0.00  0.00    +0.000 OA
ATOM      4  C   UNL     1      -4.745  11.447  17.020  0.00  0.00    +0.000 C 
ATOM      5  O   UNL     1      -5.433  12.256  17.951  0.00  0.00    +0.000 OA
ATOM      6  C   UNL     1      -4.798  12.388  19.153  0.00  0.00    +0.000 A 
ATOM      7  C   UNL     1      -5.617  12.761  20.224  0.00  0.00    +0.000 A 
ATOM      8  C   UNL     1      -5.076  12.914  21.498  0.00  0.00    +0.000 A 
ATOM      9  C   UNL     1      -3.700  12.748  21.685  0.00  0.00    +0.000 A 
ATOM     10  C   UNL     1      -2.869  12.466  20.595  0.00  0.00    +0.000 A 
ATOM     11  C   UNL     1      -3.416  12.232  19.324  0.00  0.00    +0.000 A 
ENDROOT
BRANCH   9  12
ATOM     12  S   UNL     1      -3.057  12.909  23.344  0.00  0.00    +0.000 S 
ATOM     13  O   UNL     1      -3.885  12.049  24.164  0.00  0.00    +0.000 OA
ATOM     14  O   UNL     1      -1.626  12.730  23.261  0.00  0.00    +0.000 OA
BRANCH  12  15
ATOM     15  N   UNL     1      -3.361  14.519  23.784  0.00  0.00    +0.000 NA
ATOM     16  C   UNL     1      -2.977  15.595  22.812  0.00  0.00    +0.000 C 
ATOM     17  C   UNL     1      -1.523  16.049  22.994  0.00  0.00    +0.000 C 
ATOM     18  O   UNL     1      -1.242  16.420  24.352  0.00  0.00    +0.000 OA
ATOM     19  C   UNL     1      -1.516  15.332  25.249  0.00  0.00    +0.000 C 
ATOM     20  C   UNL     1      -2.986  14.920  25.171  0.00  0.00    +0.000 C 
ENDBRANCH  12  15
ENDBRANCH   9  12
BRANCH   1  21
ATOM     21  C   UNL     1      -1.162  11.815  18.279  0.00  0.00    +0.000 C 
BRANCH  21  23
ATOM     22  N   UNL     1       0.780  10.306  18.373  0.00  0.00    +0.000 N 
ATOM     23  C   UNL     1      -0.538  10.505  18.747  0.00  0.00    +0.000 C 
ATOM     24  O   UNL     1      -1.219   9.735  19.423  0.00  0.00    +0.000 OA
ATOM     25  H   UNL     1       1.207  11.017  17.785  0.00  0.00    +0.000 HD
BRANCH  22  30
ATOM     26  C   UNL     1       3.705   5.454  19.286  0.00  0.00    +0.000 C 
ATOM     27  C   UNL     1       2.980   6.749  19.077  0.00  0.00    +0.000 A 
ATOM     28  C   UNL     1       2.170   7.273  20.081  0.00  0.00    +0.000 A 
ATOM     29  C   UNL     1       1.465   8.460  19.869  0.00  0.00    +0.000 A 
ATOM     30  C   UNL     1       1.542   9.145  18.651  0.00  0.00    +0.000 A 
ATOM     31  C   UNL     1       2.394   8.649  17.662  0.00  0.00    +0.000 A 
ATOM     32  C   UNL     1       3.094   7.458  17.880  0.00  0.00    +0.000 A 
ATOM     33  F   UNL     1       3.880   6.984  16.902  0.00  0.00    +0.000 F 
ENDBRANCH  22  30
ENDBRANCH  21  23
ENDBRANCH   1  21
TORSDOF 5
ENDMDL
MODEL 8
REMARK VINA RESULT:      -7.7      6.028     11.699
REMARK  Name = 
REMARK  6 active torsions:
REMARK  status: ('A' for Active; 'I' for Inactive)
REMARK    1  A    between atoms: C_1  and  C_2
REMARK    2  A    between atoms: C_5  and  N_6
REMARK    3  A    between atoms: C_7  and  C_9
REMARK    4  A    between atoms: C_9  and  N_10
REMARK    5  A    between atoms: C_18  and  S_19
REMARK    6  A    between atoms: S_19  and  N_22
REMARK                            x       y       z     vdW  Elec       q    Type
REMARK                         _______ _______ _______ _____ _____    ______ ____
ROOT
ATOM      1  N   UNL     1      -0.864  13.066  19.965  0.00  0.00    +0.000 N 
ATOM      2  C   UNL     1       0.316  13.707  19.636  0.00  0.00    +0.000 C 
ATOM      3  O   UNL     1       0.708  13.810  18.473  0.00  0.00    +0.000 OA
ATOM      4  C   UNL     1       1.071  14.356  20.790  0.00  0.00    +0.000 C 
ATOM      5  O   UNL     1       0.696  14.105  22.128  0.00  0.00    +0.000 OA
ATOM      6  C   UNL     1      -0.620  13.774  22.286  0.00  0.00    +0.000 A 
ATOM      7  C   UNL     1      -1.137  13.975  23.570  0.00  0.00    +0.000 A 
ATOM      8  C   UNL     1      -2.472  13.680  23.841  0.00  0.00    +0.000 A 
ATOM      9  C   UNL     1      -3.271  13.130  22.835  0.00  0.00    +0.000 A 
ATOM     10  C   UNL     1      -2.727  12.843  21.578  0.00  0.00    +0.000 A 
ATOM     11  C   UNL     1      -1.408  13.210  21.272  0.00  0.00    +0.000 A 
ENDROOT
BRANCH   9  12
ATOM     12  S   UNL     1      -4.988  12.812  23.214  0.00  0.00    +0.000 S 
ATOM     13  O   UNL     1      -5.555  12.259  22.003  0.00  0.00    +0.000 OA
ATOM     14  O   UNL     1      -5.016  12.089  24.465  0.00  0.00    +0.000 OA
BRANCH  12  15
ATOM     15  N   UNL     1      -5.677  14.340  23.475  0.00  0.00    +0.000 NA
ATOM     16  C   UNL     1      -7.162  14.415  23.671  0.00  0.00    +0.000 C 
ATOM     17  C   UNL     1      -7.916  14.543  22.342  0.00  0.00    +0.000 C 
ATOM     18  O   UNL     1      -7.420  15.629  21.545  0.00  0.00    +0.000 OA
ATOM     19  C   UNL     1      -6.017  15.474  21.282  0.00  0.00    +0.000 C 
ATOM     20  C   UNL     1      -5.219  15.447  22.586  0.00  0.00    +0.000 C 
ENDBRANCH  12  15
ENDBRANCH   9  12
BRANCH   1  21
ATOM     21  C   UNL     1      -1.554  12.310  18.925  0.00  0.00    +0.000 C 
BRANCH  21  23
ATOM     22  N   UNL     1       0.268  10.687  19.245  0.00  0.00    +0.000 N 
ATOM     23  C   UNL     1      -0.944  10.944  18.628  0.00  0.00    +0.000 C 
ATOM     24  O   UNL     1      -1.556  10.171  17.892  0.00  0.00    +0.000 OA
ATOM     25  H   UNL     1       0.672  11.435  19.804  0.00  0.00    +0.000 HD
BRANCH  22  30
ATOM     26  C   UNL     1       3.578   6.022  18.778  0.00  0.00    +0.000 C 
ATOM     27  C   UNL     1       2.675   7.214  18.869  0.00  0.00    +0.000 A 
ATOM     28  C   UNL     1       2.574   8.107  17.805  0.00  0.00    +0.000 A 
ATOM     29  C   UNL     1       1.761   9.237  17.909  0.00  0.00    +0.000 A 
ATOM     30  C   UNL     1       1.038   9.510  19.075  0.00  0.00    +0.000 A 
ATOM     31  C   UNL     1       1.097   8.590  20.125  0.00  0.00    +0.000 A 
ATOM     32  C   UNL     1       1.916   7.462  20.016  0.00  0.00    +0.000 A 
ATOM     33  F   UNL     1       1.981   6.610  21.049  0.00  0.00    +0.000 F 
ENDBRANCH  22  30
ENDBRANCH  21  23
ENDBRANCH   1  21
TORSDOF 5
ENDMDL
MODEL 9
REMARK VINA RESULT:      -7.7      6.057     11.718
REMARK  Name = 
REMARK  6 active torsions:
REMARK  status: ('A' for Active; 'I' for Inactive)
REMARK    1  A    between atoms: C_1  and  C_2
REMARK    2  A    between atoms: C_5  and  N_6
REMARK    3  A    between atoms: C_7  and  C_9
REMARK    4  A    between atoms: C_9  and  N_10
REMARK    5  A    between atoms: C_18  and  S_19
REMARK    6  A    between atoms: S_19  and  N_22
REMARK                            x       y       z     vdW  Elec       q    Type
REMARK                         _______ _______ _______ _____ _____    ______ ____
ROOT
ATOM      1  N   UNL     1      -0.388  13.422  19.958  0.00  0.00    +0.000 N 
ATOM      2  C   UNL     1       0.832  14.070  19.925  0.00  0.00    +0.000 C 
ATOM      3  O   UNL     1       1.429  14.299  18.872  0.00  0.00    +0.000 OA
ATOM      4  C   UNL     1       1.366  14.563  21.265  0.00  0.00    +0.000 C 
ATOM      5  O   UNL     1       0.753  14.167  22.474  0.00  0.00    +0.000 OA
ATOM      6  C   UNL     1      -0.569  13.849  22.352  0.00  0.00    +0.000 A 
ATOM      7  C   UNL     1      -1.311  13.911  23.536  0.00  0.00    +0.000 A 
ATOM      8  C   UNL     1      -2.673  13.616  23.526  0.00  0.00    +0.000 A 
ATOM      9  C   UNL     1      -3.277  13.205  22.334  0.00  0.00    +0.000 A 
ATOM     10  C   UNL     1      -2.513  13.054  21.171  0.00  0.00    +0.000 A 
ATOM     11  C   UNL     1      -1.160  13.425  21.154  0.00  0.00    +0.000 A 
ENDROOT
BRANCH   9  12
ATOM     12  S   UNL     1      -5.034  12.883  22.357  0.00  0.00    +0.000 S 
ATOM     13  O   UNL     1      -5.269  11.946  21.279  0.00  0.00    +0.000 OA
ATOM     14  O   UNL     1      -5.388  12.572  23.722  0.00  0.00    +0.000 OA
BRANCH  12  15
ATOM     15  N   UNL     1      -5.762  14.359  21.948  0.00  0.00    +0.000 NA
ATOM     16  C   UNL     1      -5.054  15.622  22.339  0.00  0.00    +0.000 C 
ATOM     17  C   UNL     1      -5.425  16.081  23.755  0.00  0.00    +0.000 C 
ATOM     18  O   UNL     1      -6.847  16.180  23.931  0.00  0.00    +0.000 OA
ATOM     19  C   UNL     1      -7.488  14.925  23.655  0.00  0.00    +0.000 C 
ATOM     20  C   UNL     1      -7.225  14.486  22.214  0.00  0.00    +0.000 C 
ENDBRANCH  12  15
ENDBRANCH   9  12
BRANCH   1  21
ATOM     21  C   UNL     1      -0.878  12.807  18.728  0.00  0.00    +0.000 C 
BRANCH  21  23
ATOM     22  N   UNL     1       0.739  10.979  19.045  0.00  0.00    +0.000 N 
ATOM     23  C   UNL     1      -0.511  11.336  18.568  0.00  0.00    +0.000 C 
ATOM     24  O   UNL     1      -1.330  10.575  18.055  0.00  0.00    +0.000 OA
ATOM     25  H   UNL     1       1.323  11.724  19.417  0.00  0.00    +0.000 HD
BRANCH  22  30
ATOM     26  C   UNL     1       3.240   5.816  18.917  0.00  0.00    +0.000 C 
ATOM     27  C   UNL     1       2.546   7.144  18.919  0.00  0.00    +0.000 A 
ATOM     28  C   UNL     1       2.642   7.992  17.819  0.00  0.00    +0.000 A 
ATOM     29  C   UNL     1       2.025   9.245  17.839  0.00  0.00    +0.000 A 
ATOM     30  C   UNL     1       1.308   9.685  18.957  0.00  0.00    +0.000 A 
ATOM     31  C   UNL     1       1.167   8.817  20.042  0.00  0.00    +0.000 A 
ATOM     32  C   UNL     1       1.790   7.565  20.016  0.00  0.00    +0.000 A 
ATOM     33  F   UNL     1       1.668   6.761  21.082  0.00  0.00    +0.000 F 
ENDBRANCH  22  30
ENDBRANCH  21  23
ENDBRANCH   1  21
TORSDOF 5
ENDMDL
