MODEL 1
REMARK VINA RESULT:      -7.9      0.000      0.000
REMARK  Name = 
REMARK  4 active torsions:
REMARK  status: ('A' for Active; 'I' for Inactive)
REMARK    1  A    between atoms: C_2  and  C_10
REMARK    2  A    between atoms: N_3  and  C_4
REMARK    3  A    between atoms: C_4  and  C_5
REMARK    4  A    between atoms: C_13  and  N_14
REMARK                            x       y       z     vdW  Elec       q    Type
REMARK                         _______ _______ _______ _____ _____    ______ ____
ROOT
ATOM      1  C   UNL     1       2.532   7.462  18.596  0.00  0.00    +0.000 A 
ATOM      2  C   UNL     1       2.045   8.586  17.924  0.00  0.00    +0.000 A 
ATOM      3  C   UNL     1       1.238   9.516  18.589  0.00  0.00    +0.000 A 
ATOM      4  C   UNL     1       0.910   9.346  19.938  0.00  0.00    +0.000 A 
ATOM      5  C   UNL     1       1.451   8.253  20.625  0.00  0.00    +0.000 A 
ATOM      6  C   UNL     1       2.250   7.310  19.960  0.00  0.00    +0.000 A 
ENDROOT
BRANCH   4   7
ATOM      7  N   UNL     1       0.063  10.233  20.647  0.00  0.00    +0.000 N 
ATOM      8  C   UNL     1       0.440  11.453  21.162  0.00  0.00    +0.000 C 
ATOM      9  O   UNL     1       1.544  11.971  21.001  0.00  0.00    +0.000 OA
ATOM     10  N   UNL     1      -0.535  12.119  21.868  0.00  0.00    +0.000 N 
ATOM     11  C   UNL     1      -0.258  13.467  22.365  0.00  0.00    +0.000 C 
ATOM     12  C   UNL     1      -1.452  13.802  23.189  0.00  0.00    +0.000 A 
ATOM     13  C   UNL     1      -1.756  14.964  23.874  0.00  0.00    +0.000 A 
ATOM     14  C   UNL     1      -2.949  14.992  24.592  0.00  0.00    +0.000 A 
ATOM     15  C   UNL     1      -3.770  13.863  24.585  0.00  0.00    +0.000 A 
ATOM     16  N   UNL     1      -3.492  12.717  23.915  0.00  0.00    +0.000 NA
ATOM     17  C   UNL     1      -2.331  12.726  23.235  0.00  0.00    +0.000 A 
ATOM     18  C   UNL     1      -1.783  11.581  22.422  0.00  0.00    +0.000 C 
ATOM     19  H   UNL     1      -0.927  10.102  20.516  0.00  0.00    +0.000 HD
ENDBRANCH   4   7
BRANCH   1  21
ATOM     20  O   UNL     1       4.265   6.843  17.118  0.00  0.00    +0.000 OA
ATOM     21  C   UNL     1       3.342   6.468  17.831  0.00  0.00    +0.000 C 
ATOM     22  N   UNL     1       2.943   5.152  17.941  0.00  0.00    +0.000 N 
ATOM     23  H   UNL     1       2.072   4.941  18.414  0.00  0.00    +0.000 HD
BRANCH  22  24
ATOM     24  C   UNL     1       3.567   4.078  17.191  0.00  0.00    +0.000 C 
BRANCH  24  25
ATOM     25  C   UNL     1       4.007   2.878  18.047  0.00  0.00    +0.000 C 
ATOM     26  C   UNL     1       2.965   1.780  18.147  0.00  0.00    +0.000 C 
ATOM     27  C   UNL     1       2.138   2.180  19.352  0.00  0.00    +0.000 C 
ATOM     28  O   UNL     1       2.955   3.034  20.169  0.00  0.00    +0.000 OA
ATOM     29  C   UNL     1       4.214   3.232  19.510  0.00  0.00    +0.000 C 
ENDBRANCH  24  25
ENDBRANCH  22  24
ENDBRANCH   1  21
TORSDOF 4
ENDMDL
MODEL 2
REMARK VINA RESULT:      -7.8      7.170      9.257
REMARK  Name = 
REMARK  4 active torsions:
REMARK  status: ('A' for Active; 'I' for Inactive)
REMARK    1  A    between atoms: C_2  and  C_10
REMARK    2  A    between atoms: N_3  and  C_4
REMARK    3  A    between atoms: C_4  and  C_5
REMARK    4  A    between atoms: C_13  and  N_14
REMARK                            x       y       z     vdW  Elec       q    Type
REMARK                         _______ _______ _______ _____ _____    ______ ____
ROOT
ATOM      1  C   UNL     1       6.571   5.977  18.042  0.00  0.00    +0.000 A 
ATOM      2  C   UNL     1       7.675   6.077  18.893  0.00  0.00    +0.000 A 
ATOM      3  C   UNL     1       8.447   7.244  18.918  0.00  0.00    +0.000 A 
ATOM      4  C   UNL     1       8.127   8.334  18.101  0.00  0.00    +0.000 A 
ATOM      5  C   UNL     1       6.984   8.253  17.296  0.00  0.00    +0.000 A 
ATOM      6  C   UNL     1       6.214   7.081  17.257  0.00  0.00    +0.000 A 
ENDROOT
BRANCH   4   7
ATOM      7  N   UNL     1       8.899   9.521  18.055  0.00  0.00    +0.000 N 
ATOM      8  C   UNL     1       9.226  10.301  19.142  0.00  0.00    +0.000 C 
ATOM      9  O   UNL     1       8.958  10.023  20.309  0.00  0.00    +0.000 OA
ATOM     10  N   UNL     1       9.934  11.444  18.852  0.00  0.00    +0.000 N 
ATOM     11  C   UNL     1      10.412  12.281  19.953  0.00  0.00    +0.000 C 
ATOM     12  C   UNL     1      10.987  13.476  19.274  0.00  0.00    +0.000 A 
ATOM     13  C   UNL     1      11.616  14.583  19.815  0.00  0.00    +0.000 A 
ATOM     14  C   UNL     1      12.039  15.575  18.934  0.00  0.00    +0.000 A 
ATOM     15  C   UNL     1      11.813  15.407  17.567  0.00  0.00    +0.000 A 
ATOM     16  N   UNL     1      11.204  14.326  17.017  0.00  0.00    +0.000 NA
ATOM     17  C   UNL     1      10.808  13.391  17.899  0.00  0.00    +0.000 A 
ATOM     18  C   UNL     1      10.099  12.106  17.553  0.00  0.00    +0.000 C 
ATOM     19  H   UNL     1       9.480   9.643  17.241  0.00  0.00    +0.000 HD
ENDBRANCH   4   7
BRANCH   1  21
ATOM     20  O   UNL     1       5.599   4.128  16.942  0.00  0.00    +0.000 OA
ATOM     21  C   UNL     1       5.811   4.692  18.009  0.00  0.00    +0.000 C 
ATOM     22  N   UNL     1       5.335   4.242  19.223  0.00  0.00    +0.000 N 
ATOM     23  H   UNL     1       5.408   4.846  20.033  0.00  0.00    +0.000 HD
BRANCH  22  24
ATOM     24  C   UNL     1       4.504   3.060  19.350  0.00  0.00    +0.000 C 
BRANCH  24  25
ATOM     25  C   UNL     1       3.035   3.351  19.706  0.00  0.00    +0.000 C 
ATOM     26  C   UNL     1       2.066   3.100  18.567  0.00  0.00    +0.000 C 
ATOM     27  C   UNL     1       2.023   4.425  17.834  0.00  0.00    +0.000 C 
ATOM     28  O   UNL     1       2.428   5.443  18.763  0.00  0.00    +0.000 OA
ATOM     29  C   UNL     1       2.773   4.817  20.006  0.00  0.00    +0.000 C 
ENDBRANCH  24  25
ENDBRANCH  22  24
ENDBRANCH   1  21
TORSDOF 4
ENDMDL
MODEL 3
REMARK VINA RESULT:      -7.7      7.238      9.175
REMARK  Name = 
REMARK  4 active torsions:
REMARK  status: ('A' for Active; 'I' for Inactive)
REMARK    1  A    between atoms: C_2  and  C_10
REMARK    2  A    between atoms: N_3  and  C_4
REMARK    3  A    between atoms: C_4  and  C_5
REMARK    4  A    between atoms: C_13  and  N_14
REMARK                            x       y       z     vdW  Elec       q    Type
REMARK                         _______ _______ _______ _____ _____    ______ ____
ROOT
ATOM      1  C   UNL     1       6.560   6.000  18.227  0.00  0.00    +0.000 A 
ATOM      2  C   UNL     1       6.171   7.015  17.349  0.00  0.00    +0.000 A 
ATOM      3  C   UNL     1       6.919   8.194  17.251  0.00  0.00    +0.000 A 
ATOM      4  C   UNL     1       8.072   8.377  18.022  0.00  0.00    +0.000 A 
ATOM      5  C   UNL     1       8.494   7.333  18.854  0.00  0.00    +0.000 A 
ATOM      6  C   UNL     1       7.740   6.154  18.965  0.00  0.00    +0.000 A 
ENDROOT
BRANCH   4   7
ATOM      7  N   UNL     1       8.841   9.566  17.995  0.00  0.00    +0.000 N 
ATOM      8  C   UNL     1       9.169  10.328  19.096  0.00  0.00    +0.000 C 
ATOM      9  O   UNL     1       8.905  10.027  20.259  0.00  0.00    +0.000 OA
ATOM     10  N   UNL     1       9.874  11.478  18.825  0.00  0.00    +0.000 N 
ATOM     11  C   UNL     1      10.354  12.295  19.939  0.00  0.00    +0.000 C 
ATOM     12  C   UNL     1      10.924  13.504  19.281  0.00  0.00    +0.000 A 
ATOM     13  C   UNL     1      11.552  14.602  19.841  0.00  0.00    +0.000 A 
ATOM     14  C   UNL     1      11.970  15.611  18.976  0.00  0.00    +0.000 A 
ATOM     15  C   UNL     1      11.741  15.467  17.607  0.00  0.00    +0.000 A 
ATOM     16  N   UNL     1      11.133  14.395  17.039  0.00  0.00    +0.000 NA
ATOM     17  C   UNL     1      10.741  13.443  17.905  0.00  0.00    +0.000 A 
ATOM     18  C   UNL     1      10.034  12.163  17.538  0.00  0.00    +0.000 C 
ATOM     19  H   UNL     1       9.420   9.704  17.183  0.00  0.00    +0.000 HD
ENDBRANCH   4   7
BRANCH   1  21
ATOM     20  O   UNL     1       5.836   4.016  19.281  0.00  0.00    +0.000 OA
ATOM     21  C   UNL     1       5.700   4.785  18.337  0.00  0.00    +0.000 C 
ATOM     22  N   UNL     1       4.816   4.575  17.298  0.00  0.00    +0.000 N 
ATOM     23  H   UNL     1       4.879   5.162  16.475  0.00  0.00    +0.000 HD
BRANCH  22  24
ATOM     24  C   UNL     1       3.976   3.396  17.209  0.00  0.00    +0.000 C 
BRANCH  24  25
ATOM     25  C   UNL     1       2.471   3.674  17.370  0.00  0.00    +0.000 C 
ATOM     26  C   UNL     1       2.160   4.962  18.108  0.00  0.00    +0.000 C 
ATOM     27  C   UNL     1       2.113   4.540  19.562  0.00  0.00    +0.000 C 
ATOM     28  O   UNL     1       1.834   3.132  19.592  0.00  0.00    +0.000 OA
ATOM     29  C   UNL     1       1.765   2.650  18.243  0.00  0.00    +0.000 C 
ENDBRANCH  24  25
ENDBRANCH  22  24
ENDBRANCH   1  21
TORSDOF 4
ENDMDL
MODEL 4
REMARK VINA RESULT:      -7.7      1.978      2.909
REMARK  Name = 
REMARK  4 active torsions:
REMARK  status: ('A' for Active; 'I' for Inactive)
REMARK    1  A    between atoms: C_2  and  C_10
REMARK    2  A    between atoms: N_3  and  C_4
REMARK    3  A    between atoms: C_4  and  C_5
REMARK    4  A    between atoms: C_13  and  N_14
REMARK                            x       y       z     vdW  Elec       q    Type
REMARK                         _______ _______ _______ _____ _____    ______ ____
ROOT
ATOM      1  C   UNL     1       2.853   6.879  18.936  0.00  0.00    +0.000 A 
ATOM      2  C   UNL     1       2.184   6.924  20.162  0.00  0.00    +0.000 A 
ATOM      3  C   UNL     1       1.330   7.992  20.465  0.00  0.00    +0.000 A 
ATOM      4  C   UNL     1       1.124   9.028  19.549  0.00  0.00    +0.000 A 
ATOM      5  C   UNL     1       1.747   8.948  18.297  0.00  0.00    +0.000 A 
ATOM      6  C   UNL     1       2.614   7.886  17.993  0.00  0.00    +0.000 A 
ENDROOT
BRANCH   4   7
ATOM      7  N   UNL     1       0.307  10.152  19.821  0.00  0.00    +0.000 N 
ATOM      8  C   UNL     1       0.431  10.981  20.914  0.00  0.00    +0.000 C 
ATOM      9  O   UNL     1       1.324  10.901  21.756  0.00  0.00    +0.000 OA
ATOM     10  N   UNL     1      -0.513  11.977  21.006  0.00  0.00    +0.000 N 
ATOM     11  C   UNL     1      -0.400  12.967  22.078  0.00  0.00    +0.000 C 
ATOM     12  C   UNL     1      -1.646  13.774  21.958  0.00  0.00    +0.000 A 
ATOM     13  C   UNL     1      -2.061  14.873  22.688  0.00  0.00    +0.000 A 
ATOM     14  C   UNL     1      -3.301  15.422  22.371  0.00  0.00    +0.000 A 
ATOM     15  C   UNL     1      -4.054  14.847  21.345  0.00  0.00    +0.000 A 
ATOM     16  N   UNL     1      -3.660  13.774  20.614  0.00  0.00    +0.000 NA
ATOM     17  C   UNL     1      -2.459  13.270  20.951  0.00  0.00    +0.000 A 
ATOM     18  C   UNL     1      -1.799  12.077  20.307  0.00  0.00    +0.000 C 
ATOM     19  H   UNL     1      -0.196  10.537  19.038  0.00  0.00    +0.000 HD
ENDBRANCH   4   7
BRANCH   1  21
ATOM     20  O   UNL     1       4.644   5.455  19.512  0.00  0.00    +0.000 OA
ATOM     21  C   UNL     1       3.796   5.750  18.680  0.00  0.00    +0.000 C 
ATOM     22  N   UNL     1       3.676   5.132  17.453  0.00  0.00    +0.000 N 
ATOM     23  H   UNL     1       3.064   5.539  16.755  0.00  0.00    +0.000 HD
BRANCH  22  24
ATOM     24  C   UNL     1       4.573   4.080  17.014  0.00  0.00    +0.000 C 
BRANCH  24  25
ATOM     25  C   UNL     1       5.601   4.520  15.957  0.00  0.00    +0.000 C 
ATOM     26  C   UNL     1       7.019   4.626  16.485  0.00  0.00    +0.000 C 
ATOM     27  C   UNL     1       7.108   6.052  16.989  0.00  0.00    +0.000 C 
ATOM     28  O   UNL     1       6.104   6.814  16.299  0.00  0.00    +0.000 OA
ATOM     29  C   UNL     1       5.364   5.931  15.445  0.00  0.00    +0.000 C 
ENDBRANCH  24  25
ENDBRANCH  22  24
ENDBRANCH   1  21
TORSDOF 4
ENDMDL
MODEL 5
REMARK VINA RESULT:      -7.7      3.446      4.874
REMARK  Name = 
REMARK  4 active torsions:
REMARK  status: ('A' for Active; 'I' for Inactive)
REMARK    1  A    between atoms: C_2  and  C_10
REMARK    2  A    between atoms: N_3  and  C_4
REMARK    3  A    between atoms: C_4  and  C_5
REMARK    4  A    between atoms: C_13  and  N_14
REMARK                            x       y       z     vdW  Elec       q    Type
REMARK                         _______ _______ _______ _____ _____    ______ ____
ROOT
ATOM      1  C   UNL     1       4.731   5.469  16.897  0.00  0.00    +0.000 A 
ATOM      2  C   UNL     1       3.749   4.858  17.681  0.00  0.00    +0.000 A 
ATOM      3  C   UNL     1       2.847   5.634  18.419  0.00  0.00    +0.000 A 
ATOM      4  C   UNL     1       2.903   7.031  18.380  0.00  0.00    +0.000 A 
ATOM      5  C   UNL     1       3.848   7.639  17.544  0.00  0.00    +0.000 A 
ATOM      6  C   UNL     1       4.763   6.867  16.813  0.00  0.00    +0.000 A 
ENDROOT
BRANCH   4   7
ATOM      7  N   UNL     1       2.044   7.862  19.139  0.00  0.00    +0.000 N 
ATOM      8  C   UNL     1       1.428   9.005  18.677  0.00  0.00    +0.000 C 
ATOM      9  O   UNL     1       1.479   9.407  17.516  0.00  0.00    +0.000 OA
ATOM     10  N   UNL     1       0.684   9.689  19.610  0.00  0.00    +0.000 N 
ATOM     11  C   UNL     1      -0.088  10.857  19.185  0.00  0.00    +0.000 C 
ATOM     12  C   UNL     1      -0.628  11.416  20.456  0.00  0.00    +0.000 A 
ATOM     13  C   UNL     1      -1.459  12.502  20.662  0.00  0.00    +0.000 A 
ATOM     14  C   UNL     1      -1.790  12.816  21.978  0.00  0.00    +0.000 A 
ATOM     15  C   UNL     1      -1.276  12.030  23.011  0.00  0.00    +0.000 A 
ATOM     16  N   UNL     1      -0.464  10.958  22.828  0.00  0.00    +0.000 NA
ATOM     17  C   UNL     1      -0.165  10.687  21.545  0.00  0.00    +0.000 A 
ATOM     18  C   UNL     1       0.722   9.564  21.072  0.00  0.00    +0.000 C 
ATOM     19  H   UNL     1       1.631   7.446  19.958  0.00  0.00    +0.000 HD
ENDBRANCH   4   7
BRANCH   1  21
ATOM     20  O   UNL     1       6.726   4.218  16.733  0.00  0.00    +0.000 OA
ATOM     21  C   UNL     1       5.706   4.601  16.172  0.00  0.00    +0.000 C 
ATOM     22  N   UNL     1       5.406   4.327  14.854  0.00  0.00    +0.000 N 
ATOM     23  H   UNL     1       4.634   4.815  14.415  0.00  0.00    +0.000 HD
BRANCH  22  24
ATOM     24  C   UNL     1       6.294   3.575  13.987  0.00  0.00    +0.000 C 
BRANCH  24  25
ATOM     25  C   UNL     1       6.116   3.867  12.487  0.00  0.00    +0.000 C 
ATOM     26  C   UNL     1       4.989   3.087  11.839  0.00  0.00    +0.000 C 
ATOM     27  C   UNL     1       5.654   1.804  11.386  0.00  0.00    +0.000 C 
ATOM     28  O   UNL     1       7.059   2.073  11.251  0.00  0.00    +0.000 OA
ATOM     29  C   UNL     1       7.306   3.428  11.649  0.00  0.00    +0.000 C 
ENDBRANCH  24  25
ENDBRANCH  22  24
ENDBRANCH   1  21
TORSDOF 4
ENDMDL
MODEL 6
REMARK VINA RESULT:      -7.7      0.542      1.073
REMARK  Name = 
REMARK  4 active torsions:
REMARK  status: ('A' for Active; 'I' for Inactive)
REMARK    1  A    between atoms: C_2  and  C_10
REMARK    2  A    between atoms: N_3  and  C_4
REMARK    3  A    between atoms: C_4  and  C_5
REMARK    4  A    between atoms: C_13  and  N_14
REMARK                            x       y       z     vdW  Elec       q    Type
REMARK                         _______ _______ _______ _____ _____    ______ ____
ROOT
ATOM      1  C   UNL     1       2.485   7.483  18.809  0.00  0.00    +0.000 A 
ATOM      2  C   UNL     1       2.102   7.242  20.130  0.00  0.00    +0.000 A 
ATOM      3  C   UNL     1       1.277   8.148  20.807  0.00  0.00    +0.000 A 
ATOM      4  C   UNL     1       0.814   9.306  20.174  0.00  0.00    +0.000 A 
ATOM      5  C   UNL     1       1.148   9.514  18.830  0.00  0.00    +0.000 A 
ATOM      6  C   UNL     1       1.985   8.614  18.151  0.00  0.00    +0.000 A 
ENDROOT
BRANCH   4   7
ATOM      7  N   UNL     1       0.014  10.278  20.824  0.00  0.00    +0.000 N 
ATOM      8  C   UNL     1       0.445  11.520  21.233  0.00  0.00    +0.000 C 
ATOM      9  O   UNL     1       1.564  11.981  21.013  0.00  0.00    +0.000 OA
ATOM     10  N   UNL     1      -0.490  12.277  21.901  0.00  0.00    +0.000 N 
ATOM     11  C   UNL     1      -0.154  13.648  22.283  0.00  0.00    +0.000 C 
ATOM     12  C   UNL     1      -1.319  14.092  23.098  0.00  0.00    +0.000 A 
ATOM     13  C   UNL     1      -1.566  15.316  23.693  0.00  0.00    +0.000 A 
ATOM     14  C   UNL     1      -2.743  15.446  24.426  0.00  0.00    +0.000 A 
ATOM     15  C   UNL     1      -3.605  14.352  24.523  0.00  0.00    +0.000 A 
ATOM     16  N   UNL     1      -3.382  13.147  23.942  0.00  0.00    +0.000 NA
ATOM     17  C   UNL     1      -2.236  13.058  23.244  0.00  0.00    +0.000 A 
ATOM     18  C   UNL     1      -1.746  11.832  22.516  0.00  0.00    +0.000 C 
ATOM     19  H   UNL     1      -0.983  10.176  20.720  0.00  0.00    +0.000 HD
ENDBRANCH   4   7
BRANCH   1  21
ATOM     20  O   UNL     1       4.034   6.846  17.146  0.00  0.00    +0.000 OA
ATOM     21  C   UNL     1       3.411   6.516  18.147  0.00  0.00    +0.000 C 
ATOM     22  N   UNL     1       3.458   5.253  18.700  0.00  0.00    +0.000 N 
ATOM     23  H   UNL     1       2.791   5.008  19.422  0.00  0.00    +0.000 HD
BRANCH  22  24
ATOM     24  C   UNL     1       4.237   4.174  18.123  0.00  0.00    +0.000 C 
BRANCH  24  25
ATOM     25  C   UNL     1       3.992   2.797  18.765  0.00  0.00    +0.000 C 
ATOM     26  C   UNL     1       3.004   1.932  18.005  0.00  0.00    +0.000 C 
ATOM     27  C   UNL     1       1.663   2.313  18.598  0.00  0.00    +0.000 C 
ATOM     28  O   UNL     1       1.910   2.855  19.905  0.00  0.00    +0.000 OA
ATOM     29  C   UNL     1       3.327   2.886  20.128  0.00  0.00    +0.000 C 
ENDBRANCH  24  25
ENDBRANCH  22  24
ENDBRANCH   1  21
TORSDOF 4
ENDMDL
MODEL 7
REMARK VINA RESULT:      -7.6      2.589      3.581
REMARK  Name = 
REMARK  4 active torsions:
REMARK  status: ('A' for Active; 'I' for Inactive)
REMARK    1  A    between atoms: C_2  and  C_10
REMARK    2  A    between atoms: N_3  and  C_4
REMARK    3  A    between atoms: C_4  and  C_5
REMARK    4  A    between atoms: C_13  and  N_14
REMARK                            x       y       z     vdW  Elec       q    Type
REMARK                         _______ _______ _______ _____ _____    ______ ____
ROOT
ATOM      1  C   UNL     1       2.814   6.938  18.762  0.00  0.00    +0.000 A 
ATOM      2  C   UNL     1       2.223   7.224  19.995  0.00  0.00    +0.000 A 
ATOM      3  C   UNL     1       1.478   8.396  20.170  0.00  0.00    +0.000 A 
ATOM      4  C   UNL     1       1.304   9.299  19.116  0.00  0.00    +0.000 A 
ATOM      5  C   UNL     1       1.845   8.979  17.865  0.00  0.00    +0.000 A 
ATOM      6  C   UNL     1       2.603   7.811  17.687  0.00  0.00    +0.000 A 
ENDROOT
BRANCH   4   7
ATOM      7  N   UNL     1       0.597  10.520  19.250  0.00  0.00    +0.000 N 
ATOM      8  C   UNL     1       1.091  11.765  18.928  0.00  0.00    +0.000 C 
ATOM      9  O   UNL     1       2.185  11.971  18.404  0.00  0.00    +0.000 OA
ATOM     10  N   UNL     1       0.249  12.818  19.198  0.00  0.00    +0.000 N 
ATOM     11  C   UNL     1       0.647  14.167  18.797  0.00  0.00    +0.000 C 
ATOM     12  C   UNL     1      -0.411  15.043  19.373  0.00  0.00    +0.000 A 
ATOM     13  C   UNL     1      -0.571  16.414  19.281  0.00  0.00    +0.000 A 
ATOM     14  C   UNL     1      -1.655  16.979  19.949  0.00  0.00    +0.000 A 
ATOM     15  C   UNL     1      -2.516  16.148  20.667  0.00  0.00    +0.000 A 
ATOM     16  N   UNL     1      -2.379  14.801  20.763  0.00  0.00    +0.000 NA
ATOM     17  C   UNL     1      -1.320  14.292  20.108  0.00  0.00    +0.000 A 
ATOM     18  C   UNL     1      -0.935  12.835  20.065  0.00  0.00    +0.000 C 
ATOM     19  H   UNL     1      -0.406  10.450  19.303  0.00  0.00    +0.000 HD
ENDBRANCH   4   7
BRANCH   1  21
ATOM     20  O   UNL     1       4.242   5.263  19.614  0.00  0.00    +0.000 OA
ATOM     21  C   UNL     1       3.646   5.704  18.639  0.00  0.00    +0.000 C 
ATOM     22  N   UNL     1       3.732   5.160  17.374  0.00  0.00    +0.000 N 
ATOM     23  H   UNL     1       3.349   5.674  16.591  0.00  0.00    +0.000 HD
BRANCH  22  24
ATOM     24  C   UNL     1       4.571   4.015  17.070  0.00  0.00    +0.000 C 
BRANCH  24  25
ATOM     25  C   UNL     1       5.719   4.311  16.089  0.00  0.00    +0.000 C 
ATOM     26  C   UNL     1       7.059   4.542  16.763  0.00  0.00    +0.000 C 
ATOM     27  C   UNL     1       7.071   6.031  17.037  0.00  0.00    +0.000 C 
ATOM     28  O   UNL     1       6.155   6.645  16.116  0.00  0.00    +0.000 OA
ATOM     29  C   UNL     1       5.536   5.616  15.332  0.00  0.00    +0.000 C 
ENDBRANCH  24  25
ENDBRANCH  22  24
ENDBRANCH   1  21
TORSDOF 4
ENDMDL
MODEL 8
REMARK VINA RESULT:      -7.6      1.381      1.458
REMARK  Name = 
REMARK  4 active torsions:
REMARK  status: ('A' for Active; 'I' for Inactive)
REMARK    1  A    between atoms: C_2  and  C_10
REMARK    2  A    between atoms: N_3  and  C_4
REMARK    3  A    between atoms: C_4  and  C_5
REMARK    4  A    between atoms: C_13  and  N_14
REMARK                            x       y       z     vdW  Elec       q    Type
REMARK                         _______ _______ _______ _____ _____    ______ ____
ROOT
ATOM      1  C   UNL     1       2.798   7.068  18.711  0.00  0.00    +0.000 A 
ATOM      2  C   UNL     1       2.583   8.129  17.827  0.00  0.00    +0.000 A 
ATOM      3  C   UNL     1       1.744   9.191  18.184  0.00  0.00    +0.000 A 
ATOM      4  C   UNL     1       1.112   9.217  19.431  0.00  0.00    +0.000 A 
ATOM      5  C   UNL     1       1.378   8.185  20.338  0.00  0.00    +0.000 A 
ATOM      6  C   UNL     1       2.209   7.111  19.981  0.00  0.00    +0.000 A 
ENDROOT
BRANCH   4   7
ATOM      7  N   UNL     1       0.219  10.244  19.826  0.00  0.00    +0.000 N 
ATOM      8  C   UNL     1       0.222  10.874  21.051  0.00  0.00    +0.000 C 
ATOM      9  O   UNL     1       1.056  10.683  21.935  0.00  0.00    +0.000 OA
ATOM     10  N   UNL     1      -0.777  11.801  21.238  0.00  0.00    +0.000 N 
ATOM     11  C   UNL     1      -0.792  12.592  22.468  0.00  0.00    +0.000 C 
ATOM     12  C   UNL     1      -2.066  13.359  22.389  0.00  0.00    +0.000 A 
ATOM     13  C   UNL     1      -2.590  14.296  23.262  0.00  0.00    +0.000 A 
ATOM     14  C   UNL     1      -3.831  14.844  22.946  0.00  0.00    +0.000 A 
ATOM     15  C   UNL     1      -4.477  14.428  21.780  0.00  0.00    +0.000 A 
ATOM     16  N   UNL     1      -3.977  13.515  20.910  0.00  0.00    +0.000 NA
ATOM     17  C   UNL     1      -2.779  13.007  21.250  0.00  0.00    +0.000 A 
ATOM     18  C   UNL     1      -2.013  11.972  20.466  0.00  0.00    +0.000 C 
ATOM     19  H   UNL     1      -0.246  10.740  19.083  0.00  0.00    +0.000 HD
ENDBRANCH   4   7
BRANCH   1  21
ATOM     20  O   UNL     1       3.986   5.832  17.089  0.00  0.00    +0.000 OA
ATOM     21  C   UNL     1       3.656   5.931  18.265  0.00  0.00    +0.000 C 
ATOM     22  N   UNL     1       3.982   5.006  19.235  0.00  0.00    +0.000 N 
ATOM     23  H   UNL     1       3.536   5.067  20.142  0.00  0.00    +0.000 HD
BRANCH  22  24
ATOM     24  C   UNL     1       4.732   3.798  18.945  0.00  0.00    +0.000 C 
BRANCH  24  25
ATOM     25  C   UNL     1       4.035   2.497  19.378  0.00  0.00    +0.000 C 
ATOM     26  C   UNL     1       3.348   1.761  18.243  0.00  0.00    +0.000 C 
ATOM     27  C   UNL     1       1.955   2.357  18.220  0.00  0.00    +0.000 C 
ATOM     28  O   UNL     1       1.700   2.903  19.524  0.00  0.00    +0.000 OA
ATOM     29  C   UNL     1       2.874   2.731  20.330  0.00  0.00    +0.000 C 
ENDBRANCH  24  25
ENDBRANCH  22  24
ENDBRANCH   1  21
TORSDOF 4
ENDMDL
MODEL 9
REMARK VINA RESULT:      -7.6      1.493      1.932
REMARK  Name = 
REMARK  4 active torsions:
REMARK  status: ('A' for Active; 'I' for Inactive)
REMARK    1  A    between atoms: C_2  and  C_10
REMARK    2  A    between atoms: N_3  and  C_4
REMARK    3  A    between atoms: C_4  and  C_5
REMARK    4  A    between atoms: C_13  and  N_14
REMARK                            x       y       z     vdW  Elec       q    Type
REMARK                         _______ _______ _______ _____ _____    ______ ____
ROOT
ATOM      1  C   UNL     1       2.700   6.980  18.891  0.00  0.00    +0.000 A 
ATOM      2  C   UNL     1       2.195   6.921  20.192  0.00  0.00    +0.000 A 
ATOM      3  C   UNL     1       1.412   7.966  20.697  0.00  0.00    +0.000 A 
ATOM      4  C   UNL     1       1.114   9.083  19.910  0.00  0.00    +0.000 A 
ATOM      5  C   UNL     1       1.569   9.110  18.587  0.00  0.00    +0.000 A 
ATOM      6  C   UNL     1       2.365   8.071  18.079  0.00  0.00    +0.000 A 
ENDROOT
BRANCH   4   7
ATOM      7  N   UNL     1       0.364  10.187  20.385  0.00  0.00    +0.000 N 
ATOM      8  C   UNL     1      -0.350  10.218  21.563  0.00  0.00    +0.000 C 
ATOM      9  O   UNL     1      -0.361   9.316  22.399  0.00  0.00    +0.000 OA
ATOM     10  N   UNL     1      -1.054  11.377  21.793  0.00  0.00    +0.000 N 
ATOM     11  C   UNL     1      -1.758  11.540  23.065  0.00  0.00    +0.000 C 
ATOM     12  C   UNL     1      -2.513  12.813  22.899  0.00  0.00    +0.000 A 
ATOM     13  C   UNL     1      -3.326  13.482  23.796  0.00  0.00    +0.000 A 
ATOM     14  C   UNL     1      -3.933  14.657  23.359  0.00  0.00    +0.000 A 
ATOM     15  C   UNL     1      -3.694  15.098  22.056  0.00  0.00    +0.000 A 
ATOM     16  N   UNL     1      -2.896  14.459  21.165  0.00  0.00    +0.000 NA
ATOM     17  C   UNL     1      -2.329  13.328  21.622  0.00  0.00    +0.000 A 
ATOM     18  C   UNL     1      -1.414  12.427  20.833  0.00  0.00    +0.000 C 
ATOM     19  H   UNL     1       0.598  11.085  19.995  0.00  0.00    +0.000 HD
ENDBRANCH   4   7
BRANCH   1  21
ATOM     20  O   UNL     1       3.821   5.743  17.222  0.00  0.00    +0.000 OA
ATOM     21  C   UNL     1       3.576   5.868  18.415  0.00  0.00    +0.000 C 
ATOM     22  N   UNL     1       4.019   4.993  19.386  0.00  0.00    +0.000 N 
ATOM     23  H   UNL     1       3.640   5.065  20.322  0.00  0.00    +0.000 HD
BRANCH  22  24
ATOM     24  C   UNL     1       4.803   3.811  19.077  0.00  0.00    +0.000 C 
BRANCH  24  25
ATOM     25  C   UNL     1       4.097   2.480  19.389  0.00  0.00    +0.000 C 
ATOM     26  C   UNL     1       3.512   1.795  18.169  0.00  0.00    +0.000 C 
ATOM     27  C   UNL     1       2.115   2.372  18.068  0.00  0.00    +0.000 C 
ATOM     28  O   UNL     1       1.751   2.847  19.374  0.00  0.00    +0.000 OA
ATOM     29  C   UNL     1       2.862   2.650  20.259  0.00  0.00    +0.000 C 
ENDBRANCH  24  25
ENDBRANCH  22  24
ENDBRANCH   1  21
TORSDOF 4
ENDMDL
