MODEL 1
REMARK VINA RESULT:      -9.0      0.000      0.000
REMARK  Name = 
REMARK  6 active torsions:
REMARK  status: ('A' for Active; 'I' for Inactive)
REMARK    1  A    between atoms: C_1  and  C_2
REMARK    2  A    between atoms: N_4  and  C_5
REMARK    3  A    between atoms: C_5  and  C_6
REMARK    4  A    between atoms: N_8  and  C_9
REMARK    5  A    between atoms: C_12  and  N_13
REMARK    6  A    between atoms: C_20  and  C_21
REMARK                            x       y       z     vdW  Elec       q    Type
REMARK                         _______ _______ _______ _____ _____    ______ ____
ROOT
ATOM      1  C   UNL     1       2.817   6.886  18.765  0.00  0.00    +0.000 A 
ATOM      2  C   UNL     1       2.224   6.932  20.029  0.00  0.00    +0.000 A 
ATOM      3  C   UNL     1       1.450   8.033  20.430  0.00  0.00    +0.000 A 
ATOM      4  C   UNL     1       1.217   9.110  19.570  0.00  0.00    +0.000 A 
ATOM      5  C   UNL     1       1.778   9.022  18.287  0.00  0.00    +0.000 A 
ATOM      6  F   UNL     1       1.578  10.015  17.400  0.00  0.00    +0.000 F 
ATOM      7  C   UNL     1       2.578   7.950  17.889  0.00  0.00    +0.000 A 
ENDROOT
BRANCH   4   8
ATOM      8  N   UNL     1       0.509  10.252  19.949  0.00  0.00    +0.000 N 
ATOM      9  C   UNL     1       0.608  10.724  21.350  0.00  0.00    +0.000 C 
ATOM     10  C   UNL     1       0.072  12.176  21.459  0.00  0.00    +0.000 C 
ATOM     11  N   UNL     1      -1.302  12.190  20.943  0.00  0.00    +0.000 N 
ATOM     12  C   UNL     1      -2.255  12.971  21.558  0.00  0.00    +0.000 A 
ATOM     13  C   UNL     1      -3.601  12.643  21.441  0.00  0.00    +0.000 A 
ATOM     14  C   UNL     1      -4.562  13.347  22.160  0.00  0.00    +0.000 A 
ATOM     15  C   UNL     1      -4.154  14.382  22.978  0.00  0.00    +0.000 A 
ATOM     16  C   UNL     1      -5.128  15.180  23.781  0.00  0.00    +0.000 C 
ATOM     17  N   UNL     1      -2.852  14.710  23.074  0.00  0.00    +0.000 NA
ATOM     18  N   UNL     1      -1.904  13.988  22.373  0.00  0.00    +0.000 NA
ATOM     19  C   UNL     1      -1.419  11.772  19.539  0.00  0.00    +0.000 C 
ATOM     20  C   UNL     1      -0.866  10.333  19.393  0.00  0.00    +0.000 C 
ENDBRANCH   4   8
BRANCH   1  23
ATOM     21  C   UNL     1       5.508   4.451  18.164  0.00  0.00    +0.000 C 
ATOM     22  C   UNL     1       5.084   5.892  18.348  0.00  0.00    +0.000 C 
ATOM     23  N   UNL     1       3.655   5.809  18.373  0.00  0.00    +0.000 N 
ATOM     24  C   UNL     1       3.254   4.581  17.869  0.00  0.00    +0.000 C 
ATOM     25  O   UNL     1       2.128   4.189  17.619  0.00  0.00    +0.000 OA
ATOM     26  O   UNL     1       4.358   3.806  17.602  0.00  0.00    +0.000 OA
BRANCH  21  27
ATOM     27  C   UNL     1       6.686   4.320  17.209  0.00  0.00    +0.000 C 
BRANCH  27  31
ATOM     28  C   UNL     1       6.235   3.869  13.491  0.00  0.00    +0.000 C 
ATOM     29  C   UNL     1       6.752   4.444  14.779  0.00  0.00    +0.000 C 
ATOM     30  O   UNL     1       7.518   5.401  14.817  0.00  0.00    +0.000 OA
ATOM     31  N   UNL     1       6.308   3.792  15.909  0.00  0.00    +0.000 N 
ATOM     32  H   UNL     1       5.436   3.277  15.839  0.00  0.00    +0.000 HD
ENDBRANCH  27  31
ENDBRANCH  21  27
ENDBRANCH   1  23
TORSDOF 4
ENDMDL
MODEL 2
REMARK VINA RESULT:      -8.8      0.925      1.261
REMARK  Name = 
REMARK  6 active torsions:
REMARK  status: ('A' for Active; 'I' for Inactive)
REMARK    1  A    between atoms: C_1  and  C_2
REMARK    2  A    between atoms: N_4  and  C_5
REMARK    3  A    between atoms: C_5  and  C_6
REMARK    4  A    between atoms: N_8  and  C_9
REMARK    5  A    between atoms: C_12  and  N_13
REMARK    6  A    between atoms: C_20  and  C_21
REMARK                            x       y       z     vdW  Elec       q    Type
REMARK                         _______ _______ _______ _____ _____    ______ ____
ROOT
ATOM      1  C   UNL     1       2.671   7.232  18.677  0.00  0.00    +0.000 A 
ATOM      2  C   UNL     1       2.496   8.259  17.747  0.00  0.00    +0.000 A 
ATOM      3  C   UNL     1       1.715   9.388  18.048  0.00  0.00    +0.000 A 
ATOM      4  C   UNL     1       1.111   9.540  19.299  0.00  0.00    +0.000 A 
ATOM      5  C   UNL     1       1.341   8.523  20.237  0.00  0.00    +0.000 A 
ATOM      6  F   UNL     1       0.805   8.614  21.468  0.00  0.00    +0.000 F 
ATOM      7  C   UNL     1       2.086   7.381  19.938  0.00  0.00    +0.000 A 
ENDROOT
BRANCH   4   8
ATOM      8  N   UNL     1       0.276  10.613  19.619  0.00  0.00    +0.000 N 
ATOM      9  C   UNL     1       0.508  11.347  20.885  0.00  0.00    +0.000 C 
ATOM     10  C   UNL     1      -0.257  12.697  20.862  0.00  0.00    +0.000 C 
ATOM     11  N   UNL     1      -1.675  12.409  20.615  0.00  0.00    +0.000 N 
ATOM     12  C   UNL     1      -2.645  13.139  21.266  0.00  0.00    +0.000 A 
ATOM     13  C   UNL     1      -3.911  12.596  21.454  0.00  0.00    +0.000 A 
ATOM     14  C   UNL     1      -4.858  13.269  22.219  0.00  0.00    +0.000 A 
ATOM     15  C   UNL     1      -4.520  14.488  22.774  0.00  0.00    +0.000 A 
ATOM     16  C   UNL     1      -5.484  15.266  23.609  0.00  0.00    +0.000 C 
ATOM     17  N   UNL     1      -3.299  15.019  22.574  0.00  0.00    +0.000 NA
ATOM     18  N   UNL     1      -2.359  14.330  21.832  0.00  0.00    +0.000 NA
ATOM     19  C   UNL     1      -1.933  11.724  19.340  0.00  0.00    +0.000 C 
ATOM     20  C   UNL     1      -1.160  10.383  19.322  0.00  0.00    +0.000 C 
ENDBRANCH   4   8
BRANCH   1  23
ATOM     21  C   UNL     1       5.095   4.489  18.303  0.00  0.00    +0.000 C 
ATOM     22  C   UNL     1       4.830   5.973  18.436  0.00  0.00    +0.000 C 
ATOM     23  N   UNL     1       3.403   6.056  18.361  0.00  0.00    +0.000 N 
ATOM     24  C   UNL     1       2.897   4.872  17.847  0.00  0.00    +0.000 C 
ATOM     25  O   UNL     1       1.753   4.607  17.524  0.00  0.00    +0.000 OA
ATOM     26  O   UNL     1       3.919   3.969  17.671  0.00  0.00    +0.000 OA
BRANCH  21  27
ATOM     27  C   UNL     1       6.312   4.202  17.436  0.00  0.00    +0.000 C 
BRANCH  27  31
ATOM     28  C   UNL     1       6.049   3.881  13.687  0.00  0.00    +0.000 C 
ATOM     29  C   UNL     1       6.541   4.372  15.018  0.00  0.00    +0.000 C 
ATOM     30  O   UNL     1       7.395   5.246  15.129  0.00  0.00    +0.000 OA
ATOM     31  N   UNL     1       5.964   3.744  16.101  0.00  0.00    +0.000 N 
ATOM     32  H   UNL     1       5.052   3.322  15.965  0.00  0.00    +0.000 HD
ENDBRANCH  27  31
ENDBRANCH  21  27
ENDBRANCH   1  23
TORSDOF 4
ENDMDL
MODEL 3
REMARK VINA RESULT:      -8.5      1.466      1.613
REMARK  Name = 
REMARK  6 active torsions:
REMARK  status: ('A' for Active; 'I' for Inactive)
REMARK    1  A    between atoms: C_1  and  C_2
REMARK    2  A    between atoms: N_4  and  C_5
REMARK    3  A    between atoms: C_5  and  C_6
REMARK    4  A    between atoms: N_8  and  C_9
REMARK    5  A    between atoms: C_12  and  N_13
REMARK    6  A    between atoms: C_20  and  C_21
REMARK                            x       y       z     vdW  Elec       q    Type
REMARK                         _______ _______ _______ _____ _____    ______ ____
ROOT
ATOM      1  C   UNL     1       2.743   6.970  18.779  0.00  0.00    +0.000 A 
ATOM      2  C   UNL     1       2.204   7.054  20.065  0.00  0.00    +0.000 A 
ATOM      3  C   UNL     1       1.478   8.183  20.478  0.00  0.00    +0.000 A 
ATOM      4  C   UNL     1       1.240   9.252  19.609  0.00  0.00    +0.000 A 
ATOM      5  C   UNL     1       1.744   9.127  18.306  0.00  0.00    +0.000 A 
ATOM      6  F   UNL     1       1.535  10.109  17.411  0.00  0.00    +0.000 F 
ATOM      7  C   UNL     1       2.497   8.025  17.895  0.00  0.00    +0.000 A 
ENDROOT
BRANCH   4   8
ATOM      8  N   UNL     1       0.579  10.419  19.996  0.00  0.00    +0.000 N 
ATOM      9  C   UNL     1       1.331  11.695  20.012  0.00  0.00    +0.000 C 
ATOM     10  C   UNL     1       0.345  12.891  20.094  0.00  0.00    +0.000 C 
ATOM     11  N   UNL     1      -0.493  12.703  21.284  0.00  0.00    +0.000 N 
ATOM     12  C   UNL     1      -0.847  13.791  22.051  0.00  0.00    +0.000 A 
ATOM     13  C   UNL     1      -1.180  13.617  23.390  0.00  0.00    +0.000 A 
ATOM     14  C   UNL     1      -1.414  14.719  24.206  0.00  0.00    +0.000 A 
ATOM     15  C   UNL     1      -1.321  15.983  23.657  0.00  0.00    +0.000 A 
ATOM     16  C   UNL     1      -1.556  17.212  24.473  0.00  0.00    +0.000 C 
ATOM     17  N   UNL     1      -1.016  16.148  22.356  0.00  0.00    +0.000 NA
ATOM     18  N   UNL     1      -0.763  15.045  21.562  0.00  0.00    +0.000 NA
ATOM     19  C   UNL     1      -1.287  11.465  21.268  0.00  0.00    +0.000 C 
ATOM     20  C   UNL     1      -0.329  10.253  21.159  0.00  0.00    +0.000 C 
ENDBRANCH   4   8
BRANCH   1  23
ATOM     21  C   UNL     1       5.321   4.421  18.158  0.00  0.00    +0.000 C 
ATOM     22  C   UNL     1       4.965   5.876  18.374  0.00  0.00    +0.000 C 
ATOM     23  N   UNL     1       3.534   5.863  18.373  0.00  0.00    +0.000 N 
ATOM     24  C   UNL     1       3.083   4.670  17.830  0.00  0.00    +0.000 C 
ATOM     25  O   UNL     1       1.943   4.340  17.552  0.00  0.00    +0.000 OA
ATOM     26  O   UNL     1       4.152   3.848  17.561  0.00  0.00    +0.000 OA
BRANCH  21  27
ATOM     27  C   UNL     1       6.509   4.257  17.220  0.00  0.00    +0.000 C 
BRANCH  27  31
ATOM     28  C   UNL     1       6.094   3.829  13.495  0.00  0.00    +0.000 C 
ATOM     29  C   UNL     1       6.610   4.386  14.791  0.00  0.00    +0.000 C 
ATOM     30  O   UNL     1       7.401   5.322  14.842  0.00  0.00    +0.000 OA
ATOM     31  N   UNL     1       6.133   3.743  15.913  0.00  0.00    +0.000 N 
ATOM     32  H   UNL     1       5.248   3.252  15.830  0.00  0.00    +0.000 HD
ENDBRANCH  27  31
ENDBRANCH  21  27
ENDBRANCH   1  23
TORSDOF 4
ENDMDL
MODEL 4
REMARK VINA RESULT:      -8.4      1.531      2.077
REMARK  Name = 
REMARK  6 active torsions:
REMARK  status: ('A' for Active; 'I' for Inactive)
REMARK    1  A    between atoms: C_1  and  C_2
REMARK    2  A    between atoms: N_4  and  C_5
REMARK    3  A    between atoms: C_5  and  C_6
REMARK    4  A    between atoms: N_8  and  C_9
REMARK    5  A    between atoms: C_12  and  N_13
REMARK    6  A    between atoms: C_20  and  C_21
REMARK                            x       y       z     vdW  Elec       q    Type
REMARK                         _______ _______ _______ _____ _____    ______ ____
ROOT
ATOM      1  C   UNL     1       2.908   6.931  18.672  0.00  0.00    +0.000 A 
ATOM      2  C   UNL     1       2.637   8.035  17.860  0.00  0.00    +0.000 A 
ATOM      3  C   UNL     1       1.792   9.069  18.297  0.00  0.00    +0.000 A 
ATOM      4  C   UNL     1       1.217   9.048  19.570  0.00  0.00    +0.000 A 
ATOM      5  C   UNL     1       1.543   7.958  20.390  0.00  0.00    +0.000 A 
ATOM      6  F   UNL     1       1.039   7.883  21.636  0.00  0.00    +0.000 F 
ATOM      7  C   UNL     1       2.352   6.907  19.955  0.00  0.00    +0.000 A 
ENDROOT
BRANCH   4   8
ATOM      8  N   UNL     1       0.323  10.022  20.020  0.00  0.00    +0.000 N 
ATOM      9  C   UNL     1      -0.377  10.867  19.024  0.00  0.00    +0.000 C 
ATOM     10  C   UNL     1      -1.572  11.595  19.693  0.00  0.00    +0.000 C 
ATOM     11  N   UNL     1      -1.055  12.359  20.834  0.00  0.00    +0.000 N 
ATOM     12  C   UNL     1      -1.572  13.605  21.115  0.00  0.00    +0.000 A 
ATOM     13  C   UNL     1      -0.809  14.530  21.818  0.00  0.00    +0.000 A 
ATOM     14  C   UNL     1      -1.269  15.831  21.996  0.00  0.00    +0.000 A 
ATOM     15  C   UNL     1      -2.499  16.178  21.473  0.00  0.00    +0.000 A 
ATOM     16  C   UNL     1      -3.055  17.556  21.622  0.00  0.00    +0.000 C 
ATOM     17  N   UNL     1      -3.243  15.275  20.808  0.00  0.00    +0.000 NA
ATOM     18  N   UNL     1      -2.765  13.992  20.618  0.00  0.00    +0.000 NA
ATOM     19  C   UNL     1      -0.400  11.534  21.859  0.00  0.00    +0.000 C 
ATOM     20  C   UNL     1       0.784  10.773  21.214  0.00  0.00    +0.000 C 
ENDBRANCH   4   8
BRANCH   1  23
ATOM     21  C   UNL     1       5.517   4.454  17.904  0.00  0.00    +0.000 C 
ATOM     22  C   UNL     1       5.136   5.897  18.152  0.00  0.00    +0.000 C 
ATOM     23  N   UNL     1       3.707   5.848  18.216  0.00  0.00    +0.000 N 
ATOM     24  C   UNL     1       3.260   4.650  17.681  0.00  0.00    +0.000 C 
ATOM     25  O   UNL     1       2.118   4.295  17.450  0.00  0.00    +0.000 OA
ATOM     26  O   UNL     1       4.336   3.858  17.354  0.00  0.00    +0.000 OA
BRANCH  21  27
ATOM     27  C   UNL     1       6.664   4.329  16.910  0.00  0.00    +0.000 C 
BRANCH  27  31
ATOM     28  C   UNL     1       6.147   3.743  13.219  0.00  0.00    +0.000 C 
ATOM     29  C   UNL     1       6.697   4.355  14.476  0.00  0.00    +0.000 C 
ATOM     30  O   UNL     1       7.488   5.293  14.466  0.00  0.00    +0.000 OA
ATOM     31  N   UNL     1       6.253   3.760  15.637  0.00  0.00    +0.000 N 
ATOM     32  H   UNL     1       5.368   3.266  15.600  0.00  0.00    +0.000 HD
ENDBRANCH  27  31
ENDBRANCH  21  27
ENDBRANCH   1  23
TORSDOF 4
ENDMDL
MODEL 5
REMARK VINA RESULT:      -8.4      1.320      1.619
REMARK  Name = 
REMARK  6 active torsions:
REMARK  status: ('A' for Active; 'I' for Inactive)
REMARK    1  A    between atoms: C_1  and  C_2
REMARK    2  A    between atoms: N_4  and  C_5
REMARK    3  A    between atoms: C_5  and  C_6
REMARK    4  A    between atoms: N_8  and  C_9
REMARK    5  A    between atoms: C_12  and  N_13
REMARK    6  A    between atoms: C_20  and  C_21
REMARK                            x       y       z     vdW  Elec       q    Type
REMARK                         _______ _______ _______ _____ _____    ______ ____
ROOT
ATOM      1  C   UNL     1       3.065   6.885  18.426  0.00  0.00    +0.000 A 
ATOM      2  C   UNL     1       2.774   8.001  17.639  0.00  0.00    +0.000 A 
ATOM      3  C   UNL     1       1.968   9.044  18.125  0.00  0.00    +0.000 A 
ATOM      4  C   UNL     1       1.454   9.020  19.424  0.00  0.00    +0.000 A 
ATOM      5  C   UNL     1       1.801   7.916  20.217  0.00  0.00    +0.000 A 
ATOM      6  F   UNL     1       1.357   7.836  21.485  0.00  0.00    +0.000 F 
ATOM      7  C   UNL     1       2.571   6.857  19.734  0.00  0.00    +0.000 A 
ENDROOT
BRANCH   4   8
ATOM      8  N   UNL     1       0.599  10.003  19.926  0.00  0.00    +0.000 N 
ATOM      9  C   UNL     1      -0.253   9.680  21.095  0.00  0.00    +0.000 C 
ATOM     10  C   UNL     1      -0.823  10.985  21.712  0.00  0.00    +0.000 C 
ATOM     11  N   UNL     1      -1.543  11.707  20.656  0.00  0.00    +0.000 N 
ATOM     12  C   UNL     1      -2.715  12.366  20.955  0.00  0.00    +0.000 A 
ATOM     13  C   UNL     1      -3.649  12.610  19.954  0.00  0.00    +0.000 A 
ATOM     14  C   UNL     1      -4.888  13.159  20.267  0.00  0.00    +0.000 A 
ATOM     15  C   UNL     1      -5.164  13.469  21.584  0.00  0.00    +0.000 A 
ATOM     16  C   UNL     1      -6.474  14.059  21.994  0.00  0.00    +0.000 C 
ATOM     17  N   UNL     1      -4.251  13.250  22.548  0.00  0.00    +0.000 NA
ATOM     18  N   UNL     1      -3.032  12.681  22.228  0.00  0.00    +0.000 NA
ATOM     19  C   UNL     1      -0.706  12.080  19.507  0.00  0.00    +0.000 C 
ATOM     20  C   UNL     1      -0.101  10.798  18.885  0.00  0.00    +0.000 C 
ENDBRANCH   4   8
BRANCH   1  23
ATOM     21  C   UNL     1       5.602   4.395  17.479  0.00  0.00    +0.000 C 
ATOM     22  C   UNL     1       5.241   5.842  17.734  0.00  0.00    +0.000 C 
ATOM     23  N   UNL     1       3.824   5.795  17.922  0.00  0.00    +0.000 N 
ATOM     24  C   UNL     1       3.334   4.587  17.448  0.00  0.00    +0.000 C 
ATOM     25  O   UNL     1       2.177   4.228  17.324  0.00  0.00    +0.000 OA
ATOM     26  O   UNL     1       4.379   3.790  17.043  0.00  0.00    +0.000 OA
BRANCH  21  27
ATOM     27  C   UNL     1       6.659   4.253  16.392  0.00  0.00    +0.000 C 
BRANCH  27  31
ATOM     28  C   UNL     1       5.818   3.537  12.785  0.00  0.00    +0.000 C 
ATOM     29  C   UNL     1       6.464   4.203  13.966  0.00  0.00    +0.000 C 
ATOM     30  O   UNL     1       7.222   5.161  13.854  0.00  0.00    +0.000 OA
ATOM     31  N   UNL     1       6.148   3.633  15.180  0.00  0.00    +0.000 N 
ATOM     32  H   UNL     1       5.278   3.114  15.241  0.00  0.00    +0.000 HD
ENDBRANCH  27  31
ENDBRANCH  21  27
ENDBRANCH   1  23
TORSDOF 4
ENDMDL
MODEL 6
REMARK VINA RESULT:      -8.4      1.735      2.429
REMARK  Name = 
REMARK  6 active torsions:
REMARK  status: ('A' for Active; 'I' for Inactive)
REMARK    1  A    between atoms: C_1  and  C_2
REMARK    2  A    between atoms: N_4  and  C_5
REMARK    3  A    between atoms: C_5  and  C_6
REMARK    4  A    between atoms: N_8  and  C_9
REMARK    5  A    between atoms: C_12  and  N_13
REMARK    6  A    between atoms: C_20  and  C_21
REMARK                            x       y       z     vdW  Elec       q    Type
REMARK                         _______ _______ _______ _____ _____    ______ ____
ROOT
ATOM      1  C   UNL     1       3.721   6.419  17.840  0.00  0.00    +0.000 A 
ATOM      2  C   UNL     1       3.432   7.682  17.320  0.00  0.00    +0.000 A 
ATOM      3  C   UNL     1       2.498   8.528  17.940  0.00  0.00    +0.000 A 
ATOM      4  C   UNL     1       1.846   8.152  19.117  0.00  0.00    +0.000 A 
ATOM      5  C   UNL     1       2.188   6.901  19.653  0.00  0.00    +0.000 A 
ATOM      6  F   UNL     1       1.613   6.483  20.796  0.00  0.00    +0.000 F 
ATOM      7  C   UNL     1       3.088   6.037  19.027  0.00  0.00    +0.000 A 
ENDROOT
BRANCH   4   8
ATOM      8  N   UNL     1       0.865   8.933  19.731  0.00  0.00    +0.000 N 
ATOM      9  C   UNL     1       0.252  10.044  18.966  0.00  0.00    +0.000 C 
ATOM     10  C   UNL     1      -1.043  10.523  19.673  0.00  0.00    +0.000 C 
ATOM     11  N   UNL     1      -0.695  10.896  21.049  0.00  0.00    +0.000 N 
ATOM     12  C   UNL     1      -1.293  11.991  21.634  0.00  0.00    +0.000 A 
ATOM     13  C   UNL     1      -0.657  12.654  22.677  0.00  0.00    +0.000 A 
ATOM     14  C   UNL     1      -1.188  13.833  23.189  0.00  0.00    +0.000 A 
ATOM     15  C   UNL     1      -2.362  14.322  22.650  0.00  0.00    +0.000 A 
ATOM     16  C   UNL     1      -2.990  15.583  23.148  0.00  0.00    +0.000 C 
ATOM     17  N   UNL     1      -2.986  13.667  21.653  0.00  0.00    +0.000 NA
ATOM     18  N   UNL     1      -2.435  12.509  21.137  0.00  0.00    +0.000 NA
ATOM     19  C   UNL     1      -0.130   9.796  21.843  0.00  0.00    +0.000 C 
ATOM     20  C   UNL     1       1.153   9.278  21.147  0.00  0.00    +0.000 C 
ENDBRANCH   4   8
BRANCH   1  23
ATOM     21  C   UNL     1       6.503   4.704  16.150  0.00  0.00    +0.000 C 
ATOM     22  C   UNL     1       5.695   5.967  16.356  0.00  0.00    +0.000 C 
ATOM     23  N   UNL     1       4.614   5.529  17.186  0.00  0.00    +0.000 N 
ATOM     24  C   UNL     1       4.537   4.145  17.152  0.00  0.00    +0.000 C 
ATOM     25  O   UNL     1       3.684   3.416  17.626  0.00  0.00    +0.000 OA
ATOM     26  O   UNL     1       5.581   3.639  16.414  0.00  0.00    +0.000 OA
BRANCH  21  27
ATOM     27  C   UNL     1       7.026   4.587  14.725  0.00  0.00    +0.000 C 
BRANCH  27  31
ATOM     28  C   UNL     1       5.601   2.640  11.825  0.00  0.00    +0.000 C 
ATOM     29  C   UNL     1       6.467   3.622  12.561  0.00  0.00    +0.000 C 
ATOM     30  O   UNL     1       7.273   4.351  11.992  0.00  0.00    +0.000 OA
ATOM     31  N   UNL     1       6.293   3.618  13.928  0.00  0.00    +0.000 N 
ATOM     32  H   UNL     1       5.403   3.283  14.285  0.00  0.00    +0.000 HD
ENDBRANCH  27  31
ENDBRANCH  21  27
ENDBRANCH   1  23
TORSDOF 4
ENDMDL
MODEL 7
REMARK VINA RESULT:      -8.4      0.971      1.027
REMARK  Name = 
REMARK  6 active torsions:
REMARK  status: ('A' for Active; 'I' for Inactive)
REMARK    1  A    between atoms: C_1  and  C_2
REMARK    2  A    between atoms: N_4  and  C_5
REMARK    3  A    between atoms: C_5  and  C_6
REMARK    4  A    between atoms: N_8  and  C_9
REMARK    5  A    between atoms: C_12  and  N_13
REMARK    6  A    between atoms: C_20  and  C_21
REMARK                            x       y       z     vdW  Elec       q    Type
REMARK                         _______ _______ _______ _____ _____    ______ ____
ROOT
ATOM      1  C   UNL     1       3.045   6.576  18.482  0.00  0.00    +0.000 A 
ATOM      2  C   UNL     1       2.522   6.378  19.762  0.00  0.00    +0.000 A 
ATOM      3  C   UNL     1       1.754   7.369  20.395  0.00  0.00    +0.000 A 
ATOM      4  C   UNL     1       1.457   8.577  19.758  0.00  0.00    +0.000 A 
ATOM      5  C   UNL     1       1.947   8.736  18.453  0.00  0.00    +0.000 A 
ATOM      6  F   UNL     1       1.682   9.866  17.772  0.00  0.00    +0.000 F 
ATOM      7  C   UNL     1       2.740   7.773  17.826  0.00  0.00    +0.000 A 
ENDROOT
BRANCH   4   8
ATOM      8  N   UNL     1       0.752   9.613  20.374  0.00  0.00    +0.000 N 
ATOM      9  C   UNL     1      -0.032   9.317  21.596  0.00  0.00    +0.000 C 
ATOM     10  C   UNL     1      -0.411  10.639  22.315  0.00  0.00    +0.000 C 
ATOM     11  N   UNL     1      -1.134  11.483  21.357  0.00  0.00    +0.000 N 
ATOM     12  C   UNL     1      -2.203  12.241  21.783  0.00  0.00    +0.000 A 
ATOM     13  C   UNL     1      -3.184  12.628  20.877  0.00  0.00    +0.000 A 
ATOM     14  C   UNL     1      -4.330  13.282  21.318  0.00  0.00    +0.000 A 
ATOM     15  C   UNL     1      -4.465  13.549  22.666  0.00  0.00    +0.000 A 
ATOM     16  C   UNL     1      -5.669  14.246  23.211  0.00  0.00    +0.000 C 
ATOM     17  N   UNL     1      -3.505  13.190  23.538  0.00  0.00    +0.000 NA
ATOM     18  N   UNL     1      -2.382  12.519  23.091  0.00  0.00    +0.000 NA
ATOM     19  C   UNL     1      -0.358  11.830  20.158  0.00  0.00    +0.000 C 
ATOM     20  C   UNL     1       0.058  10.527  19.432  0.00  0.00    +0.000 C 
ENDBRANCH   4   8
BRANCH   1  23
ATOM     21  C   UNL     1       5.761   4.464  17.181  0.00  0.00    +0.000 C 
ATOM     22  C   UNL     1       5.251   5.844  17.534  0.00  0.00    +0.000 C 
ATOM     23  N   UNL     1       3.877   5.609  17.858  0.00  0.00    +0.000 N 
ATOM     24  C   UNL     1       3.496   4.364  17.381  0.00  0.00    +0.000 C 
ATOM     25  O   UNL     1       2.386   3.863  17.355  0.00  0.00    +0.000 OA
ATOM     26  O   UNL     1       4.585   3.721  16.841  0.00  0.00    +0.000 OA
BRANCH  21  27
ATOM     27  C   UNL     1       6.710   4.494  15.991  0.00  0.00    +0.000 C 
BRANCH  27  31
ATOM     28  C   UNL     1       5.969   3.327  12.481  0.00  0.00    +0.000 C 
ATOM     29  C   UNL     1       6.599   4.124  13.587  0.00  0.00    +0.000 C 
ATOM     30  O   UNL     1       7.397   5.032  13.379  0.00  0.00    +0.000 OA
ATOM     31  N   UNL     1       6.219   3.734  14.853  0.00  0.00    +0.000 N 
ATOM     32  H   UNL     1       5.327   3.258  14.947  0.00  0.00    +0.000 HD
ENDBRANCH  27  31
ENDBRANCH  21  27
ENDBRANCH   1  23
TORSDOF 4
ENDMDL
MODEL 8
REMARK VINA RESULT:      -8.3      1.702      2.050
REMARK  Name = 
REMARK  6 active torsions:
REMARK  status: ('A' for Active; 'I' for Inactive)
REMARK    1  A    between atoms: C_1  and  C_2
REMARK    2  A    between atoms: N_4  and  C_5
REMARK    3  A    between atoms: C_5  and  C_6
REMARK    4  A    between atoms: N_8  and  C_9
REMARK    5  A    between atoms: C_12  and  N_13
REMARK    6  A    between atoms: C_20  and  C_21
REMARK                            x       y       z     vdW  Elec       q    Type
REMARK                         _______ _______ _______ _____ _____    ______ ____
ROOT
ATOM      1  C   UNL     1       2.592   7.020  18.886  0.00  0.00    +0.000 A 
ATOM      2  C   UNL     1       2.100   7.090  20.191  0.00  0.00    +0.000 A 
ATOM      3  C   UNL     1       1.386   8.214  20.641  0.00  0.00    +0.000 A 
ATOM      4  C   UNL     1       1.114   9.289  19.791  0.00  0.00    +0.000 A 
ATOM      5  C   UNL     1       1.571   9.178  18.469  0.00  0.00    +0.000 A 
ATOM      6  F   UNL     1       1.328  10.168  17.591  0.00  0.00    +0.000 F 
ATOM      7  C   UNL     1       2.311   8.082  18.021  0.00  0.00    +0.000 A 
ENDROOT
BRANCH   4   8
ATOM      8  N   UNL     1       0.465  10.451  20.213  0.00  0.00    +0.000 N 
ATOM      9  C   UNL     1      -0.902  10.728  19.714  0.00  0.00    +0.000 C 
ATOM     10  C   UNL     1      -1.568  11.832  20.577  0.00  0.00    +0.000 C 
ATOM     11  N   UNL     1      -0.697  13.012  20.551  0.00  0.00    +0.000 N 
ATOM     12  C   UNL     1      -1.252  14.272  20.496  0.00  0.00    +0.000 A 
ATOM     13  C   UNL     1      -0.517  15.331  19.977  0.00  0.00    +0.000 A 
ATOM     14  C   UNL     1      -1.109  16.578  19.797  0.00  0.00    +0.000 A 
ATOM     15  C   UNL     1      -2.432  16.742  20.158  0.00  0.00    +0.000 A 
ATOM     16  C   UNL     1      -3.134  18.050  19.992  0.00  0.00    +0.000 C 
ATOM     17  N   UNL     1      -3.136  15.719  20.678  0.00  0.00    +0.000 NA
ATOM     18  N   UNL     1      -2.543  14.480  20.829  0.00  0.00    +0.000 NA
ATOM     19  C   UNL     1       0.651  12.774  21.088  0.00  0.00    +0.000 C 
ATOM     20  C   UNL     1       1.332  11.655  20.261  0.00  0.00    +0.000 C 
ENDBRANCH   4   8
BRANCH   1  23
ATOM     21  C   UNL     1       5.129   4.446  18.201  0.00  0.00    +0.000 C 
ATOM     22  C   UNL     1       4.800   5.894  18.492  0.00  0.00    +0.000 C 
ATOM     23  N   UNL     1       3.371   5.919  18.441  0.00  0.00    +0.000 N 
ATOM     24  C   UNL     1       2.910   4.772  17.812  0.00  0.00    +0.000 C 
ATOM     25  O   UNL     1       1.774   4.489  17.475  0.00  0.00    +0.000 OA
ATOM     26  O   UNL     1       3.968   3.940  17.531  0.00  0.00    +0.000 OA
BRANCH  21  27
ATOM     27  C   UNL     1       6.345   4.307  17.296  0.00  0.00    +0.000 C 
BRANCH  27  31
ATOM     28  C   UNL     1       6.167   3.824  13.559  0.00  0.00    +0.000 C 
ATOM     29  C   UNL     1       6.643   4.357  14.880  0.00  0.00    +0.000 C 
ATOM     30  O   UNL     1       7.527   5.202  14.975  0.00  0.00    +0.000 OA
ATOM     31  N   UNL     1       6.014   3.802  15.974  0.00  0.00    +0.000 N 
ATOM     32  H   UNL     1       5.089   3.409  15.832  0.00  0.00    +0.000 HD
ENDBRANCH  27  31
ENDBRANCH  21  27
ENDBRANCH   1  23
TORSDOF 4
ENDMDL
MODEL 9
REMARK VINA RESULT:      -8.3      1.608      2.010
REMARK  Name = 
REMARK  6 active torsions:
REMARK  status: ('A' for Active; 'I' for Inactive)
REMARK    1  A    between atoms: C_1  and  C_2
REMARK    2  A    between atoms: N_4  and  C_5
REMARK    3  A    between atoms: C_5  and  C_6
REMARK    4  A    between atoms: N_8  and  C_9
REMARK    5  A    between atoms: C_12  and  N_13
REMARK    6  A    between atoms: C_20  and  C_21
REMARK                            x       y       z     vdW  Elec       q    Type
REMARK                         _______ _______ _______ _____ _____    ______ ____
ROOT
ATOM      1  C   UNL     1       3.587   6.173  17.876  0.00  0.00    +0.000 A 
ATOM      2  C   UNL     1       3.076   5.820  19.127  0.00  0.00    +0.000 A 
ATOM      3  C   UNL     1       2.327   6.731  19.890  0.00  0.00    +0.000 A 
ATOM      4  C   UNL     1       2.037   8.013  19.414  0.00  0.00    +0.000 A 
ATOM      5  C   UNL     1       2.515   8.330  18.133  0.00  0.00    +0.000 A 
ATOM      6  F   UNL     1       2.256   9.540  17.604  0.00  0.00    +0.000 F 
ATOM      7  C   UNL     1       3.290   7.446  17.380  0.00  0.00    +0.000 A 
ENDROOT
BRANCH   4   8
ATOM      8  N   UNL     1       1.352   8.970  20.164  0.00  0.00    +0.000 N 
ATOM      9  C   UNL     1       0.404   8.517  21.208  0.00  0.00    +0.000 C 
ATOM     10  C   UNL     1       0.052   9.696  22.153  0.00  0.00    +0.000 C 
ATOM     11  N   UNL     1      -0.478  10.791  21.331  0.00  0.00    +0.000 N 
ATOM     12  C   UNL     1      -1.523  11.555  21.800  0.00  0.00    +0.000 A 
ATOM     13  C   UNL     1      -2.351  12.222  20.905  0.00  0.00    +0.000 A 
ATOM     14  C   UNL     1      -3.484  12.891  21.358  0.00  0.00    +0.000 A 
ATOM     15  C   UNL     1      -3.759  12.890  22.711  0.00  0.00    +0.000 A 
ATOM     16  C   UNL     1      -4.958  13.585  23.270  0.00  0.00    +0.000 C 
ATOM     17  N   UNL     1      -2.945  12.259  23.578  0.00  0.00    +0.000 NA
ATOM     18  N   UNL     1      -1.836  11.578  23.113  0.00  0.00    +0.000 NA
ATOM     19  C   UNL     1       0.465  11.290  20.320  0.00  0.00    +0.000 C 
ATOM     20  C   UNL     1       0.856  10.127  19.376  0.00  0.00    +0.000 C 
ENDBRANCH   4   8
BRANCH   1  23
ATOM     21  C   UNL     1       6.166   4.455  15.893  0.00  0.00    +0.000 C 
ATOM     22  C   UNL     1       5.394   5.722  16.193  0.00  0.00    +0.000 C 
ATOM     23  N   UNL     1       4.401   5.283  17.125  0.00  0.00    +0.000 N 
ATOM     24  C   UNL     1       4.309   3.900  17.087  0.00  0.00    +0.000 C 
ATOM     25  O   UNL     1       3.503   3.173  17.639  0.00  0.00    +0.000 OA
ATOM     26  O   UNL     1       5.268   3.395  16.241  0.00  0.00    +0.000 OA
BRANCH  21  27
ATOM     27  C   UNL     1       6.540   4.349  14.421  0.00  0.00    +0.000 C 
BRANCH  27  31
ATOM     28  C   UNL     1       4.425   3.220  11.509  0.00  0.00    +0.000 C 
ATOM     29  C   UNL     1       5.654   3.442  12.343  0.00  0.00    +0.000 C 
ATOM     30  O   UNL     1       6.777   3.121  11.968  0.00  0.00    +0.000 OA
ATOM     31  N   UNL     1       5.409   4.019  13.571  0.00  0.00    +0.000 N 
ATOM     32  H   UNL     1       4.563   4.571  13.667  0.00  0.00    +0.000 HD
ENDBRANCH  27  31
ENDBRANCH  21  27
ENDBRANCH   1  23
TORSDOF 4
ENDMDL
