MODEL 1
REMARK VINA RESULT:      -6.8      0.000      0.000
REMARK  Name = 
REMARK  6 active torsions:
REMARK  status: ('A' for Active; 'I' for Inactive)
REMARK    1  A    between atoms: C_1  and  O_2
REMARK    2  A    between atoms: O_2  and  C_3
REMARK    3  A    between atoms: C_6  and  C_7
REMARK    4  A    between atoms: C_16  and  C_17
REMARK    5  A    between atoms: C_28  and  O_29
REMARK    6  A    between atoms: O_29  and  C_30
REMARK                            x       y       z     vdW  Elec       q    Type
REMARK                         _______ _______ _______ _____ _____    ______ ____
ROOT
ATOM      1  C   UNL     1      -1.117  13.264  21.431  0.00  0.00    +0.000 C 
ATOM      2  O   UNL     1      -0.361  14.200  21.209  0.00  0.00    +0.000 OA
ATOM      3  N   UNL     1      -1.849  13.159  22.605  0.00  0.00    +0.000 N 
ATOM      4  C   UNL     1      -1.934  14.270  23.520  0.00  0.00    +0.000 C 
ATOM      5  C   UNL     1      -3.261  14.072  24.269  0.00  0.00    +0.000 C 
ATOM      6  C   UNL     1      -4.371  14.984  23.735  0.00  0.00    +0.000 C 
ATOM      7  N   UNL     1      -5.042  14.170  22.742  0.00  0.00    +0.000 N 
ATOM      8  C   UNL     1      -5.609  14.637  21.588  0.00  0.00    +0.000 A 
ATOM      9  C   UNL     1      -6.011  15.952  21.480  0.00  0.00    +0.000 A 
ATOM     10  C   UNL     1      -6.724  16.355  20.355  0.00  0.00    +0.000 A 
ATOM     11  C   UNL     1      -7.811  17.378  20.534  0.00  0.00    +0.000 C 
ATOM     12  C   UNL     1      -6.662  15.571  19.200  0.00  0.00    +0.000 A 
ATOM     13  C   UNL     1      -6.984  16.063  17.916  0.00  0.00    +0.000 A 
ATOM     14  C   UNL     1      -6.961  15.220  16.811  0.00  0.00    +0.000 A 
ATOM     15  C   UNL     1      -6.695  13.871  17.000  0.00  0.00    +0.000 A 
ATOM     16  C   UNL     1      -6.364  13.394  18.274  0.00  0.00    +0.000 A 
ATOM     17  C   UNL     1      -6.267  14.237  19.377  0.00  0.00    +0.000 A 
ATOM     18  N   UNL     1      -5.824  13.769  20.564  0.00  0.00    +0.000 NA
ATOM     19  C   UNL     1      -4.971  12.762  23.068  0.00  0.00    +0.000 C 
ATOM     20  C   UNL     1      -3.714  12.630  23.940  0.00  0.00    +0.000 C 
ATOM     21  C   UNL     1      -2.539  12.015  23.164  0.00  0.00    +0.000 C 
ENDROOT
BRANCH   1  25
ATOM     22  C   UNL     1      -1.970  10.450  18.285  0.00  0.00    +0.000 A 
ATOM     23  C   UNL     1      -2.792  11.546  18.522  0.00  0.00    +0.000 A 
ATOM     24  C   UNL     1      -2.463  12.461  19.513  0.00  0.00    +0.000 A 
ATOM     25  C   UNL     1      -1.350  12.253  20.345  0.00  0.00    +0.000 A 
ATOM     26  C   UNL     1      -0.477  11.184  20.075  0.00  0.00    +0.000 A 
ATOM     27  C   UNL     1      -0.814  10.287  19.048  0.00  0.00    +0.000 A 
BRANCH  22  29
ATOM     28  C   UNL     1      -2.591  10.199  16.016  0.00  0.00    +0.000 C 
ATOM     29  O   UNL     1      -2.404   9.612  17.297  0.00  0.00    +0.000 OA
ENDBRANCH  22  29
BRANCH  26  30
ATOM     30  O   UNL     1       0.652  11.053  20.843  0.00  0.00    +0.000 OA
ATOM     31  C   UNL     1       0.751   9.890  21.661  0.00  0.00    +0.000 C 
ENDBRANCH  26  30
ENDBRANCH   1  25
TORSDOF 3
ENDMDL
MODEL 2
REMARK VINA RESULT:      -6.6      0.927      1.011
REMARK  Name = 
REMARK  6 active torsions:
REMARK  status: ('A' for Active; 'I' for Inactive)
REMARK    1  A    between atoms: C_1  and  O_2
REMARK    2  A    between atoms: O_2  and  C_3
REMARK    3  A    between atoms: C_6  and  C_7
REMARK    4  A    between atoms: C_16  and  C_17
REMARK    5  A    between atoms: C_28  and  O_29
REMARK    6  A    between atoms: O_29  and  C_30
REMARK                            x       y       z     vdW  Elec       q    Type
REMARK                         _______ _______ _______ _____ _____    ______ ____
ROOT
ATOM      1  C   UNL     1      -0.537  12.915  20.382  0.00  0.00    +0.000 C 
ATOM      2  O   UNL     1       0.213  13.818  20.036  0.00  0.00    +0.000 OA
ATOM      3  N   UNL     1      -1.024  12.806  21.676  0.00  0.00    +0.000 N 
ATOM      4  C   UNL     1      -0.858  13.885  22.617  0.00  0.00    +0.000 C 
ATOM      5  C   UNL     1      -2.018  13.730  23.614  0.00  0.00    +0.000 C 
ATOM      6  C   UNL     1      -3.156  14.718  23.339  0.00  0.00    +0.000 C 
ATOM      7  N   UNL     1      -4.060  13.978  22.482  0.00  0.00    +0.000 N 
ATOM      8  C   UNL     1      -4.817  14.516  21.479  0.00  0.00    +0.000 A 
ATOM      9  C   UNL     1      -5.154  15.854  21.487  0.00  0.00    +0.000 A 
ATOM     10  C   UNL     1      -6.053  16.336  20.541  0.00  0.00    +0.000 A 
ATOM     11  C   UNL     1      -7.019  17.407  20.962  0.00  0.00    +0.000 C 
ATOM     12  C   UNL     1      -6.271  15.593  19.377  0.00  0.00    +0.000 A 
ATOM     13  C   UNL     1      -6.813  16.149  18.198  0.00  0.00    +0.000 A 
ATOM     14  C   UNL     1      -7.062  15.347  17.090  0.00  0.00    +0.000 A 
ATOM     15  C   UNL     1      -6.844  13.980  17.187  0.00  0.00    +0.000 A 
ATOM     16  C   UNL     1      -6.293  13.439  18.355  0.00  0.00    +0.000 A 
ATOM     17  C   UNL     1      -5.928  14.234  19.436  0.00  0.00    +0.000 A 
ATOM     18  N   UNL     1      -5.284  13.700  20.497  0.00  0.00    +0.000 NA
ATOM     19  C   UNL     1      -4.008  12.557  22.750  0.00  0.00    +0.000 C 
ATOM     20  C   UNL     1      -2.612  12.326  23.346  0.00  0.00    +0.000 C 
ATOM     21  C   UNL     1      -1.655  11.680  22.334  0.00  0.00    +0.000 C 
ENDROOT
BRANCH   1  25
ATOM     22  C   UNL     1      -2.163  10.279  17.390  0.00  0.00    +0.000 A 
ATOM     23  C   UNL     1      -2.812  11.453  17.753  0.00  0.00    +0.000 A 
ATOM     24  C   UNL     1      -2.237  12.306  18.686  0.00  0.00    +0.000 A 
ATOM     25  C   UNL     1      -1.043  11.959  19.340  0.00  0.00    +0.000 A 
ATOM     26  C   UNL     1      -0.346  10.805  18.937  0.00  0.00    +0.000 A 
ATOM     27  C   UNL     1      -0.932   9.972  17.969  0.00  0.00    +0.000 A 
BRANCH  22  29
ATOM     28  C   UNL     1      -2.971  10.073  15.176  0.00  0.00    +0.000 C 
ATOM     29  O   UNL     1      -2.832   9.514  16.476  0.00  0.00    +0.000 OA
ENDBRANCH  22  29
BRANCH  26  30
ATOM     30  O   UNL     1       0.864  10.534  19.525  0.00  0.00    +0.000 OA
ATOM     31  C   UNL     1       0.918   9.422  20.416  0.00  0.00    +0.000 C 
ENDBRANCH  26  30
ENDBRANCH   1  25
TORSDOF 3
ENDMDL
MODEL 3
REMARK VINA RESULT:      -6.6      2.742      6.113
REMARK  Name = 
REMARK  6 active torsions:
REMARK  status: ('A' for Active; 'I' for Inactive)
REMARK    1  A    between atoms: C_1  and  O_2
REMARK    2  A    between atoms: O_2  and  C_3
REMARK    3  A    between atoms: C_6  and  C_7
REMARK    4  A    between atoms: C_16  and  C_17
REMARK    5  A    between atoms: C_28  and  O_29
REMARK    6  A    between atoms: O_29  and  C_30
REMARK                            x       y       z     vdW  Elec       q    Type
REMARK                         _______ _______ _______ _____ _____    ______ ____
ROOT
ATOM      1  C   UNL     1      -4.450  12.959  23.546  0.00  0.00    +0.000 C 
ATOM      2  O   UNL     1      -4.268  12.057  24.353  0.00  0.00    +0.000 OA
ATOM      3  N   UNL     1      -3.689  14.118  23.540  0.00  0.00    +0.000 N 
ATOM      4  C   UNL     1      -2.491  14.215  24.335  0.00  0.00    +0.000 C 
ATOM      5  C   UNL     1      -1.612  15.249  23.613  0.00  0.00    +0.000 C 
ATOM      6  C   UNL     1      -0.498  14.591  22.792  0.00  0.00    +0.000 C 
ATOM      7  N   UNL     1      -1.073  14.454  21.470  0.00  0.00    +0.000 N 
ATOM      8  C   UNL     1      -0.821  13.431  20.599  0.00  0.00    +0.000 A 
ATOM      9  C   UNL     1       0.342  12.694  20.692  0.00  0.00    +0.000 A 
ATOM     10  C   UNL     1       0.642  11.767  19.699  0.00  0.00    +0.000 A 
ATOM     11  C   UNL     1       2.081  11.595  19.302  0.00  0.00    +0.000 C 
ATOM     12  C   UNL     1      -0.388  11.301  18.876  0.00  0.00    +0.000 A 
ATOM     13  C   UNL     1      -0.302  10.100  18.139  0.00  0.00    +0.000 A 
ATOM     14  C   UNL     1      -1.335   9.717  17.292  0.00  0.00    +0.000 A 
ATOM     15  C   UNL     1      -2.416  10.571  17.121  0.00  0.00    +0.000 A 
ATOM     16  C   UNL     1      -2.500  11.754  17.866  0.00  0.00    +0.000 A 
ATOM     17  C   UNL     1      -1.536  12.104  18.806  0.00  0.00    +0.000 A 
ATOM     18  N   UNL     1      -1.707  13.185  19.598  0.00  0.00    +0.000 NA
ATOM     19  C   UNL     1      -2.039  15.497  21.196  0.00  0.00    +0.000 C 
ATOM     20  C   UNL     1      -2.539  15.934  22.580  0.00  0.00    +0.000 C 
ATOM     21  C   UNL     1      -3.941  15.385  22.884  0.00  0.00    +0.000 C 
ENDROOT
BRANCH   1  25
ATOM     22  C   UNL     1      -7.178  12.379  20.264  0.00  0.00    +0.000 A 
ATOM     23  C   UNL     1      -5.800  12.367  20.074  0.00  0.00    +0.000 A 
ATOM     24  C   UNL     1      -4.947  12.509  21.161  0.00  0.00    +0.000 A 
ATOM     25  C   UNL     1      -5.455  12.752  22.448  0.00  0.00    +0.000 A 
ATOM     26  C   UNL     1      -6.844  12.703  22.662  0.00  0.00    +0.000 A 
ATOM     27  C   UNL     1      -7.688  12.529  21.553  0.00  0.00    +0.000 A 
BRANCH  22  29
ATOM     28  C   UNL     1      -7.800  13.306  18.178  0.00  0.00    +0.000 C 
ATOM     29  O   UNL     1      -7.914  12.247  19.120  0.00  0.00    +0.000 OA
ENDBRANCH  22  29
BRANCH  26  30
ATOM     30  O   UNL     1      -7.313  12.852  23.944  0.00  0.00    +0.000 OA
ATOM     31  C   UNL     1      -7.911  14.103  24.275  0.00  0.00    +0.000 C 
ENDBRANCH  26  30
ENDBRANCH   1  25
TORSDOF 3
ENDMDL
MODEL 4
REMARK VINA RESULT:      -6.6      2.601      5.256
REMARK  Name = 
REMARK  6 active torsions:
REMARK  status: ('A' for Active; 'I' for Inactive)
REMARK    1  A    between atoms: C_1  and  O_2
REMARK    2  A    between atoms: O_2  and  C_3
REMARK    3  A    between atoms: C_6  and  C_7
REMARK    4  A    between atoms: C_16  and  C_17
REMARK    5  A    between atoms: C_28  and  O_29
REMARK    6  A    between atoms: O_29  and  C_30
REMARK                            x       y       z     vdW  Elec       q    Type
REMARK                         _______ _______ _______ _____ _____    ______ ____
ROOT
ATOM      1  C   UNL     1      -1.318  12.134  18.174  0.00  0.00    +0.000 C 
ATOM      2  O   UNL     1      -0.955  13.148  17.595  0.00  0.00    +0.000 OA
ATOM      3  N   UNL     1      -0.475  11.405  19.000  0.00  0.00    +0.000 N 
ATOM      4  C   UNL     1       0.801  11.941  19.405  0.00  0.00    +0.000 C 
ATOM      5  C   UNL     1       1.117  11.257  20.745  0.00  0.00    +0.000 C 
ATOM      6  C   UNL     1       0.838  12.171  21.943  0.00  0.00    +0.000 C 
ATOM      7  N   UNL     1      -0.519  11.841  22.324  0.00  0.00    +0.000 N 
ATOM      8  C   UNL     1      -1.434  12.720  22.835  0.00  0.00    +0.000 A 
ATOM      9  C   UNL     1      -1.025  13.875  23.471  0.00  0.00    +0.000 A 
ATOM     10  C   UNL     1      -1.970  14.667  24.116  0.00  0.00    +0.000 A 
ATOM     11  C   UNL     1      -1.570  15.349  25.394  0.00  0.00    +0.000 C 
ATOM     12  C   UNL     1      -3.317  14.528  23.771  0.00  0.00    +0.000 A 
ATOM     13  C   UNL     1      -4.287  15.520  24.033  0.00  0.00    +0.000 A 
ATOM     14  C   UNL     1      -5.623  15.300  23.720  0.00  0.00    +0.000 A 
ATOM     15  C   UNL     1      -6.002  14.062  23.220  0.00  0.00    +0.000 A 
ATOM     16  C   UNL     1      -5.032  13.089  22.949  0.00  0.00    +0.000 A 
ATOM     17  C   UNL     1      -3.675  13.324  23.146  0.00  0.00    +0.000 A 
ATOM     18  N   UNL     1      -2.756  12.413  22.758  0.00  0.00    +0.000 NA
ATOM     19  C   UNL     1      -0.842  10.464  22.017  0.00  0.00    +0.000 C 
ATOM     20  C   UNL     1       0.105  10.093  20.867  0.00  0.00    +0.000 C 
ATOM     21  C   UNL     1      -0.621  10.059  19.514  0.00  0.00    +0.000 C 
ENDROOT
BRANCH   1  25
ATOM     22  C   UNL     1      -5.481  11.034  18.097  0.00  0.00    +0.000 A 
ATOM     23  C   UNL     1      -4.945  11.775  19.144  0.00  0.00    +0.000 A 
ATOM     24  C   UNL     1      -3.609  12.155  19.115  0.00  0.00    +0.000 A 
ATOM     25  C   UNL     1      -2.761  11.727  18.080  0.00  0.00    +0.000 A 
ATOM     26  C   UNL     1      -3.305  11.031  16.986  0.00  0.00    +0.000 A 
ATOM     27  C   UNL     1      -4.666  10.683  17.022  0.00  0.00    +0.000 A 
BRANCH  22  29
ATOM     28  C   UNL     1      -7.102   9.786  19.285  0.00  0.00    +0.000 C 
ATOM     29  O   UNL     1      -6.799  10.706  18.244  0.00  0.00    +0.000 OA
ENDBRANCH  22  29
BRANCH  26  30
ATOM     30  O   UNL     1      -2.475  10.703  15.942  0.00  0.00    +0.000 OA
ATOM     31  C   UNL     1      -3.093  10.280  14.729  0.00  0.00    +0.000 C 
ENDBRANCH  26  30
ENDBRANCH   1  25
TORSDOF 3
ENDMDL
MODEL 5
REMARK VINA RESULT:      -6.5      1.449      1.753
REMARK  Name = 
REMARK  6 active torsions:
REMARK  status: ('A' for Active; 'I' for Inactive)
REMARK    1  A    between atoms: C_1  and  O_2
REMARK    2  A    between atoms: O_2  and  C_3
REMARK    3  A    between atoms: C_6  and  C_7
REMARK    4  A    between atoms: C_16  and  C_17
REMARK    5  A    between atoms: C_28  and  O_29
REMARK    6  A    between atoms: O_29  and  C_30
REMARK                            x       y       z     vdW  Elec       q    Type
REMARK                         _______ _______ _______ _____ _____    ______ ____
ROOT
ATOM      1  C   UNL     1      -0.496  13.568  20.258  0.00  0.00    +0.000 C 
ATOM      2  O   UNL     1      -0.164  14.645  19.784  0.00  0.00    +0.000 OA
ATOM      3  N   UNL     1      -0.691  13.381  21.618  0.00  0.00    +0.000 N 
ATOM      4  C   UNL     1      -0.742  14.509  22.515  0.00  0.00    +0.000 C 
ATOM      5  C   UNL     1      -1.596  14.038  23.704  0.00  0.00    +0.000 C 
ATOM      6  C   UNL     1      -3.029  14.575  23.638  0.00  0.00    +0.000 C 
ATOM      7  N   UNL     1      -3.762  13.527  22.956  0.00  0.00    +0.000 N 
ATOM      8  C   UNL     1      -4.814  13.723  22.105  0.00  0.00    +0.000 A 
ATOM      9  C   UNL     1      -5.576  14.872  22.175  0.00  0.00    +0.000 A 
ATOM     10  C   UNL     1      -6.730  14.970  21.405  0.00  0.00    +0.000 A 
ATOM     11  C   UNL     1      -7.915  15.684  21.993  0.00  0.00    +0.000 C 
ATOM     12  C   UNL     1      -6.879  14.129  20.299  0.00  0.00    +0.000 A 
ATOM     13  C   UNL     1      -7.768  14.402  19.236  0.00  0.00    +0.000 A 
ATOM     14  C   UNL     1      -7.915  13.499  18.191  0.00  0.00    +0.000 A 
ATOM     15  C   UNL     1      -7.236  12.289  18.246  0.00  0.00    +0.000 A 
ATOM     16  C   UNL     1      -6.347  12.032  19.296  0.00  0.00    +0.000 A 
ATOM     17  C   UNL     1      -6.093  12.967  20.295  0.00  0.00    +0.000 A 
ATOM     18  N   UNL     1      -5.138  12.740  21.223  0.00  0.00    +0.000 NA
ATOM     19  C   UNL     1      -3.190  12.222  23.210  0.00  0.00    +0.000 C 
ATOM     20  C   UNL     1      -1.719  12.503  23.546  0.00  0.00    +0.000 C 
ATOM     21  C   UNL     1      -0.785  12.151  22.378  0.00  0.00    +0.000 C 
ENDROOT
BRANCH   1  25
ATOM     22  C   UNL     1      -1.619  10.372  17.599  0.00  0.00    +0.000 A 
ATOM     23  C   UNL     1      -2.546  11.311  18.037  0.00  0.00    +0.000 A 
ATOM     24  C   UNL     1      -2.141  12.358  18.856  0.00  0.00    +0.000 A 
ATOM     25  C   UNL     1      -0.819  12.437  19.323  0.00  0.00    +0.000 A 
ATOM     26  C   UNL     1       0.140  11.530  18.837  0.00  0.00    +0.000 A 
ATOM     27  C   UNL     1      -0.286  10.497  17.985  0.00  0.00    +0.000 A 
BRANCH  22  29
ATOM     28  C   UNL     1      -2.938   9.808  15.717  0.00  0.00    +0.000 C 
ATOM     29  O   UNL     1      -2.137   9.382  16.812  0.00  0.00    +0.000 OA
ENDBRANCH  22  29
BRANCH  26  30
ATOM     30  O   UNL     1       1.445  11.682  19.235  0.00  0.00    +0.000 OA
ATOM     31  C   UNL     1       2.337  12.304  18.314  0.00  0.00    +0.000 C 
ENDBRANCH  26  30
ENDBRANCH   1  25
TORSDOF 3
ENDMDL
MODEL 6
REMARK VINA RESULT:      -6.4      2.530      6.214
REMARK  Name = 
REMARK  6 active torsions:
REMARK  status: ('A' for Active; 'I' for Inactive)
REMARK    1  A    between atoms: C_1  and  O_2
REMARK    2  A    between atoms: O_2  and  C_3
REMARK    3  A    between atoms: C_6  and  C_7
REMARK    4  A    between atoms: C_16  and  C_17
REMARK    5  A    between atoms: C_28  and  O_29
REMARK    6  A    between atoms: O_29  and  C_30
REMARK                            x       y       z     vdW  Elec       q    Type
REMARK                         _______ _______ _______ _____ _____    ______ ____
ROOT
ATOM      1  C   UNL     1      -5.355  13.226  22.846  0.00  0.00    +0.000 C 
ATOM      2  O   UNL     1      -5.695  12.250  23.500  0.00  0.00    +0.000 OA
ATOM      3  N   UNL     1      -4.244  13.991  23.172  0.00  0.00    +0.000 N 
ATOM      4  C   UNL     1      -3.300  13.532  24.159  0.00  0.00    +0.000 C 
ATOM      5  C   UNL     1      -1.970  14.206  23.787  0.00  0.00    +0.000 C 
ATOM      6  C   UNL     1      -1.018  13.251  23.060  0.00  0.00    +0.000 C 
ATOM      7  N   UNL     1      -1.296  13.483  21.658  0.00  0.00    +0.000 N 
ATOM      8  C   UNL     1      -1.245  12.535  20.673  0.00  0.00    +0.000 A 
ATOM      9  C   UNL     1      -0.481  11.397  20.827  0.00  0.00    +0.000 A 
ATOM     10  C   UNL     1      -0.325  10.531  19.749  0.00  0.00    +0.000 A 
ATOM     11  C   UNL     1       1.003   9.851  19.573  0.00  0.00    +0.000 C 
ATOM     12  C   UNL     1      -1.245  10.589  18.698  0.00  0.00    +0.000 A 
ATOM     13  C   UNL     1      -1.439   9.530  17.784  0.00  0.00    +0.000 A 
ATOM     14  C   UNL     1      -2.325   9.668  16.723  0.00  0.00    +0.000 A 
ATOM     15  C   UNL     1      -2.957  10.889  16.529  0.00  0.00    +0.000 A 
ATOM     16  C   UNL     1      -2.769  11.929  17.447  0.00  0.00    +0.000 A 
ATOM     17  C   UNL     1      -1.977  11.780  18.581  0.00  0.00    +0.000 A 
ATOM     18  N   UNL     1      -1.916  12.757  19.512  0.00  0.00    +0.000 NA
ATOM     19  C   UNL     1      -1.732  14.842  21.416  0.00  0.00    +0.000 C 
ATOM     20  C   UNL     1      -2.332  15.299  22.753  0.00  0.00    +0.000 C 
ATOM     21  C   UNL     1      -3.868  15.314  22.718  0.00  0.00    +0.000 C 
ENDROOT
BRANCH   1  25
ATOM     22  C   UNL     1      -7.321  14.052  19.105  0.00  0.00    +0.000 A 
ATOM     23  C   UNL     1      -6.134  13.330  19.157  0.00  0.00    +0.000 A 
ATOM     24  C   UNL     1      -5.551  13.039  20.384  0.00  0.00    +0.000 A 
ATOM     25  C   UNL     1      -6.096  13.539  21.578  0.00  0.00    +0.000 A 
ATOM     26  C   UNL     1      -7.329  14.217  21.542  0.00  0.00    +0.000 A 
ATOM     27  C   UNL     1      -7.916  14.474  20.293  0.00  0.00    +0.000 A 
BRANCH  22  29
ATOM     28  C   UNL     1      -6.826  14.251  16.800  0.00  0.00    +0.000 C 
ATOM     29  O   UNL     1      -7.791  14.290  17.844  0.00  0.00    +0.000 OA
ENDBRANCH  22  29
BRANCH  26  30
ATOM     30  O   UNL     1      -7.888  14.617  22.730  0.00  0.00    +0.000 OA
ATOM     31  C   UNL     1      -7.783  15.998  23.066  0.00  0.00    +0.000 C 
ENDBRANCH  26  30
ENDBRANCH   1  25
TORSDOF 3
ENDMDL
MODEL 7
REMARK VINA RESULT:      -6.4      2.611      6.565
REMARK  Name = 
REMARK  6 active torsions:
REMARK  status: ('A' for Active; 'I' for Inactive)
REMARK    1  A    between atoms: C_1  and  O_2
REMARK    2  A    between atoms: O_2  and  C_3
REMARK    3  A    between atoms: C_6  and  C_7
REMARK    4  A    between atoms: C_16  and  C_17
REMARK    5  A    between atoms: C_28  and  O_29
REMARK    6  A    between atoms: O_29  and  C_30
REMARK                            x       y       z     vdW  Elec       q    Type
REMARK                         _______ _______ _______ _____ _____    ______ ____
ROOT
ATOM      1  C   UNL     1      -5.676  11.451  19.802  0.00  0.00    +0.000 C 
ATOM      2  O   UNL     1      -6.371  10.506  20.149  0.00  0.00    +0.000 OA
ATOM      3  N   UNL     1      -5.380  12.509  20.649  0.00  0.00    +0.000 N 
ATOM      4  C   UNL     1      -5.681  12.430  22.057  0.00  0.00    +0.000 C 
ATOM      5  C   UNL     1      -4.676  13.374  22.736  0.00  0.00    +0.000 C 
ATOM      6  C   UNL     1      -3.512  12.615  23.382  0.00  0.00    +0.000 C 
ATOM      7  N   UNL     1      -2.494  12.598  22.352  0.00  0.00    +0.000 N 
ATOM      8  C   UNL     1      -1.601  11.584  22.139  0.00  0.00    +0.000 A 
ATOM      9  C   UNL     1      -1.272  10.708  23.153  0.00  0.00    +0.000 A 
ATOM     10  C   UNL     1      -0.247   9.788  22.951  0.00  0.00    +0.000 A 
ATOM     11  C   UNL     1       0.646   9.456  24.112  0.00  0.00    +0.000 C 
ATOM     12  C   UNL     1       0.137   9.481  21.642  0.00  0.00    +0.000 A 
ATOM     13  C   UNL     1       0.842   8.306  21.301  0.00  0.00    +0.000 A 
ATOM     14  C   UNL     1       1.248   8.083  19.991  0.00  0.00    +0.000 A 
ATOM     15  C   UNL     1       1.021   9.068  19.039  0.00  0.00    +0.000 A 
ATOM     16  C   UNL     1       0.310  10.224  19.383  0.00  0.00    +0.000 A 
ATOM     17  C   UNL     1      -0.208  10.421  20.659  0.00  0.00    +0.000 A 
ATOM     18  N   UNL     1      -0.997  11.485  20.925  0.00  0.00    +0.000 NA
ATOM     19  C   UNL     1      -2.580  13.761  21.494  0.00  0.00    +0.000 C 
ATOM     20  C   UNL     1      -4.047  14.204  21.592  0.00  0.00    +0.000 C 
ATOM     21  C   UNL     1      -4.848  13.820  20.339  0.00  0.00    +0.000 C 
ENDROOT
BRANCH   1  25
ATOM     22  C   UNL     1      -3.641  11.247  16.013  0.00  0.00    +0.000 A 
ATOM     23  C   UNL     1      -3.117  10.646  17.151  0.00  0.00    +0.000 A 
ATOM     24  C   UNL     1      -3.822  10.689  18.347  0.00  0.00    +0.000 A 
ATOM     25  C   UNL     1      -5.024  11.408  18.450  0.00  0.00    +0.000 A 
ATOM     26  C   UNL     1      -5.594  11.966  17.291  0.00  0.00    +0.000 A 
ATOM     27  C   UNL     1      -4.878  11.885  16.086  0.00  0.00    +0.000 A 
BRANCH  22  29
ATOM     28  C   UNL     1      -3.015   9.978  14.116  0.00  0.00    +0.000 C 
ATOM     29  O   UNL     1      -2.851  11.153  14.901  0.00  0.00    +0.000 OA
ENDBRANCH  22  29
BRANCH  26  30
ATOM     30  O   UNL     1      -6.815  12.586  17.397  0.00  0.00    +0.000 OA
ATOM     31  C   UNL     1      -6.870  13.972  17.070  0.00  0.00    +0.000 C 
ENDBRANCH  26  30
ENDBRANCH   1  25
TORSDOF 3
ENDMDL
MODEL 8
REMARK VINA RESULT:      -6.4      2.785      4.502
REMARK  Name = 
REMARK  6 active torsions:
REMARK  status: ('A' for Active; 'I' for Inactive)
REMARK    1  A    between atoms: C_1  and  O_2
REMARK    2  A    between atoms: O_2  and  C_3
REMARK    3  A    between atoms: C_6  and  C_7
REMARK    4  A    between atoms: C_16  and  C_17
REMARK    5  A    between atoms: C_28  and  O_29
REMARK    6  A    between atoms: O_29  and  C_30
REMARK                            x       y       z     vdW  Elec       q    Type
REMARK                         _______ _______ _______ _____ _____    ______ ____
ROOT
ATOM      1  C   UNL     1      -0.945  16.290  20.391  0.00  0.00    +0.000 C 
ATOM      2  O   UNL     1      -1.335  17.266  19.764  0.00  0.00    +0.000 OA
ATOM      3  N   UNL     1      -1.570  15.850  21.548  0.00  0.00    +0.000 N 
ATOM      4  C   UNL     1      -2.853  16.379  21.938  0.00  0.00    +0.000 C 
ATOM      5  C   UNL     1      -3.505  15.272  22.782  0.00  0.00    +0.000 C 
ATOM      6  C   UNL     1      -4.553  14.482  21.992  0.00  0.00    +0.000 C 
ATOM      7  N   UNL     1      -3.812  13.359  21.455  0.00  0.00    +0.000 N 
ATOM      8  C   UNL     1      -4.045  12.761  20.248  0.00  0.00    +0.000 A 
ATOM      9  C   UNL     1      -5.281  12.853  19.640  0.00  0.00    +0.000 A 
ATOM     10  C   UNL     1      -5.532  12.106  18.494  0.00  0.00    +0.000 A 
ATOM     11  C   UNL     1      -6.910  11.535  18.308  0.00  0.00    +0.000 C 
ATOM     12  C   UNL     1      -4.451  11.621  17.753  0.00  0.00    +0.000 A 
ATOM     13  C   UNL     1      -4.557  11.226  16.401  0.00  0.00    +0.000 A 
ATOM     14  C   UNL     1      -3.460  10.695  15.733  0.00  0.00    +0.000 A 
ATOM     15  C   UNL     1      -2.281  10.486  16.436  0.00  0.00    +0.000 A 
ATOM     16  C   UNL     1      -2.180  10.893  17.772  0.00  0.00    +0.000 A 
ATOM     17  C   UNL     1      -3.226  11.531  18.431  0.00  0.00    +0.000 A 
ATOM     18  N   UNL     1      -3.055  12.024  19.677  0.00  0.00    +0.000 NA
ATOM     19  C   UNL     1      -2.713  12.982  22.318  0.00  0.00    +0.000 C 
ATOM     20  C   UNL     1      -2.372  14.264  23.092  0.00  0.00    +0.000 C 
ATOM     21  C   UNL     1      -1.094  14.932  22.563  0.00  0.00    +0.000 C 
ENDROOT
BRANCH   1  25
ATOM     22  C   UNL     1       2.138  13.802  18.703  0.00  0.00    +0.000 A 
ATOM     23  C   UNL     1       0.791  13.534  18.490  0.00  0.00    +0.000 A 
ATOM     24  C   UNL     1      -0.178  14.383  19.009  0.00  0.00    +0.000 A 
ATOM     25  C   UNL     1       0.179  15.471  19.823  0.00  0.00    +0.000 A 
ATOM     26  C   UNL     1       1.538  15.788  19.993  0.00  0.00    +0.000 A 
ATOM     27  C   UNL     1       2.502  14.931  19.435  0.00  0.00    +0.000 A 
BRANCH  22  29
ATOM     28  C   UNL     1       2.474  11.580  17.963  0.00  0.00    +0.000 C 
ATOM     29  O   UNL     1       2.997  12.888  18.160  0.00  0.00    +0.000 OA
ENDBRANCH  22  29
BRANCH  26  30
ATOM     30  O   UNL     1       1.862  16.908  20.718  0.00  0.00    +0.000 OA
ATOM     31  C   UNL     1       2.999  17.653  20.289  0.00  0.00    +0.000 C 
ENDBRANCH  26  30
ENDBRANCH   1  25
TORSDOF 3
ENDMDL
MODEL 9
REMARK VINA RESULT:      -6.3      3.379      5.274
REMARK  Name = 
REMARK  6 active torsions:
REMARK  status: ('A' for Active; 'I' for Inactive)
REMARK    1  A    between atoms: C_1  and  O_2
REMARK    2  A    between atoms: O_2  and  C_3
REMARK    3  A    between atoms: C_6  and  C_7
REMARK    4  A    between atoms: C_16  and  C_17
REMARK    5  A    between atoms: C_28  and  O_29
REMARK    6  A    between atoms: O_29  and  C_30
REMARK                            x       y       z     vdW  Elec       q    Type
REMARK                         _______ _______ _______ _____ _____    ______ ____
ROOT
ATOM      1  C   UNL     1      -1.459  16.897  19.469  0.00  0.00    +0.000 C 
ATOM      2  O   UNL     1      -1.972  17.613  18.619  0.00  0.00    +0.000 OA
ATOM      3  N   UNL     1      -2.053  16.660  20.700  0.00  0.00    +0.000 N 
ATOM      4  C   UNL     1      -3.417  17.055  20.946  0.00  0.00    +0.000 C 
ATOM      5  C   UNL     1      -3.920  16.099  22.039  0.00  0.00    +0.000 C 
ATOM      6  C   UNL     1      -4.801  14.981  21.472  0.00  0.00    +0.000 C 
ATOM      7  N   UNL     1      -3.873  13.895  21.231  0.00  0.00    +0.000 N 
ATOM      8  C   UNL     1      -3.961  12.990  20.211  0.00  0.00    +0.000 A 
ATOM      9  C   UNL     1      -5.171  12.728  19.600  0.00  0.00    +0.000 A 
ATOM     10  C   UNL     1      -5.257  11.692  18.676  0.00  0.00    +0.000 A 
ATOM     11  C   UNL     1      -6.521  10.879  18.639  0.00  0.00    +0.000 C 
ATOM     12  C   UNL     1      -4.085  11.220  18.079  0.00  0.00    +0.000 A 
ATOM     13  C   UNL     1      -4.075  10.493  16.868  0.00  0.00    +0.000 A 
ATOM     14  C   UNL     1      -2.883   9.999  16.353  0.00  0.00    +0.000 A 
ATOM     15  C   UNL     1      -1.715  10.162  17.084  0.00  0.00    +0.000 A 
ATOM     16  C   UNL     1      -1.731  10.896  18.277  0.00  0.00    +0.000 A 
ATOM     17  C   UNL     1      -2.889  11.499  18.757  0.00  0.00    +0.000 A 
ATOM     18  N   UNL     1      -2.847  12.304  19.841  0.00  0.00    +0.000 NA
ATOM     19  C   UNL     1      -2.763  13.924  22.160  0.00  0.00    +0.000 C 
ATOM     20  C   UNL     1      -2.658  15.394  22.590  0.00  0.00    +0.000 C 
ATOM     21  C   UNL     1      -1.480  16.109  21.911  0.00  0.00    +0.000 C 
ENDROOT
BRANCH   1  25
ATOM     22  C   UNL     1       2.066  14.600  18.551  0.00  0.00    +0.000 A 
ATOM     23  C   UNL     1       0.891  13.989  18.973  0.00  0.00    +0.000 A 
ATOM     24  C   UNL     1      -0.243  14.754  19.215  0.00  0.00    +0.000 A 
ATOM     25  C   UNL     1      -0.200  16.156  19.122  0.00  0.00    +0.000 A 
ATOM     26  C   UNL     1       0.964  16.779  18.636  0.00  0.00    +0.000 A 
ATOM     27  C   UNL     1       2.090  15.982  18.370  0.00  0.00    +0.000 A 
BRANCH  22  29
ATOM     28  C   UNL     1       4.399  14.355  18.241  0.00  0.00    +0.000 C 
ATOM     29  O   UNL     1       3.118  13.749  18.361  0.00  0.00    +0.000 OA
ENDBRANCH  22  29
BRANCH  26  30
ATOM     30  O   UNL     1       0.953  18.141  18.467  0.00  0.00    +0.000 OA
ATOM     31  C   UNL     1       1.047  18.631  17.132  0.00  0.00    +0.000 C 
ENDBRANCH  26  30
ENDBRANCH   1  25
TORSDOF 3
ENDMDL
