MODEL 1
REMARK VINA RESULT:      -7.5      0.000      0.000
REMARK  Name = 
REMARK  3 active torsions:
REMARK  status: ('A' for Active; 'I' for Inactive)
REMARK    1  A    between atoms: C_1  and  N_2
REMARK    2  A    between atoms: N_2  and  C_3
REMARK    3  A    between atoms: C_7  and  C_8
REMARK                            x       y       z     vdW  Elec       q    Type
REMARK                         _______ _______ _______ _____ _____    ______ ____
ROOT
ATOM      1  C   UNL     1       4.040   3.445  17.327  0.00  0.00    +0.000 C 
ATOM      2  C   UNL     1       5.172   4.141  17.062  0.00  0.00    +0.000 C 
ATOM      3  C   UNL     1       5.885   4.817  18.194  0.00  0.00    +0.000 C 
ATOM      4  O   UNL     1       5.881   4.352  19.330  0.00  0.00    +0.000 OA
ATOM      5  C   UNL     1       6.514   6.142  17.863  0.00  0.00    +0.000 C 
ATOM      6  C   UNL     1       7.461   5.976  16.691  0.00  0.00    +0.000 C 
ATOM      7  C   UNL     1       6.857   5.210  15.534  0.00  0.00    +0.000 A 
ATOM      8  C   UNL     1       7.478   5.349  14.277  0.00  0.00    +0.000 A 
ATOM      9  C   UNL     1       7.032   4.618  13.181  0.00  0.00    +0.000 A 
ATOM     10  C   UNL     1       5.970   3.737  13.332  0.00  0.00    +0.000 A 
ATOM     11  C   UNL     1       5.347   3.584  14.578  0.00  0.00    +0.000 A 
ATOM     12  C   UNL     1       5.773   4.316  15.701  0.00  0.00    +0.000 A 
ENDROOT
BRANCH   1  19
ATOM     13  C   UNL     1       2.425   4.541  20.617  0.00  0.00    +0.000 C 
ATOM     14  N   UNL     1       2.281   4.245  19.114  0.00  0.00    +0.000 N 
ATOM     15  C   UNL     1       2.290   5.580  18.395  0.00  0.00    +0.000 C 
ATOM     16  C   UNL     1       0.971   3.505  18.853  0.00  0.00    +0.000 C 
ATOM     17  C   UNL     1       1.278   2.075  19.225  0.00  0.00    +0.000 C 
ATOM     18  C   UNL     1       2.696   1.854  18.728  0.00  0.00    +0.000 C 
ATOM     19  C   UNL     1       3.402   3.227  18.688  0.00  0.00    +0.000 C 
ENDBRANCH   1  19
TORSDOF 1
ENDMDL
MODEL 2
REMARK VINA RESULT:      -7.1      1.936      5.936
REMARK  Name = 
REMARK  3 active torsions:
REMARK  status: ('A' for Active; 'I' for Inactive)
REMARK    1  A    between atoms: C_1  and  N_2
REMARK    2  A    between atoms: N_2  and  C_3
REMARK    3  A    between atoms: C_7  and  C_8
REMARK                            x       y       z     vdW  Elec       q    Type
REMARK                         _______ _______ _______ _____ _____    ______ ____
ROOT
ATOM      1  C   UNL     1       4.338   4.661  17.004  0.00  0.00    +0.000 C 
ATOM      2  C   UNL     1       3.413   5.014  17.931  0.00  0.00    +0.000 C 
ATOM      3  C   UNL     1       3.354   6.442  18.383  0.00  0.00    +0.000 C 
ATOM      4  O   UNL     1       3.636   7.370  17.631  0.00  0.00    +0.000 OA
ATOM      5  C   UNL     1       3.026   6.647  19.835  0.00  0.00    +0.000 C 
ATOM      6  C   UNL     1       1.717   5.954  20.163  0.00  0.00    +0.000 C 
ATOM      7  C   UNL     1       1.646   4.532  19.651  0.00  0.00    +0.000 A 
ATOM      8  C   UNL     1       0.681   3.687  20.234  0.00  0.00    +0.000 A 
ATOM      9  C   UNL     1       0.499   2.390  19.766  0.00  0.00    +0.000 A 
ATOM     10  C   UNL     1       1.271   1.929  18.708  0.00  0.00    +0.000 A 
ATOM     11  C   UNL     1       2.229   2.761  18.114  0.00  0.00    +0.000 A 
ATOM     12  C   UNL     1       2.439   4.074  18.573  0.00  0.00    +0.000 A 
ENDROOT
BRANCH   1  19
ATOM     13  C   UNL     1       7.329   7.039  16.845  0.00  0.00    +0.000 C 
ATOM     14  N   UNL     1       6.795   5.597  16.896  0.00  0.00    +0.000 N 
ATOM     15  C   UNL     1       6.946   5.118  18.327  0.00  0.00    +0.000 C 
ATOM     16  C   UNL     1       7.597   4.711  15.946  0.00  0.00    +0.000 C 
ATOM     17  C   UNL     1       7.011   5.005  14.587  0.00  0.00    +0.000 C 
ATOM     18  C   UNL     1       5.521   5.144  14.844  0.00  0.00    +0.000 C 
ATOM     19  C   UNL     1       5.333   5.578  16.315  0.00  0.00    +0.000 C 
ENDBRANCH   1  19
TORSDOF 1
ENDMDL
MODEL 3
REMARK VINA RESULT:      -6.5      2.139      6.211
REMARK  Name = 
REMARK  3 active torsions:
REMARK  status: ('A' for Active; 'I' for Inactive)
REMARK    1  A    between atoms: C_1  and  N_2
REMARK    2  A    between atoms: N_2  and  C_3
REMARK    3  A    between atoms: C_7  and  C_8
REMARK                            x       y       z     vdW  Elec       q    Type
REMARK                         _______ _______ _______ _____ _____    ______ ____
ROOT
ATOM      1  C   UNL     1       5.347   4.913  18.971  0.00  0.00    +0.000 C 
ATOM      2  C   UNL     1       4.344   4.051  18.674  0.00  0.00    +0.000 C 
ATOM      3  C   UNL     1       4.325   3.405  17.321  0.00  0.00    +0.000 C 
ATOM      4  O   UNL     1       5.360   3.138  16.717  0.00  0.00    +0.000 OA
ATOM      5  C   UNL     1       2.962   3.201  16.721  0.00  0.00    +0.000 C 
ATOM      6  C   UNL     1       2.099   2.403  17.679  0.00  0.00    +0.000 C 
ATOM      7  C   UNL     1       2.138   2.924  19.100  0.00  0.00    +0.000 A 
ATOM      8  C   UNL     1       1.093   2.530  19.958  0.00  0.00    +0.000 A 
ATOM      9  C   UNL     1       1.098   2.902  21.298  0.00  0.00    +0.000 A 
ATOM     10  C   UNL     1       2.149   3.661  21.795  0.00  0.00    +0.000 A 
ATOM     11  C   UNL     1       3.198   4.055  20.954  0.00  0.00    +0.000 A 
ATOM     12  C   UNL     1       3.215   3.699  19.593  0.00  0.00    +0.000 A 
ENDROOT
BRANCH   1  19
ATOM     13  C   UNL     1       7.007   6.057  15.719  0.00  0.00    +0.000 C 
ATOM     14  N   UNL     1       6.265   6.420  17.017  0.00  0.00    +0.000 N 
ATOM     15  C   UNL     1       4.815   6.666  16.646  0.00  0.00    +0.000 C 
ATOM     16  C   UNL     1       6.880   7.673  17.636  0.00  0.00    +0.000 C 
ATOM     17  C   UNL     1       8.112   7.165  18.344  0.00  0.00    +0.000 C 
ATOM     18  C   UNL     1       7.681   5.835  18.938  0.00  0.00    +0.000 C 
ATOM     19  C   UNL     1       6.520   5.288  18.081  0.00  0.00    +0.000 C 
ENDBRANCH   1  19
TORSDOF 1
ENDMDL
MODEL 4
REMARK VINA RESULT:      -6.0      2.652      3.687
REMARK  Name = 
REMARK  3 active torsions:
REMARK  status: ('A' for Active; 'I' for Inactive)
REMARK    1  A    between atoms: C_1  and  N_2
REMARK    2  A    between atoms: N_2  and  C_3
REMARK    3  A    between atoms: C_7  and  C_8
REMARK                            x       y       z     vdW  Elec       q    Type
REMARK                         _______ _______ _______ _____ _____    ______ ____
ROOT
ATOM      1  C   UNL     1       3.872   4.443  19.552  0.00  0.00    +0.000 C 
ATOM      2  C   UNL     1       4.338   5.423  18.740  0.00  0.00    +0.000 C 
ATOM      3  C   UNL     1       3.374   6.128  17.833  0.00  0.00    +0.000 C 
ATOM      4  O   UNL     1       2.201   6.304  18.149  0.00  0.00    +0.000 OA
ATOM      5  C   UNL     1       3.916   6.509  16.484  0.00  0.00    +0.000 C 
ATOM      6  C   UNL     1       5.163   7.355  16.659  0.00  0.00    +0.000 C 
ATOM      7  C   UNL     1       6.153   6.770  17.642  0.00  0.00    +0.000 A 
ATOM      8  C   UNL     1       7.480   7.239  17.574  0.00  0.00    +0.000 A 
ATOM      9  C   UNL     1       8.432   6.809  18.493  0.00  0.00    +0.000 A 
ATOM     10  C   UNL     1       8.067   5.915  19.490  0.00  0.00    +0.000 A 
ATOM     11  C   UNL     1       6.749   5.445  19.573  0.00  0.00    +0.000 A 
ATOM     12  C   UNL     1       5.769   5.858  18.653  0.00  0.00    +0.000 A 
ENDROOT
BRANCH   1  19
ATOM     13  C   UNL     1       0.814   2.319  18.671  0.00  0.00    +0.000 C 
ATOM     14  N   UNL     1       2.153   2.454  19.418  0.00  0.00    +0.000 N 
ATOM     15  C   UNL     1       3.196   1.724  18.595  0.00  0.00    +0.000 C 
ATOM     16  C   UNL     1       2.038   1.834  20.809  0.00  0.00    +0.000 C 
ATOM     17  C   UNL     1       1.340   2.894  21.626  0.00  0.00    +0.000 C 
ATOM     18  C   UNL     1       1.938   4.201  21.133  0.00  0.00    +0.000 C 
ATOM     19  C   UNL     1       2.432   3.979  19.687  0.00  0.00    +0.000 C 
ENDBRANCH   1  19
TORSDOF 1
ENDMDL
MODEL 5
REMARK VINA RESULT:      -5.8      6.652      9.028
REMARK  Name = 
REMARK  3 active torsions:
REMARK  status: ('A' for Active; 'I' for Inactive)
REMARK    1  A    between atoms: C_1  and  N_2
REMARK    2  A    between atoms: N_2  and  C_3
REMARK    3  A    between atoms: C_7  and  C_8
REMARK                            x       y       z     vdW  Elec       q    Type
REMARK                         _______ _______ _______ _____ _____    ______ ____
ROOT
ATOM      1  C   UNL     1       0.913  11.536  19.209  0.00  0.00    +0.000 C 
ATOM      2  C   UNL     1       0.938  10.317  19.800  0.00  0.00    +0.000 C 
ATOM      3  C   UNL     1       0.244  10.140  21.117  0.00  0.00    +0.000 C 
ATOM      4  O   UNL     1      -0.765  10.776  21.407  0.00  0.00    +0.000 OA
ATOM      5  C   UNL     1       0.922   9.211  22.085  0.00  0.00    +0.000 C 
ATOM      6  C   UNL     1       1.128   7.858  21.431  0.00  0.00    +0.000 C 
ATOM      7  C   UNL     1       1.732   7.945  20.047  0.00  0.00    +0.000 A 
ATOM      8  C   UNL     1       2.330   6.778  19.531  0.00  0.00    +0.000 A 
ATOM      9  C   UNL     1       2.838   6.755  18.237  0.00  0.00    +0.000 A 
ATOM     10  C   UNL     1       2.746   7.890  17.444  0.00  0.00    +0.000 A 
ATOM     11  C   UNL     1       2.149   9.056  17.941  0.00  0.00    +0.000 A 
ATOM     12  C   UNL     1       1.633   9.110  19.249  0.00  0.00    +0.000 A 
ENDROOT
BRANCH   1  19
ATOM     13  C   UNL     1       0.421  14.538  21.529  0.00  0.00    +0.000 C 
ATOM     14  N   UNL     1       1.125  13.918  20.309  0.00  0.00    +0.000 N 
ATOM     15  C   UNL     1       2.506  13.487  20.764  0.00  0.00    +0.000 C 
ATOM     16  C   UNL     1       1.228  14.949  19.188  0.00  0.00    +0.000 C 
ATOM     17  C   UNL     1      -0.141  14.938  18.553  0.00  0.00    +0.000 C 
ATOM     18  C   UNL     1      -0.546  13.474  18.563  0.00  0.00    +0.000 C 
ATOM     19  C   UNL     1       0.210  12.782  19.719  0.00  0.00    +0.000 C 
ENDBRANCH   1  19
TORSDOF 1
ENDMDL
MODEL 6
REMARK VINA RESULT:      -5.7      8.892     11.310
REMARK  Name = 
REMARK  3 active torsions:
REMARK  status: ('A' for Active; 'I' for Inactive)
REMARK    1  A    between atoms: C_1  and  N_2
REMARK    2  A    between atoms: N_2  and  C_3
REMARK    3  A    between atoms: C_7  and  C_8
REMARK                            x       y       z     vdW  Elec       q    Type
REMARK                         _______ _______ _______ _____ _____    ______ ____
ROOT
ATOM      1  C   UNL     1      -2.638  12.531  20.562  0.00  0.00    +0.000 C 
ATOM      2  C   UNL     1      -2.088  11.646  19.695  0.00  0.00    +0.000 C 
ATOM      3  C   UNL     1      -0.804  10.969  20.072  0.00  0.00    +0.000 C 
ATOM      4  O   UNL     1      -0.532  10.706  21.240  0.00  0.00    +0.000 OA
ATOM      5  C   UNL     1       0.157  10.728  18.942  0.00  0.00    +0.000 C 
ATOM      6  C   UNL     1      -0.534   9.938  17.847  0.00  0.00    +0.000 C 
ATOM      7  C   UNL     1      -1.891  10.492  17.471  0.00  0.00    +0.000 A 
ATOM      8  C   UNL     1      -2.423  10.100  16.226  0.00  0.00    +0.000 A 
ATOM      9  C   UNL     1      -3.697  10.503  15.842  0.00  0.00    +0.000 A 
ATOM     10  C   UNL     1      -4.454  11.291  16.697  0.00  0.00    +0.000 A 
ATOM     11  C   UNL     1      -3.941  11.683  17.941  0.00  0.00    +0.000 A 
ATOM     12  C   UNL     1      -2.652  11.296  18.352  0.00  0.00    +0.000 A 
ENDROOT
BRANCH   1  19
ATOM     13  C   UNL     1      -0.759  14.711  23.082  0.00  0.00    +0.000 C 
ATOM     14  N   UNL     1      -2.038  14.442  22.270  0.00  0.00    +0.000 N 
ATOM     15  C   UNL     1      -2.012  15.378  21.077  0.00  0.00    +0.000 C 
ATOM     16  C   UNL     1      -3.269  14.707  23.133  0.00  0.00    +0.000 C 
ATOM     17  C   UNL     1      -3.401  13.463  23.976  0.00  0.00    +0.000 C 
ATOM     18  C   UNL     1      -3.038  12.330  23.031  0.00  0.00    +0.000 C 
ATOM     19  C   UNL     1      -2.113  12.905  21.937  0.00  0.00    +0.000 C 
ENDBRANCH   1  19
TORSDOF 1
ENDMDL
MODEL 7
REMARK VINA RESULT:      -5.5      8.673     11.161
REMARK  Name = 
REMARK  3 active torsions:
REMARK  status: ('A' for Active; 'I' for Inactive)
REMARK    1  A    between atoms: C_1  and  N_2
REMARK    2  A    between atoms: N_2  and  C_3
REMARK    3  A    between atoms: C_7  and  C_8
REMARK                            x       y       z     vdW  Elec       q    Type
REMARK                         _______ _______ _______ _____ _____    ______ ____
ROOT
ATOM      1  C   UNL     1      -1.259  13.055  20.778  0.00  0.00    +0.000 C 
ATOM      2  C   UNL     1      -0.886  12.004  20.008  0.00  0.00    +0.000 C 
ATOM      3  C   UNL     1       0.464  11.390  20.231  0.00  0.00    +0.000 C 
ATOM      4  O   UNL     1       0.985  11.360  21.342  0.00  0.00    +0.000 OA
ATOM      5  C   UNL     1       1.168  10.909  18.993  0.00  0.00    +0.000 C 
ATOM      6  C   UNL     1       0.278   9.930  18.251  0.00  0.00    +0.000 C 
ATOM      7  C   UNL     1      -1.140  10.425  18.069  0.00  0.00    +0.000 A 
ATOM      8  C   UNL     1      -1.915   9.803  17.071  0.00  0.00    +0.000 A 
ATOM      9  C   UNL     1      -3.251  10.146  16.894  0.00  0.00    +0.000 A 
ATOM     10  C   UNL     1      -3.827  11.104  17.717  0.00  0.00    +0.000 A 
ATOM     11  C   UNL     1      -3.070  11.726  18.718  0.00  0.00    +0.000 A 
ATOM     12  C   UNL     1      -1.715  11.404  18.914  0.00  0.00    +0.000 A 
ENDROOT
BRANCH   1  19
ATOM     13  C   UNL     1       1.143  15.595  22.330  0.00  0.00    +0.000 C 
ATOM     14  N   UNL     1      -0.278  15.248  21.854  0.00  0.00    +0.000 N 
ATOM     15  C   UNL     1      -0.460  15.890  20.492  0.00  0.00    +0.000 C 
ATOM     16  C   UNL     1      -1.306  15.789  22.844  0.00  0.00    +0.000 C 
ATOM     17  C   UNL     1      -1.307  14.777  23.963  0.00  0.00    +0.000 C 
ATOM     18  C   UNL     1      -1.171  13.439  23.257  0.00  0.00    +0.000 C 
ATOM     19  C   UNL     1      -0.463  13.686  21.907  0.00  0.00    +0.000 C 
ENDBRANCH   1  19
TORSDOF 1
ENDMDL
MODEL 8
REMARK VINA RESULT:      -5.5      8.420     11.511
REMARK  Name = 
REMARK  3 active torsions:
REMARK  status: ('A' for Active; 'I' for Inactive)
REMARK    1  A    between atoms: C_1  and  N_2
REMARK    2  A    between atoms: N_2  and  C_3
REMARK    3  A    between atoms: C_7  and  C_8
REMARK                            x       y       z     vdW  Elec       q    Type
REMARK                         _______ _______ _______ _____ _____    ______ ____
ROOT
ATOM      1  C   UNL     1      -1.850  11.423  19.281  0.00  0.00    +0.000 C 
ATOM      2  C   UNL     1      -2.754  11.275  18.282  0.00  0.00    +0.000 C 
ATOM      3  C   UNL     1      -2.344  10.540  17.041  0.00  0.00    +0.000 C 
ATOM      4  O   UNL     1      -1.533   9.620  17.073  0.00  0.00    +0.000 OA
ATOM      5  C   UNL     1      -2.916  11.072  15.757  0.00  0.00    +0.000 C 
ATOM      6  C   UNL     1      -4.429  11.109  15.851  0.00  0.00    +0.000 C 
ATOM      7  C   UNL     1      -4.937  11.743  17.128  0.00  0.00    +0.000 A 
ATOM      8  C   UNL     1      -6.273  12.190  17.136  0.00  0.00    +0.000 A 
ATOM      9  C   UNL     1      -6.838  12.713  18.295  0.00  0.00    +0.000 A 
ATOM     10  C   UNL     1      -6.079  12.786  19.454  0.00  0.00    +0.000 A 
ATOM     11  C   UNL     1      -4.750  12.340  19.462  0.00  0.00    +0.000 A 
ATOM     12  C   UNL     1      -4.152  11.814  18.303  0.00  0.00    +0.000 A 
ENDROOT
BRANCH   1  19
ATOM     13  C   UNL     1       1.887  11.437  18.464  0.00  0.00    +0.000 C 
ATOM     14  N   UNL     1       0.729  11.944  19.341  0.00  0.00    +0.000 N 
ATOM     15  C   UNL     1       0.369  13.331  18.844  0.00  0.00    +0.000 C 
ATOM     16  C   UNL     1       1.167  11.996  20.803  0.00  0.00    +0.000 C 
ATOM     17  C   UNL     1       1.051  10.566  21.271  0.00  0.00    +0.000 C 
ATOM     18  C   UNL     1      -0.210  10.053  20.597  0.00  0.00    +0.000 C 
ATOM     19  C   UNL     1      -0.431  10.882  19.313  0.00  0.00    +0.000 C 
ENDBRANCH   1  19
TORSDOF 1
ENDMDL
MODEL 9
REMARK VINA RESULT:      -5.4     10.126     11.364
REMARK  Name = 
REMARK  3 active torsions:
REMARK  status: ('A' for Active; 'I' for Inactive)
REMARK    1  A    between atoms: C_1  and  N_2
REMARK    2  A    between atoms: N_2  and  C_3
REMARK    3  A    between atoms: C_7  and  C_8
REMARK                            x       y       z     vdW  Elec       q    Type
REMARK                         _______ _______ _______ _____ _____    ______ ____
ROOT
ATOM      1  C   UNL     1       8.961  13.469  22.224  0.00  0.00    +0.000 C 
ATOM      2  C   UNL     1       9.034  13.714  20.893  0.00  0.00    +0.000 C 
ATOM      3  C   UNL     1       8.120  14.742  20.298  0.00  0.00    +0.000 C 
ATOM      4  O   UNL     1       7.756  15.728  20.932  0.00  0.00    +0.000 OA
ATOM      5  C   UNL     1       7.607  14.432  18.920  0.00  0.00    +0.000 C 
ATOM      6  C   UNL     1       8.776  14.187  17.986  0.00  0.00    +0.000 C 
ATOM      7  C   UNL     1       9.808  13.236  18.550  0.00  0.00    +0.000 A 
ATOM      8  C   UNL     1      10.696  12.635  17.637  0.00  0.00    +0.000 A 
ATOM      9  C   UNL     1      11.722  11.809  18.084  0.00  0.00    +0.000 A 
ATOM     10  C   UNL     1      11.876  11.584  19.445  0.00  0.00    +0.000 A 
ATOM     11  C   UNL     1      11.004  12.180  20.366  0.00  0.00    +0.000 A 
ATOM     12  C   UNL     1       9.953  13.013  19.940  0.00  0.00    +0.000 A 
ENDROOT
BRANCH   1  19
ATOM     13  C   UNL     1       5.762  13.942  24.267  0.00  0.00    +0.000 C 
ATOM     14  N   UNL     1       7.119  13.239  24.090  0.00  0.00    +0.000 N 
ATOM     15  C   UNL     1       6.837  11.864  23.517  0.00  0.00    +0.000 C 
ATOM     16  C   UNL     1       7.825  13.123  25.439  0.00  0.00    +0.000 C 
ATOM     17  C   UNL     1       8.428  14.489  25.657  0.00  0.00    +0.000 C 
ATOM     18  C   UNL     1       8.913  14.908  24.280  0.00  0.00    +0.000 C 
ATOM     19  C   UNL     1       8.060  14.163  23.230  0.00  0.00    +0.000 C 
ENDBRANCH   1  19
TORSDOF 1
ENDMDL
