MODEL 1
REMARK VINA RESULT:      -6.6      0.000      0.000
REMARK  Name = 
REMARK  5 active torsions:
REMARK  status: ('A' for Active; 'I' for Inactive)
REMARK    1  A    between atoms: C_1  and  C_2
REMARK    2  A    between atoms: C_2  and  C_3
REMARK    3  A    between atoms: C_2  and  N_15
REMARK    4  A    between atoms: N_5  and  C_6
REMARK    5  A    between atoms: N_5  and  C_7
REMARK                            x       y       z     vdW  Elec       q    Type
REMARK                         _______ _______ _______ _____ _____    ______ ____
ROOT
ATOM      1  C   UNL     1       5.601   5.620  17.557  0.00  0.00    +0.000 C 
ATOM      2  O   UNL     1       6.137   6.679  17.902  0.00  0.00    +0.000 OA
ATOM      3  N   UNL     1       4.211   5.435  17.595  0.00  0.00    +0.000 N 
ATOM      4  C   UNL     1       3.535   4.156  17.390  0.00  0.00    +0.000 C 
ENDROOT
BRANCH   3   5
ATOM      5  C   UNL     1       3.406   6.500  18.121  0.00  0.00    +0.000 A 
ATOM      6  C   UNL     1       3.238   7.665  17.356  0.00  0.00    +0.000 A 
ATOM      7  C   UNL     1       2.395   8.689  17.798  0.00  0.00    +0.000 A 
ATOM      8  C   UNL     1       1.730   8.562  19.014  0.00  0.00    +0.000 A 
ATOM      9 BR   UNL     1       0.578   9.944  19.599  0.00  0.00    +0.000 Br
ATOM     10  C   UNL     1       1.912   7.432  19.807  0.00  0.00    +0.000 A 
ATOM     11  C   UNL     1       2.751   6.404  19.365  0.00  0.00    +0.000 A 
ATOM     12 CL   UNL     1       3.051   5.099  20.464  0.00  0.00    +0.000 Cl
ENDBRANCH   3   5
BRANCH   1  14
ATOM     13  C   UNL     1       7.839   4.477  17.794  0.00  0.00    +0.000 C 
ATOM     14  C   UNL     1       6.475   4.453  17.100  0.00  0.00    +0.000 C 
BRANCH  14  15
ATOM     15  N   UNL     1       6.644   4.461  15.657  0.00  0.00    +0.000 N 
ATOM     16  C   UNL     1       5.971   3.748  14.712  0.00  0.00    +0.000 A 
ATOM     17  N   UNL     1       6.381   4.111  13.517  0.00  0.00    +0.000 NA
ATOM     18  C   UNL     1       7.311   5.071  13.786  0.00  0.00    +0.000 A 
ATOM     19  N   UNL     1       7.516   5.317  15.083  0.00  0.00    +0.000 NA
ENDBRANCH  14  15
ENDBRANCH   1  14
TORSDOF 3
ENDMDL
MODEL 2
REMARK VINA RESULT:      -6.3      3.605      5.819
REMARK  Name = 
REMARK  5 active torsions:
REMARK  status: ('A' for Active; 'I' for Inactive)
REMARK    1  A    between atoms: C_1  and  C_2
REMARK    2  A    between atoms: C_2  and  C_3
REMARK    3  A    between atoms: C_2  and  N_15
REMARK    4  A    between atoms: N_5  and  C_6
REMARK    5  A    between atoms: N_5  and  C_7
REMARK                            x       y       z     vdW  Elec       q    Type
REMARK                         _______ _______ _______ _____ _____    ______ ____
ROOT
ATOM      1  C   UNL     1       4.431   4.466  18.704  0.00  0.00    +0.000 C 
ATOM      2  O   UNL     1       4.123   5.316  19.546  0.00  0.00    +0.000 OA
ATOM      3  N   UNL     1       5.544   4.610  17.864  0.00  0.00    +0.000 N 
ATOM      4  C   UNL     1       5.848   3.746  16.726  0.00  0.00    +0.000 C 
ENDROOT
BRANCH   3   5
ATOM      5  C   UNL     1       6.301   5.826  17.955  0.00  0.00    +0.000 A 
ATOM      6  C   UNL     1       7.410   5.873  18.815  0.00  0.00    +0.000 A 
ATOM      7  C   UNL     1       8.220   7.011  18.869  0.00  0.00    +0.000 A 
ATOM      8  C   UNL     1       7.915   8.115  18.078  0.00  0.00    +0.000 A 
ATOM      9 BR   UNL     1       9.023   9.646  18.142  0.00  0.00    +0.000 Br
ATOM     10  C   UNL     1       6.798   8.105  17.246  0.00  0.00    +0.000 A 
ATOM     11  C   UNL     1       5.989   6.966  17.187  0.00  0.00    +0.000 A 
ATOM     12 CL   UNL     1       4.536   7.074  16.251  0.00  0.00    +0.000 Cl
ENDBRANCH   3   5
BRANCH   1  14
ATOM     13  C   UNL     1       2.597   3.373  17.356  0.00  0.00    +0.000 C 
ATOM     14  C   UNL     1       3.556   3.223  18.539  0.00  0.00    +0.000 C 
BRANCH  14  15
ATOM     15  N   UNL     1       2.814   2.942  19.756  0.00  0.00    +0.000 N 
ATOM     16  C   UNL     1       3.277   2.513  20.962  0.00  0.00    +0.000 A 
ATOM     17  N   UNL     1       2.283   2.460  21.819  0.00  0.00    +0.000 NA
ATOM     18  C   UNL     1       1.216   2.882  21.083  0.00  0.00    +0.000 A 
ATOM     19  N   UNL     1       1.487   3.182  19.809  0.00  0.00    +0.000 NA
ENDBRANCH  14  15
ENDBRANCH   1  14
TORSDOF 3
ENDMDL
MODEL 3
REMARK VINA RESULT:      -6.3      1.237      1.728
REMARK  Name = 
REMARK  5 active torsions:
REMARK  status: ('A' for Active; 'I' for Inactive)
REMARK    1  A    between atoms: C_1  and  C_2
REMARK    2  A    between atoms: C_2  and  C_3
REMARK    3  A    between atoms: C_2  and  N_15
REMARK    4  A    between atoms: N_5  and  C_6
REMARK    5  A    between atoms: N_5  and  C_7
REMARK                            x       y       z     vdW  Elec       q    Type
REMARK                         _______ _______ _______ _____ _____    ______ ____
ROOT
ATOM      1  C   UNL     1       4.089   5.520  17.957  0.00  0.00    +0.000 C 
ATOM      2  O   UNL     1       4.908   6.330  18.404  0.00  0.00    +0.000 OA
ATOM      3  N   UNL     1       2.706   5.737  18.020  0.00  0.00    +0.000 N 
ATOM      4  C   UNL     1       1.689   4.741  17.690  0.00  0.00    +0.000 C 
ENDROOT
BRANCH   3   5
ATOM      5  C   UNL     1       2.241   6.916  18.694  0.00  0.00    +0.000 A 
ATOM      6  C   UNL     1       2.085   8.102  17.957  0.00  0.00    +0.000 A 
ATOM      7  C   UNL     1       1.557   9.248  18.559  0.00  0.00    +0.000 A 
ATOM      8  C   UNL     1       1.200   9.221  19.904  0.00  0.00    +0.000 A 
ATOM      9 BR   UNL     1       0.472  10.769  20.710  0.00  0.00    +0.000 Br
ATOM     10  C   UNL     1       1.383   8.068  20.663  0.00  0.00    +0.000 A 
ATOM     11  C   UNL     1       1.906   6.918  20.062  0.00  0.00    +0.000 A 
ATOM     12 CL   UNL     1       2.247   5.570  21.094  0.00  0.00    +0.000 Cl
ENDBRANCH   3   5
BRANCH   1  14
ATOM     13  C   UNL     1       4.996   3.209  18.417  0.00  0.00    +0.000 C 
ATOM     14  C   UNL     1       4.589   4.215  17.337  0.00  0.00    +0.000 C 
BRANCH  14  15
ATOM     15  N   UNL     1       5.700   4.459  16.432  0.00  0.00    +0.000 N 
ATOM     16  C   UNL     1       7.033   4.502  16.704  0.00  0.00    +0.000 A 
ATOM     17  N   UNL     1       7.702   4.672  15.587  0.00  0.00    +0.000 NA
ATOM     18  C   UNL     1       6.721   4.717  14.641  0.00  0.00    +0.000 A 
ATOM     19  N   UNL     1       5.475   4.600  15.109  0.00  0.00    +0.000 NA
ENDBRANCH  14  15
ENDBRANCH   1  14
TORSDOF 3
ENDMDL
MODEL 4
REMARK VINA RESULT:      -6.1      3.601      6.436
REMARK  Name = 
REMARK  5 active torsions:
REMARK  status: ('A' for Active; 'I' for Inactive)
REMARK    1  A    between atoms: C_1  and  C_2
REMARK    2  A    between atoms: C_2  and  C_3
REMARK    3  A    between atoms: C_2  and  N_15
REMARK    4  A    between atoms: N_5  and  C_6
REMARK    5  A    between atoms: N_5  and  C_7
REMARK                            x       y       z     vdW  Elec       q    Type
REMARK                         _______ _______ _______ _____ _____    ______ ____
ROOT
ATOM      1  C   UNL     1       2.956   5.681  18.598  0.00  0.00    +0.000 C 
ATOM      2  O   UNL     1       2.104   5.481  17.726  0.00  0.00    +0.000 OA
ATOM      3  N   UNL     1       4.330   5.548  18.351  0.00  0.00    +0.000 N 
ATOM      4  C   UNL     1       5.368   5.579  19.379  0.00  0.00    +0.000 C 
ENDROOT
BRANCH   3   5
ATOM      5  C   UNL     1       4.738   5.095  17.052  0.00  0.00    +0.000 A 
ATOM      6  C   UNL     1       5.167   6.041  16.107  0.00  0.00    +0.000 A 
ATOM      7  C   UNL     1       5.650   5.631  14.861  0.00  0.00    +0.000 A 
ATOM      8  C   UNL     1       5.689   4.275  14.545  0.00  0.00    +0.000 A 
ATOM      9 BR   UNL     1       6.357   3.726  12.864  0.00  0.00    +0.000 Br
ATOM     10  C   UNL     1       5.231   3.323  15.452  0.00  0.00    +0.000 A 
ATOM     11  C   UNL     1       4.752   3.730  16.702  0.00  0.00    +0.000 A 
ATOM     12 CL   UNL     1       4.061   2.512  17.720  0.00  0.00    +0.000 Cl
ENDBRANCH   3   5
BRANCH   1  14
ATOM     13  C   UNL     1       1.496   5.050  20.559  0.00  0.00    +0.000 C 
ATOM     14  C   UNL     1       2.508   6.059  20.010  0.00  0.00    +0.000 C 
BRANCH  14  15
ATOM     15  N   UNL     1       1.947   7.399  20.038  0.00  0.00    +0.000 N 
ATOM     16  C   UNL     1       1.935   8.344  19.058  0.00  0.00    +0.000 A 
ATOM     17  N   UNL     1       1.256   9.391  19.468  0.00  0.00    +0.000 NA
ATOM     18  C   UNL     1       0.856   9.032  20.721  0.00  0.00    +0.000 A 
ATOM     19  N   UNL     1       1.261   7.823  21.121  0.00  0.00    +0.000 NA
ENDBRANCH  14  15
ENDBRANCH   1  14
TORSDOF 3
ENDMDL
MODEL 5
REMARK VINA RESULT:      -5.9      3.549      5.707
REMARK  Name = 
REMARK  5 active torsions:
REMARK  status: ('A' for Active; 'I' for Inactive)
REMARK    1  A    between atoms: C_1  and  C_2
REMARK    2  A    between atoms: C_2  and  C_3
REMARK    3  A    between atoms: C_2  and  N_15
REMARK    4  A    between atoms: N_5  and  C_6
REMARK    5  A    between atoms: N_5  and  C_7
REMARK                            x       y       z     vdW  Elec       q    Type
REMARK                         _______ _______ _______ _____ _____    ______ ____
ROOT
ATOM      1  C   UNL     1       4.122   4.746  18.573  0.00  0.00    +0.000 C 
ATOM      2  O   UNL     1       4.031   5.554  19.503  0.00  0.00    +0.000 OA
ATOM      3  N   UNL     1       5.101   4.857  17.575  0.00  0.00    +0.000 N 
ATOM      4  C   UNL     1       5.141   4.057  16.353  0.00  0.00    +0.000 C 
ENDROOT
BRANCH   3   5
ATOM      5  C   UNL     1       5.975   5.995  17.616  0.00  0.00    +0.000 A 
ATOM      6  C   UNL     1       5.502   7.231  17.145  0.00  0.00    +0.000 A 
ATOM      7  C   UNL     1       6.294   8.378  17.245  0.00  0.00    +0.000 A 
ATOM      8  C   UNL     1       7.569   8.295  17.798  0.00  0.00    +0.000 A 
ATOM      9 BR   UNL     1       8.629   9.853  17.944  0.00  0.00    +0.000 Br
ATOM     10  C   UNL     1       8.072   7.072  18.235  0.00  0.00    +0.000 A 
ATOM     11  C   UNL     1       7.281   5.923  18.142  0.00  0.00    +0.000 A 
ATOM     12 CL   UNL     1       8.020   4.415  18.563  0.00  0.00    +0.000 Cl
ENDBRANCH   3   5
BRANCH   1  14
ATOM     13  C   UNL     1       1.902   3.993  17.636  0.00  0.00    +0.000 C 
ATOM     14  C   UNL     1       3.119   3.597  18.477  0.00  0.00    +0.000 C 
BRANCH  14  15
ATOM     15  N   UNL     1       2.697   3.161  19.797  0.00  0.00    +0.000 N 
ATOM     16  C   UNL     1       3.434   2.577  20.782  0.00  0.00    +0.000 A 
ATOM     17  N   UNL     1       2.686   2.413  21.849  0.00  0.00    +0.000 NA
ATOM     18  C   UNL     1       1.482   2.929  21.467  0.00  0.00    +0.000 A 
ATOM     19  N   UNL     1       1.435   3.393  20.215  0.00  0.00    +0.000 NA
ENDBRANCH  14  15
ENDBRANCH   1  14
TORSDOF 3
ENDMDL
MODEL 6
REMARK VINA RESULT:      -5.8      1.357      1.823
REMARK  Name = 
REMARK  5 active torsions:
REMARK  status: ('A' for Active; 'I' for Inactive)
REMARK    1  A    between atoms: C_1  and  C_2
REMARK    2  A    between atoms: C_2  and  C_3
REMARK    3  A    between atoms: C_2  and  N_15
REMARK    4  A    between atoms: N_5  and  C_6
REMARK    5  A    between atoms: N_5  and  C_7
REMARK                            x       y       z     vdW  Elec       q    Type
REMARK                         _______ _______ _______ _____ _____    ______ ____
ROOT
ATOM      1  C   UNL     1       5.642   5.234  18.129  0.00  0.00    +0.000 C 
ATOM      2  O   UNL     1       6.038   6.321  18.563  0.00  0.00    +0.000 OA
ATOM      3  N   UNL     1       4.297   4.842  18.200  0.00  0.00    +0.000 N 
ATOM      4  C   UNL     1       3.801   3.504  17.887  0.00  0.00    +0.000 C 
ENDROOT
BRANCH   3   5
ATOM      5  C   UNL     1       3.377   5.720  18.865  0.00  0.00    +0.000 A 
ATOM      6  C   UNL     1       2.795   5.303  20.074  0.00  0.00    +0.000 A 
ATOM      7  C   UNL     1       1.959   6.161  20.793  0.00  0.00    +0.000 A 
ATOM      8  C   UNL     1       1.684   7.434  20.300  0.00  0.00    +0.000 A 
ATOM      9 BR   UNL     1       0.564   8.597  21.284  0.00  0.00    +0.000 Br
ATOM     10  C   UNL     1       2.219   7.853  19.084  0.00  0.00    +0.000 A 
ATOM     11  C   UNL     1       3.060   6.998  18.365  0.00  0.00    +0.000 A 
ATOM     12 CL   UNL     1       3.568   7.523  16.795  0.00  0.00    +0.000 Cl
ENDBRANCH   3   5
BRANCH   1  14
ATOM     13  C   UNL     1       8.047   4.466  18.107  0.00  0.00    +0.000 C 
ATOM     14  C   UNL     1       6.648   4.259  17.519  0.00  0.00    +0.000 C 
BRANCH  14  15
ATOM     15  N   UNL     1       6.687   4.385  16.072  0.00  0.00    +0.000 N 
ATOM     16  C   UNL     1       5.998   3.682  15.132  0.00  0.00    +0.000 A 
ATOM     17  N   UNL     1       6.266   4.166  13.940  0.00  0.00    +0.000 NA
ATOM     18  C   UNL     1       7.129   5.188  14.206  0.00  0.00    +0.000 A 
ATOM     19  N   UNL     1       7.426   5.359  15.498  0.00  0.00    +0.000 NA
ENDBRANCH  14  15
ENDBRANCH   1  14
TORSDOF 3
ENDMDL
MODEL 7
REMARK VINA RESULT:      -5.8      1.935      2.736
REMARK  Name = 
REMARK  5 active torsions:
REMARK  status: ('A' for Active; 'I' for Inactive)
REMARK    1  A    between atoms: C_1  and  C_2
REMARK    2  A    between atoms: C_2  and  C_3
REMARK    3  A    between atoms: C_2  and  N_15
REMARK    4  A    between atoms: N_5  and  C_6
REMARK    5  A    between atoms: N_5  and  C_7
REMARK                            x       y       z     vdW  Elec       q    Type
REMARK                         _______ _______ _______ _____ _____    ______ ____
ROOT
ATOM      1  C   UNL     1       3.981   5.099  18.826  0.00  0.00    +0.000 C 
ATOM      2  O   UNL     1       4.696   5.737  19.606  0.00  0.00    +0.000 OA
ATOM      3  N   UNL     1       2.642   5.437  18.586  0.00  0.00    +0.000 N 
ATOM      4  C   UNL     1       1.696   4.616  17.834  0.00  0.00    +0.000 C 
ENDROOT
BRANCH   3   5
ATOM      5  C   UNL     1       2.080   6.525  19.336  0.00  0.00    +0.000 A 
ATOM      6  C   UNL     1       1.486   6.256  20.579  0.00  0.00    +0.000 A 
ATOM      7  C   UNL     1       1.002   7.298  21.375  0.00  0.00    +0.000 A 
ATOM      8  C   UNL     1       1.092   8.612  20.925  0.00  0.00    +0.000 A 
ATOM      9 BR   UNL     1       0.451  10.020  22.013  0.00  0.00    +0.000 Br
ATOM     10  C   UNL     1       1.643   8.898  19.678  0.00  0.00    +0.000 A 
ATOM     11  C   UNL     1       2.132   7.858  18.882  0.00  0.00    +0.000 A 
ATOM     12 CL   UNL     1       2.664   8.265  17.285  0.00  0.00    +0.000 Cl
ENDBRANCH   3   5
BRANCH   1  14
ATOM     13  C   UNL     1       4.912   2.769  19.110  0.00  0.00    +0.000 C 
ATOM     14  C   UNL     1       4.557   3.875  18.113  0.00  0.00    +0.000 C 
BRANCH  14  15
ATOM     15  N   UNL     1       5.723   4.232  17.322  0.00  0.00    +0.000 N 
ATOM     16  C   UNL     1       7.005   4.438  17.731  0.00  0.00    +0.000 A 
ATOM     17  N   UNL     1       7.766   4.666  16.685  0.00  0.00    +0.000 NA
ATOM     18  C   UNL     1       6.894   4.576  15.640  0.00  0.00    +0.000 A 
ATOM     19  N   UNL     1       5.627   4.321  15.978  0.00  0.00    +0.000 NA
ENDBRANCH  14  15
ENDBRANCH   1  14
TORSDOF 3
ENDMDL
MODEL 8
REMARK VINA RESULT:      -5.7      3.707      6.525
REMARK  Name = 
REMARK  5 active torsions:
REMARK  status: ('A' for Active; 'I' for Inactive)
REMARK    1  A    between atoms: C_1  and  C_2
REMARK    2  A    between atoms: C_2  and  C_3
REMARK    3  A    between atoms: C_2  and  N_15
REMARK    4  A    between atoms: N_5  and  C_6
REMARK    5  A    between atoms: N_5  and  C_7
REMARK                            x       y       z     vdW  Elec       q    Type
REMARK                         _______ _______ _______ _____ _____    ______ ____
ROOT
ATOM      1  C   UNL     1       2.955   5.051  18.553  0.00  0.00    +0.000 C 
ATOM      2  O   UNL     1       2.184   4.763  17.630  0.00  0.00    +0.000 OA
ATOM      3  N   UNL     1       4.339   5.165  18.366  0.00  0.00    +0.000 N 
ATOM      4  C   UNL     1       5.316   5.308  19.444  0.00  0.00    +0.000 C 
ENDROOT
BRANCH   3   5
ATOM      5  C   UNL     1       4.869   4.865  17.067  0.00  0.00    +0.000 A 
ATOM      6  C   UNL     1       5.152   3.528  16.742  0.00  0.00    +0.000 A 
ATOM      7  C   UNL     1       5.590   3.187  15.459  0.00  0.00    +0.000 A 
ATOM      8  C   UNL     1       5.767   4.181  14.500  0.00  0.00    +0.000 A 
ATOM      9 BR   UNL     1       6.346   3.712  12.762  0.00  0.00    +0.000 Br
ATOM     10  C   UNL     1       5.530   5.517  14.813  0.00  0.00    +0.000 A 
ATOM     11  C   UNL     1       5.087   5.861  16.094  0.00  0.00    +0.000 A 
ATOM     12 CL   UNL     1       4.957   7.548  16.461  0.00  0.00    +0.000 Cl
ENDBRANCH   3   5
BRANCH   1  14
ATOM     13  C   UNL     1       1.222   4.316  20.236  0.00  0.00    +0.000 C 
ATOM     14  C   UNL     1       2.393   5.263  19.958  0.00  0.00    +0.000 C 
BRANCH  14  15
ATOM     15  N   UNL     1       1.982   6.643  20.153  0.00  0.00    +0.000 N 
ATOM     16  C   UNL     1       2.133   7.708  19.320  0.00  0.00    +0.000 A 
ATOM     17  N   UNL     1       1.549   8.761  19.844  0.00  0.00    +0.000 NA
ATOM     18  C   UNL     1       1.036   8.282  21.014  0.00  0.00    +0.000 A 
ATOM     19  N   UNL     1       1.282   6.990  21.254  0.00  0.00    +0.000 NA
ENDBRANCH  14  15
ENDBRANCH   1  14
TORSDOF 3
ENDMDL
MODEL 9
REMARK VINA RESULT:      -5.6      5.792      8.725
REMARK  Name = 
REMARK  5 active torsions:
REMARK  status: ('A' for Active; 'I' for Inactive)
REMARK    1  A    between atoms: C_1  and  C_2
REMARK    2  A    between atoms: C_2  and  C_3
REMARK    3  A    between atoms: C_2  and  N_15
REMARK    4  A    between atoms: N_5  and  C_6
REMARK    5  A    between atoms: N_5  and  C_7
REMARK                            x       y       z     vdW  Elec       q    Type
REMARK                         _______ _______ _______ _____ _____    ______ ____
ROOT
ATOM      1  C   UNL     1      -0.911  10.477  18.542  0.00  0.00    +0.000 C 
ATOM      2  O   UNL     1      -1.539   9.413  18.520  0.00  0.00    +0.000 OA
ATOM      3  N   UNL     1       0.480  10.524  18.708  0.00  0.00    +0.000 N 
ATOM      4  C   UNL     1       1.252  11.744  18.937  0.00  0.00    +0.000 C 
ENDROOT
BRANCH   3   5
ATOM      5  C   UNL     1       1.173   9.287  18.927  0.00  0.00    +0.000 A 
ATOM      6  C   UNL     1       1.843   8.685  17.849  0.00  0.00    +0.000 A 
ATOM      7  C   UNL     1       2.597   7.523  18.042  0.00  0.00    +0.000 A 
ATOM      8  C   UNL     1       2.670   6.947  19.307  0.00  0.00    +0.000 A 
ATOM      9 BR   UNL     1       3.704   5.385  19.564  0.00  0.00    +0.000 Br
ATOM     10  C   UNL     1       1.982   7.505  20.380  0.00  0.00    +0.000 A 
ATOM     11  C   UNL     1       1.231   8.670  20.192  0.00  0.00    +0.000 A 
ATOM     12 CL   UNL     1       0.281   9.225  21.530  0.00  0.00    +0.000 Cl
ENDBRANCH   3   5
BRANCH   1  14
ATOM     13  C   UNL     1      -2.095  12.325  19.790  0.00  0.00    +0.000 C 
ATOM     14  C   UNL     1      -1.670  11.798  18.417  0.00  0.00    +0.000 C 
BRANCH  14  15
ATOM     15  N   UNL     1      -2.829  11.654  17.553  0.00  0.00    +0.000 N 
ATOM     16  C   UNL     1      -2.879  11.313  16.236  0.00  0.00    +0.000 A 
ATOM     17  N   UNL     1      -4.132  11.218  15.855  0.00  0.00    +0.000 NA
ATOM     18  C   UNL     1      -4.826  11.504  16.994  0.00  0.00    +0.000 A 
ATOM     19  N   UNL     1      -4.073  11.786  18.062  0.00  0.00    +0.000 NA
ENDBRANCH  14  15
ENDBRANCH   1  14
TORSDOF 3
ENDMDL
