MODEL 1
REMARK VINA RESULT:      -7.7      0.000      0.000
REMARK  Name = 
REMARK  2 active torsions:
REMARK  status: ('A' for Active; 'I' for Inactive)
REMARK    1  A    between atoms: C_1  and  N_2
REMARK    2  A    between atoms: N_10  and  C_11
REMARK                            x       y       z     vdW  Elec       q    Type
REMARK                         _______ _______ _______ _____ _____    ______ ____
ROOT
ATOM      1  C   UNL     1       4.001   2.241  20.251  0.00  0.00    +0.000 C 
ATOM      2  N   UNL     1       3.568   3.613  20.055  0.00  0.00    +0.000 N 
ATOM      3  C   UNL     1       2.654   4.135  20.955  0.00  0.00    +0.000 A 
ATOM      4  O   UNL     1       2.148   3.582  21.914  0.00  0.00    +0.000 OA
ATOM      5  N   UNL     1       2.232   5.478  20.734  0.00  0.00    +0.000 N 
ATOM      6  C   UNL     1       2.704   6.202  19.664  0.00  0.00    +0.000 A 
ATOM      7  C   UNL     1       3.582   5.640  18.778  0.00  0.00    +0.000 A 
ATOM      8  C   UNL     1       3.763   6.625  17.792  0.00  0.00    +0.000 A 
ATOM      9  N   UNL     1       2.992   7.696  17.999  0.00  0.00    +0.000 NA
ATOM     10  N   UNL     1       2.387   7.463  19.193  0.00  0.00    +0.000 N 
ATOM     11  C   UNL     1       4.062   4.308  18.961  0.00  0.00    +0.000 A 
ATOM     12  N   UNL     1       4.895   3.766  18.148  0.00  0.00    +0.000 NA
ATOM     13  H   UNL     1       1.529   5.834  21.368  0.00  0.00    +0.000 HD
ATOM     14  H   UNL     1       5.169   4.385  17.378  0.00  0.00    +0.000 HD
ENDROOT
BRANCH  10  15
ATOM     15  C   UNL     1       1.531   8.429  19.771  0.00  0.00    +0.000 A 
ATOM     16  C   UNL     1       0.971   9.420  18.952  0.00  0.00    +0.000 A 
ATOM     17  C   UNL     1       0.093  10.355  19.502  0.00  0.00    +0.000 A 
ATOM     18 CL   UNL     1      -0.667  11.512  18.482  0.00  0.00    +0.000 Cl
ATOM     19  C   UNL     1      -0.189  10.348  20.866  0.00  0.00    +0.000 A 
ATOM     20  C   UNL     1       0.407   9.387  21.680  0.00  0.00    +0.000 A 
ATOM     21 CL   UNL     1       0.113   9.402  23.374  0.00  0.00    +0.000 Cl
ATOM     22  C   UNL     1       1.253   8.414  21.142  0.00  0.00    +0.000 A 
ENDBRANCH  10  15
TORSDOF 1
ENDMDL
MODEL 2
REMARK VINA RESULT:      -7.6      0.368      2.048
REMARK  Name = 
REMARK  2 active torsions:
REMARK  status: ('A' for Active; 'I' for Inactive)
REMARK    1  A    between atoms: C_1  and  N_2
REMARK    2  A    between atoms: N_10  and  C_11
REMARK                            x       y       z     vdW  Elec       q    Type
REMARK                         _______ _______ _______ _____ _____    ______ ____
ROOT
ATOM      1  C   UNL     1       3.982   2.575  19.985  0.00  0.00    +0.000 C 
ATOM      2  N   UNL     1       3.513   3.942  19.838  0.00  0.00    +0.000 N 
ATOM      3  C   UNL     1       2.576   4.402  20.749  0.00  0.00    +0.000 A 
ATOM      4  O   UNL     1       2.076   3.798  21.679  0.00  0.00    +0.000 OA
ATOM      5  N   UNL     1       2.120   5.740  20.577  0.00  0.00    +0.000 N 
ATOM      6  C   UNL     1       2.581   6.520  19.542  0.00  0.00    +0.000 A 
ATOM      7  C   UNL     1       3.483   6.018  18.643  0.00  0.00    +0.000 A 
ATOM      8  C   UNL     1       3.646   7.047  17.700  0.00  0.00    +0.000 A 
ATOM      9  N   UNL     1       2.843   8.087  17.941  0.00  0.00    +0.000 NA
ATOM     10  N   UNL     1       2.233   7.790  19.118  0.00  0.00    +0.000 N 
ATOM     11  C   UNL     1       3.998   4.694  18.779  0.00  0.00    +0.000 A 
ATOM     12  N   UNL     1       4.854   4.208  17.954  0.00  0.00    +0.000 NA
ATOM     13  H   UNL     1       1.400   6.052  21.217  0.00  0.00    +0.000 HD
ATOM     14  H   UNL     1       5.118   4.865  17.212  0.00  0.00    +0.000 HD
ENDROOT
BRANCH  10  15
ATOM     15  C   UNL     1       1.346   8.708  19.725  0.00  0.00    +0.000 A 
ATOM     16  C   UNL     1       1.107   8.615  21.103  0.00  0.00    +0.000 A 
ATOM     17  C   UNL     1       0.265   9.540  21.722  0.00  0.00    +0.000 A 
ATOM     18 CL   UNL     1       0.045   9.485  23.427  0.00  0.00    +0.000 Cl
ATOM     19  C   UNL     1      -0.384  10.520  20.974  0.00  0.00    +0.000 A 
ATOM     20  C   UNL     1      -0.176  10.577  19.599  0.00  0.00    +0.000 A 
ATOM     21 CL   UNL     1      -1.013  11.746  18.656  0.00  0.00    +0.000 Cl
ATOM     22  C   UNL     1       0.699   9.690  18.967  0.00  0.00    +0.000 A 
ENDBRANCH  10  15
TORSDOF 1
ENDMDL
MODEL 3
REMARK VINA RESULT:      -7.4      3.404      6.183
REMARK  Name = 
REMARK  2 active torsions:
REMARK  status: ('A' for Active; 'I' for Inactive)
REMARK    1  A    between atoms: C_1  and  N_2
REMARK    2  A    between atoms: N_10  and  C_11
REMARK                            x       y       z     vdW  Elec       q    Type
REMARK                         _______ _______ _______ _____ _____    ______ ____
ROOT
ATOM      1  C   UNL     1      -0.227  11.884  21.960  0.00  0.00    +0.000 C 
ATOM      2  N   UNL     1       0.343  10.730  21.285  0.00  0.00    +0.000 N 
ATOM      3  C   UNL     1       0.784   9.679  22.070  0.00  0.00    +0.000 A 
ATOM      4  O   UNL     1       0.761   9.588  23.283  0.00  0.00    +0.000 OA
ATOM      5  N   UNL     1       1.352   8.565  21.388  0.00  0.00    +0.000 N 
ATOM      6  C   UNL     1       1.468   8.556  20.017  0.00  0.00    +0.000 A 
ATOM      7  C   UNL     1       1.050   9.630  19.279  0.00  0.00    +0.000 A 
ATOM      8  C   UNL     1       1.405   9.305  17.958  0.00  0.00    +0.000 A 
ATOM      9  N   UNL     1       2.071   8.150  17.882  0.00  0.00    +0.000 NA
ATOM     10  N   UNL     1       2.052   7.654  19.147  0.00  0.00    +0.000 N 
ATOM     11  C   UNL     1       0.448  10.763  19.903  0.00  0.00    +0.000 A 
ATOM     12  N   UNL     1       0.038  11.776  19.227  0.00  0.00    +0.000 NA
ATOM     13  H   UNL     1       1.715   7.822  21.972  0.00  0.00    +0.000 HD
ATOM     14  H   UNL     1       0.186  11.674  18.218  0.00  0.00    +0.000 HD
ENDROOT
BRANCH  10  15
ATOM     15  C   UNL     1       2.617   6.391  19.437  0.00  0.00    +0.000 A 
ATOM     16  C   UNL     1       3.828   6.030  18.828  0.00  0.00    +0.000 A 
ATOM     17  C   UNL     1       4.418   4.804  19.137  0.00  0.00    +0.000 A 
ATOM     18 CL   UNL     1       5.948   4.402  18.463  0.00  0.00    +0.000 Cl
ATOM     19  C   UNL     1       3.789   3.911  20.001  0.00  0.00    +0.000 A 
ATOM     20  C   UNL     1       2.565   4.259  20.567  0.00  0.00    +0.000 A 
ATOM     21 CL   UNL     1       1.750   3.144  21.591  0.00  0.00    +0.000 Cl
ATOM     22  C   UNL     1       1.979   5.501  20.307  0.00  0.00    +0.000 A 
ENDBRANCH  10  15
TORSDOF 1
ENDMDL
MODEL 4
REMARK VINA RESULT:      -7.4      3.395      6.344
REMARK  Name = 
REMARK  2 active torsions:
REMARK  status: ('A' for Active; 'I' for Inactive)
REMARK    1  A    between atoms: C_1  and  N_2
REMARK    2  A    between atoms: N_10  and  C_11
REMARK                            x       y       z     vdW  Elec       q    Type
REMARK                         _______ _______ _______ _____ _____    ______ ____
ROOT
ATOM      1  C   UNL     1      -0.301  11.902  21.969  0.00  0.00    +0.000 C 
ATOM      2  N   UNL     1       0.279  10.755  21.293  0.00  0.00    +0.000 N 
ATOM      3  C   UNL     1       0.713   9.698  22.076  0.00  0.00    +0.000 A 
ATOM      4  O   UNL     1       0.675   9.599  23.288  0.00  0.00    +0.000 OA
ATOM      5  N   UNL     1       1.291   8.590  21.393  0.00  0.00    +0.000 N 
ATOM      6  C   UNL     1       1.424   8.591  20.023  0.00  0.00    +0.000 A 
ATOM      7  C   UNL     1       1.012   9.669  19.288  0.00  0.00    +0.000 A 
ATOM      8  C   UNL     1       1.383   9.354  17.969  0.00  0.00    +0.000 A 
ATOM      9  N   UNL     1       2.053   8.201  17.893  0.00  0.00    +0.000 NA
ATOM     10  N   UNL     1       2.019   7.696  19.154  0.00  0.00    +0.000 N 
ATOM     11  C   UNL     1       0.400  10.797  19.912  0.00  0.00    +0.000 A 
ATOM     12  N   UNL     1      -0.004  11.813  19.239  0.00  0.00    +0.000 NA
ATOM     13  H   UNL     1       1.649   7.844  21.976  0.00  0.00    +0.000 HD
ATOM     14  H   UNL     1       0.157  11.719  18.230  0.00  0.00    +0.000 HD
ENDROOT
BRANCH  10  15
ATOM     15  C   UNL     1       2.584   6.433  19.442  0.00  0.00    +0.000 A 
ATOM     16  C   UNL     1       1.899   5.559  20.299  0.00  0.00    +0.000 A 
ATOM     17  C   UNL     1       2.425   4.293  20.559  0.00  0.00    +0.000 A 
ATOM     18 CL   UNL     1       1.540   3.187  21.534  0.00  0.00    +0.000 Cl
ATOM     19  C   UNL     1       3.652   3.910  20.022  0.00  0.00    +0.000 A 
ATOM     20  C   UNL     1       4.348   4.801  19.208  0.00  0.00    +0.000 A 
ATOM     21 CL   UNL     1       5.888   4.363  18.584  0.00  0.00    +0.000 Cl
ATOM     22  C   UNL     1       3.816   6.055  18.897  0.00  0.00    +0.000 A 
ENDBRANCH  10  15
TORSDOF 1
ENDMDL
MODEL 5
REMARK VINA RESULT:      -7.4      5.428      7.494
REMARK  Name = 
REMARK  2 active torsions:
REMARK  status: ('A' for Active; 'I' for Inactive)
REMARK    1  A    between atoms: C_1  and  N_2
REMARK    2  A    between atoms: N_10  and  C_11
REMARK                            x       y       z     vdW  Elec       q    Type
REMARK                         _______ _______ _______ _____ _____    ______ ____
ROOT
ATOM      1  C   UNL     1       2.627   2.878  20.348  0.00  0.00    +0.000 C 
ATOM      2  N   UNL     1       3.266   3.455  19.178  0.00  0.00    +0.000 N 
ATOM      3  C   UNL     1       3.768   2.586  18.224  0.00  0.00    +0.000 A 
ATOM      4  O   UNL     1       3.748   1.369  18.235  0.00  0.00    +0.000 OA
ATOM      5  N   UNL     1       4.403   3.174  17.093  0.00  0.00    +0.000 N 
ATOM      6  C   UNL     1       4.522   4.540  16.976  0.00  0.00    +0.000 A 
ATOM      7  C   UNL     1       4.043   5.364  17.957  0.00  0.00    +0.000 A 
ATOM      8  C   UNL     1       4.418   6.654  17.544  0.00  0.00    +0.000 A 
ATOM      9  N   UNL     1       5.153   6.635  16.429  0.00  0.00    +0.000 NA
ATOM     10  N   UNL     1       5.160   5.333  16.040  0.00  0.00    +0.000 N 
ATOM     11  C   UNL     1       3.372   4.836  19.101  0.00  0.00    +0.000 A 
ATOM     12  N   UNL     1       2.904   5.593  20.027  0.00  0.00    +0.000 NA
ATOM     13  H   UNL     1       4.808   2.531  16.425  0.00  0.00    +0.000 HD
ATOM     14  H   UNL     1       3.060   6.591  19.850  0.00  0.00    +0.000 HD
ENDROOT
BRANCH  10  15
ATOM     15  C   UNL     1       5.800   4.939  14.843  0.00  0.00    +0.000 A 
ATOM     16  C   UNL     1       7.015   5.543  14.489  0.00  0.00    +0.000 A 
ATOM     17  C   UNL     1       7.678   5.135  13.330  0.00  0.00    +0.000 A 
ATOM     18 CL   UNL     1       9.213   5.808  12.945  0.00  0.00    +0.000 Cl
ATOM     19  C   UNL     1       7.116   4.174  12.493  0.00  0.00    +0.000 A 
ATOM     20  C   UNL     1       5.888   3.611  12.829  0.00  0.00    +0.000 A 
ATOM     21 CL   UNL     1       5.157   2.465  11.777  0.00  0.00    +0.000 Cl
ATOM     22  C   UNL     1       5.230   3.972  14.008  0.00  0.00    +0.000 A 
ENDBRANCH  10  15
TORSDOF 1
ENDMDL
MODEL 6
REMARK VINA RESULT:      -7.3      5.417      7.467
REMARK  Name = 
REMARK  2 active torsions:
REMARK  status: ('A' for Active; 'I' for Inactive)
REMARK    1  A    between atoms: C_1  and  N_2
REMARK    2  A    between atoms: N_10  and  C_11
REMARK                            x       y       z     vdW  Elec       q    Type
REMARK                         _______ _______ _______ _____ _____    ______ ____
ROOT
ATOM      1  C   UNL     1       2.613   2.794  20.324  0.00  0.00    +0.000 C 
ATOM      2  N   UNL     1       3.253   3.391  19.164  0.00  0.00    +0.000 N 
ATOM      3  C   UNL     1       3.795   2.537  18.218  0.00  0.00    +0.000 A 
ATOM      4  O   UNL     1       3.810   1.321  18.227  0.00  0.00    +0.000 OA
ATOM      5  N   UNL     1       4.429   3.145  17.096  0.00  0.00    +0.000 N 
ATOM      6  C   UNL     1       4.510   4.513  16.982  0.00  0.00    +0.000 A 
ATOM      7  C   UNL     1       3.991   5.323  17.956  0.00  0.00    +0.000 A 
ATOM      8  C   UNL     1       4.335   6.623  17.549  0.00  0.00    +0.000 A 
ATOM      9  N   UNL     1       5.086   6.627  16.445  0.00  0.00    +0.000 NA
ATOM     10  N   UNL     1       5.138   5.326  16.057  0.00  0.00    +0.000 N 
ATOM     11  C   UNL     1       3.318   4.774  19.089  0.00  0.00    +0.000 A 
ATOM     12  N   UNL     1       2.814   5.516  20.008  0.00  0.00    +0.000 NA
ATOM     13  H   UNL     1       4.864   2.515  16.434  0.00  0.00    +0.000 HD
ATOM     14  H   UNL     1       2.943   6.518  19.834  0.00  0.00    +0.000 HD
ENDROOT
BRANCH  10  15
ATOM     15  C   UNL     1       5.808   4.952  14.869  0.00  0.00    +0.000 A 
ATOM     16  C   UNL     1       5.231   3.981  14.038  0.00  0.00    +0.000 A 
ATOM     17  C   UNL     1       5.861   3.634  12.842  0.00  0.00    +0.000 A 
ATOM     18 CL   UNL     1       5.107   2.513  11.777  0.00  0.00    +0.000 Cl
ATOM     19  C   UNL     1       7.085   4.199  12.493  0.00  0.00    +0.000 A 
ATOM     20  C   UNL     1       7.673   5.130  13.346  0.00  0.00    +0.000 A 
ATOM     21 CL   UNL     1       9.210   5.794  12.956  0.00  0.00    +0.000 Cl
ATOM     22  C   UNL     1       7.037   5.527  14.526  0.00  0.00    +0.000 A 
ENDBRANCH  10  15
TORSDOF 1
ENDMDL
MODEL 7
REMARK VINA RESULT:      -7.2      2.130      3.559
REMARK  Name = 
REMARK  2 active torsions:
REMARK  status: ('A' for Active; 'I' for Inactive)
REMARK    1  A    between atoms: C_1  and  N_2
REMARK    2  A    between atoms: N_10  and  C_11
REMARK                            x       y       z     vdW  Elec       q    Type
REMARK                         _______ _______ _______ _____ _____    ______ ____
ROOT
ATOM      1  C   UNL     1       5.832   4.077  15.887  0.00  0.00    +0.000 C 
ATOM      2  N   UNL     1       4.906   4.718  16.805  0.00  0.00    +0.000 N 
ATOM      3  C   UNL     1       4.730   6.087  16.690  0.00  0.00    +0.000 A 
ATOM      4  O   UNL     1       5.263   6.848  15.904  0.00  0.00    +0.000 OA
ATOM      5  N   UNL     1       3.828   6.696  17.609  0.00  0.00    +0.000 N 
ATOM      6  C   UNL     1       3.186   5.951  18.572  0.00  0.00    +0.000 A 
ATOM      7  C   UNL     1       3.412   4.606  18.674  0.00  0.00    +0.000 A 
ATOM      8  C   UNL     1       2.671   4.211  19.801  0.00  0.00    +0.000 A 
ATOM      9  N   UNL     1       2.089   5.247  20.412  0.00  0.00    +0.000 NA
ATOM     10  N   UNL     1       2.352   6.314  19.613  0.00  0.00    +0.000 N 
ATOM     11  C   UNL     1       4.283   3.934  17.764  0.00  0.00    +0.000 A 
ATOM     12  N   UNL     1       4.499   2.670  17.835  0.00  0.00    +0.000 NA
ATOM     13  H   UNL     1       3.742   7.702  17.549  0.00  0.00    +0.000 HD
ATOM     14  H   UNL     1       3.985   2.215  18.596  0.00  0.00    +0.000 HD
ENDROOT
BRANCH  10  15
ATOM     15  C   UNL     1       1.829   7.591  19.919  0.00  0.00    +0.000 A 
ATOM     16  C   UNL     1       1.313   7.828  21.201  0.00  0.00    +0.000 A 
ATOM     17  C   UNL     1       0.831   9.096  21.528  0.00  0.00    +0.000 A 
ATOM     18 CL   UNL     1       0.285   9.413  23.128  0.00  0.00    +0.000 Cl
ATOM     19  C   UNL     1       0.806  10.113  20.577  0.00  0.00    +0.000 A 
ATOM     20  C   UNL     1       1.280   9.857  19.292  0.00  0.00    +0.000 A 
ATOM     21 CL   UNL     1       1.203  11.086  18.093  0.00  0.00    +0.000 Cl
ATOM     22  C   UNL     1       1.809   8.608  18.958  0.00  0.00    +0.000 A 
ENDBRANCH  10  15
TORSDOF 1
ENDMDL
MODEL 8
REMARK VINA RESULT:      -7.1      5.991      8.092
REMARK  Name = 
REMARK  2 active torsions:
REMARK  status: ('A' for Active; 'I' for Inactive)
REMARK    1  A    between atoms: C_1  and  N_2
REMARK    2  A    between atoms: N_10  and  C_11
REMARK                            x       y       z     vdW  Elec       q    Type
REMARK                         _______ _______ _______ _____ _____    ______ ____
ROOT
ATOM      1  C   UNL     1       2.786   3.563  19.708  0.00  0.00    +0.000 C 
ATOM      2  N   UNL     1       3.741   3.805  18.641  0.00  0.00    +0.000 N 
ATOM      3  C   UNL     1       3.316   3.604  17.338  0.00  0.00    +0.000 A 
ATOM      4  O   UNL     1       2.220   3.240  16.956  0.00  0.00    +0.000 OA
ATOM      5  N   UNL     1       4.274   3.834  16.309  0.00  0.00    +0.000 N 
ATOM      6  C   UNL     1       5.561   4.217  16.610  0.00  0.00    +0.000 A 
ATOM      7  C   UNL     1       5.952   4.373  17.912  0.00  0.00    +0.000 A 
ATOM      8  C   UNL     1       7.322   4.672  17.832  0.00  0.00    +0.000 A 
ATOM      9  N   UNL     1       7.779   4.625  16.577  0.00  0.00    +0.000 NA
ATOM     10  N   UNL     1       6.675   4.410  15.815  0.00  0.00    +0.000 N 
ATOM     11  C   UNL     1       5.030   4.184  18.986  0.00  0.00    +0.000 A 
ATOM     12  N   UNL     1       5.373   4.337  20.214  0.00  0.00    +0.000 NA
ATOM     13  H   UNL     1       3.969   3.639  15.364  0.00  0.00    +0.000 HD
ATOM     14  H   UNL     1       6.356   4.607  20.328  0.00  0.00    +0.000 HD
ENDROOT
BRANCH  10  15
ATOM     15  C   UNL     1       6.768   4.365  14.405  0.00  0.00    +0.000 A 
ATOM     16  C   UNL     1       7.467   5.380  13.735  0.00  0.00    +0.000 A 
ATOM     17  C   UNL     1       7.602   5.326  12.347  0.00  0.00    +0.000 A 
ATOM     18 CL   UNL     1       8.538   6.519  11.536  0.00  0.00    +0.000 Cl
ATOM     19  C   UNL     1       7.001   4.305  11.615  0.00  0.00    +0.000 A 
ATOM     20  C   UNL     1       6.271   3.326  12.284  0.00  0.00    +0.000 A 
ATOM     21 CL   UNL     1       5.478   2.091  11.388  0.00  0.00    +0.000 Cl
ATOM     22  C   UNL     1       6.163   3.335  13.677  0.00  0.00    +0.000 A 
ENDBRANCH  10  15
TORSDOF 1
ENDMDL
MODEL 9
REMARK VINA RESULT:      -7.1      2.119      2.963
REMARK  Name = 
REMARK  2 active torsions:
REMARK  status: ('A' for Active; 'I' for Inactive)
REMARK    1  A    between atoms: C_1  and  N_2
REMARK    2  A    between atoms: N_10  and  C_11
REMARK                            x       y       z     vdW  Elec       q    Type
REMARK                         _______ _______ _______ _____ _____    ______ ____
ROOT
ATOM      1  C   UNL     1       5.919   4.199  15.948  0.00  0.00    +0.000 C 
ATOM      2  N   UNL     1       4.972   4.809  16.864  0.00  0.00    +0.000 N 
ATOM      3  C   UNL     1       4.809   6.183  16.801  0.00  0.00    +0.000 A 
ATOM      4  O   UNL     1       5.371   6.971  16.063  0.00  0.00    +0.000 OA
ATOM      5  N   UNL     1       3.886   6.762  17.718  0.00  0.00    +0.000 N 
ATOM      6  C   UNL     1       3.210   5.984  18.630  0.00  0.00    +0.000 A 
ATOM      7  C   UNL     1       3.423   4.634  18.683  0.00  0.00    +0.000 A 
ATOM      8  C   UNL     1       2.646   4.200  19.771  0.00  0.00    +0.000 A 
ATOM      9  N   UNL     1       2.054   5.214  20.407  0.00  0.00    +0.000 NA
ATOM     10  N   UNL     1       2.349   6.311  19.661  0.00  0.00    +0.000 N 
ATOM     11  C   UNL     1       4.315   3.992  17.772  0.00  0.00    +0.000 A 
ATOM     12  N   UNL     1       4.519   2.725  17.797  0.00  0.00    +0.000 NA
ATOM     13  H   UNL     1       3.809   7.771  17.697  0.00  0.00    +0.000 HD
ATOM     14  H   UNL     1       3.980   2.243  18.523  0.00  0.00    +0.000 HD
ENDROOT
BRANCH  10  15
ATOM     15  C   UNL     1       1.827   7.580  20.003  0.00  0.00    +0.000 A 
ATOM     16  C   UNL     1       1.827   8.599  19.040  0.00  0.00    +0.000 A 
ATOM     17  C   UNL     1       1.277   9.843  19.352  0.00  0.00    +0.000 A 
ATOM     18 CL   UNL     1       1.191  11.063  18.143  0.00  0.00    +0.000 Cl
ATOM     19  C   UNL     1       0.781  10.101  20.628  0.00  0.00    +0.000 A 
ATOM     20  C   UNL     1       0.825   9.097  21.592  0.00  0.00    +0.000 A 
ATOM     21 CL   UNL     1       0.268   9.418  23.186  0.00  0.00    +0.000 Cl
ATOM     22  C   UNL     1       1.329   7.829  21.287  0.00  0.00    +0.000 A 
ENDBRANCH  10  15
TORSDOF 1
ENDMDL
