MODEL 1
REMARK VINA RESULT:      -7.6      0.000      0.000
REMARK  Name = 
REMARK  5 active torsions:
REMARK  status: ('A' for Active; 'I' for Inactive)
REMARK    1  A    between atoms: C_2  and  C_4
REMARK    2  A    between atoms: C_4  and  O_5
REMARK    3  A    between atoms: O_5  and  C_6
REMARK    4  A    between atoms: C_10  and  C_11
REMARK    5  A    between atoms: N_13  and  C_14
REMARK                            x       y       z     vdW  Elec       q    Type
REMARK                         _______ _______ _______ _____ _____    ______ ____
ROOT
ATOM      1  C   UNL     1       4.727   6.137  16.969  0.00  0.00    +0.000 A 
ATOM      2  C   UNL     1       4.153   4.862  17.015  0.00  0.00    +0.000 A 
ATOM      3  C   UNL     1       2.940   4.649  17.666  0.00  0.00    +0.000 A 
ATOM      4  C   UNL     1       2.283   5.720  18.263  0.00  0.00    +0.000 A 
ATOM      5  C   UNL     1       2.839   7.005  18.204  0.00  0.00    +0.000 A 
ATOM      6  C   UNL     1       4.068   7.219  17.560  0.00  0.00    +0.000 A 
ENDROOT
BRANCH   5   7
ATOM      7  C   UNL     1       2.078   8.101  18.844  0.00  0.00    +0.000 C 
ATOM      8  O   UNL     1       1.796   8.060  20.031  0.00  0.00    +0.000 OA
ATOM      9  N   UNL     1       1.592   9.156  17.997  0.00  0.00    +0.000 N 
ATOM     10  H   UNL     1       1.718   9.095  16.997  0.00  0.00    +0.000 HD
BRANCH   9  11
ATOM     11  C   UNL     1       0.800  10.184  18.499  0.00  0.00    +0.000 A 
ATOM     12  C   UNL     1       1.120  11.169  19.413  0.00  0.00    +0.000 A 
ATOM     13  N   UNL     1       0.041  11.975  19.676  0.00  0.00    +0.000 NA
ATOM     14  C   UNL     1      -0.945  11.488  18.956  0.00  0.00    +0.000 A 
ATOM     15  N   UNL     1      -0.515  10.427  18.194  0.00  0.00    +0.000 N 
ATOM     16  C   UNL     1      -1.378   9.662  17.318  0.00  0.00    +0.000 C 
ATOM     17  C   UNL     1      -2.859   9.860  17.640  0.00  0.00    +0.000 C 
ATOM     18  C   UNL     1      -3.170  11.346  17.826  0.00  0.00    +0.000 C 
ATOM     19  C   UNL     1      -2.373  11.918  18.998  0.00  0.00    +0.000 C 
ENDBRANCH   9  11
ENDBRANCH   5   7
BRANCH   1  20
ATOM     20  O   UNL     1       5.893   6.208  16.259  0.00  0.00    +0.000 OA
BRANCH  20  21
ATOM     21  C   UNL     1       6.638   5.001  16.114  0.00  0.00    +0.000 C 
BRANCH  21  23
ATOM     22  N   UNL     1       6.371   3.709  14.043  0.00  0.00    +0.000 N 
ATOM     23  C   UNL     1       6.982   4.769  14.645  0.00  0.00    +0.000 C 
ATOM     24  O   UNL     1       7.796   5.460  14.037  0.00  0.00    +0.000 OA
ATOM     25  H   UNL     1       6.529   3.576  13.049  0.00  0.00    +0.000 HD
ATOM     26  H   UNL     1       5.574   3.258  14.471  0.00  0.00    +0.000 HD
ENDBRANCH  21  23
ENDBRANCH  20  21
ENDBRANCH   1  20
TORSDOF 5
ENDMDL
MODEL 2
REMARK VINA RESULT:      -7.5      2.187      2.526
REMARK  Name = 
REMARK  5 active torsions:
REMARK  status: ('A' for Active; 'I' for Inactive)
REMARK    1  A    between atoms: C_2  and  C_4
REMARK    2  A    between atoms: C_4  and  O_5
REMARK    3  A    between atoms: O_5  and  C_6
REMARK    4  A    between atoms: C_10  and  C_11
REMARK    5  A    between atoms: N_13  and  C_14
REMARK                            x       y       z     vdW  Elec       q    Type
REMARK                         _______ _______ _______ _____ _____    ______ ____
ROOT
ATOM      1  C   UNL     1       5.112   4.504  18.321  0.00  0.00    +0.000 A 
ATOM      2  C   UNL     1       4.424   3.703  17.403  0.00  0.00    +0.000 A 
ATOM      3  C   UNL     1       3.032   3.730  17.336  0.00  0.00    +0.000 A 
ATOM      4  C   UNL     1       2.320   4.578  18.178  0.00  0.00    +0.000 A 
ATOM      5  C   UNL     1       3.002   5.400  19.085  0.00  0.00    +0.000 A 
ATOM      6  C   UNL     1       4.403   5.363  19.165  0.00  0.00    +0.000 A 
ENDROOT
BRANCH   5   7
ATOM      7  C   UNL     1       2.183   6.291  19.938  0.00  0.00    +0.000 C 
ATOM      8  O   UNL     1       1.429   5.832  20.781  0.00  0.00    +0.000 OA
ATOM      9  N   UNL     1       2.228   7.700  19.664  0.00  0.00    +0.000 N 
ATOM     10  H   UNL     1       2.753   8.041  18.871  0.00  0.00    +0.000 HD
BRANCH   9  11
ATOM     11  C   UNL     1       1.432   8.602  20.363  0.00  0.00    +0.000 A 
ATOM     12  C   UNL     1       1.246   8.734  21.725  0.00  0.00    +0.000 A 
ATOM     13  N   UNL     1       0.342   9.727  22.011  0.00  0.00    +0.000 NA
ATOM     14  C   UNL     1      -0.047  10.194  20.845  0.00  0.00    +0.000 A 
ATOM     15  N   UNL     1       0.622   9.567  19.821  0.00  0.00    +0.000 N 
ATOM     16  C   UNL     1       0.388   9.844  18.418  0.00  0.00    +0.000 C 
ATOM     17  C   UNL     1      -0.941  10.560  18.179  0.00  0.00    +0.000 C 
ATOM     18  C   UNL     1      -1.112  11.713  19.170  0.00  0.00    +0.000 C 
ATOM     19  C   UNL     1      -1.135  11.186  20.604  0.00  0.00    +0.000 C 
ENDBRANCH   9  11
ENDBRANCH   5   7
BRANCH   1  20
ATOM     20  O   UNL     1       6.474   4.408  18.245  0.00  0.00    +0.000 OA
BRANCH  20  21
ATOM     21  C   UNL     1       7.221   5.604  18.461  0.00  0.00    +0.000 C 
BRANCH  21  23
ATOM     22  N   UNL     1       7.341   7.743  17.260  0.00  0.00    +0.000 N 
ATOM     23  C   UNL     1       7.353   6.383  17.155  0.00  0.00    +0.000 C 
ATOM     24  O   UNL     1       7.421   5.834  16.058  0.00  0.00    +0.000 OA
ATOM     25  H   UNL     1       7.498   8.283  16.415  0.00  0.00    +0.000 HD
ATOM     26  H   UNL     1       7.473   8.195  18.155  0.00  0.00    +0.000 HD
ENDBRANCH  21  23
ENDBRANCH  20  21
ENDBRANCH   1  20
TORSDOF 5
ENDMDL
MODEL 3
REMARK VINA RESULT:      -7.5      1.943      2.464
REMARK  Name = 
REMARK  5 active torsions:
REMARK  status: ('A' for Active; 'I' for Inactive)
REMARK    1  A    between atoms: C_2  and  C_4
REMARK    2  A    between atoms: C_4  and  O_5
REMARK    3  A    between atoms: O_5  and  C_6
REMARK    4  A    between atoms: C_10  and  C_11
REMARK    5  A    between atoms: N_13  and  C_14
REMARK                            x       y       z     vdW  Elec       q    Type
REMARK                         _______ _______ _______ _____ _____    ______ ____
ROOT
ATOM      1  C   UNL     1       4.873   5.723  17.170  0.00  0.00    +0.000 A 
ATOM      2  C   UNL     1       4.151   4.538  17.349  0.00  0.00    +0.000 A 
ATOM      3  C   UNL     1       2.831   4.568  17.794  0.00  0.00    +0.000 A 
ATOM      4  C   UNL     1       2.218   5.791  18.045  0.00  0.00    +0.000 A 
ATOM      5  C   UNL     1       2.926   6.984  17.849  0.00  0.00    +0.000 A 
ATOM      6  C   UNL     1       4.260   6.956  17.415  0.00  0.00    +0.000 A 
ENDROOT
BRANCH   5   7
ATOM      7  C   UNL     1       2.207   8.249  18.119  0.00  0.00    +0.000 C 
ATOM      8  O   UNL     1       2.103   9.108  17.257  0.00  0.00    +0.000 OA
ATOM      9  N   UNL     1       1.735   8.474  19.457  0.00  0.00    +0.000 N 
ATOM     10  H   UNL     1       1.956   7.810  20.185  0.00  0.00    +0.000 HD
BRANCH   9  11
ATOM     11  C   UNL     1       1.120   9.668  19.820  0.00  0.00    +0.000 A 
ATOM     12  C   UNL     1       1.113  10.884  19.165  0.00  0.00    +0.000 A 
ATOM     13  N   UNL     1       0.418  11.830  19.877  0.00  0.00    +0.000 NA
ATOM     14  C   UNL     1       0.016  11.221  20.970  0.00  0.00    +0.000 A 
ATOM     15  N   UNL     1       0.384   9.896  20.955  0.00  0.00    +0.000 N 
ATOM     16  C   UNL     1       0.109   8.971  22.035  0.00  0.00    +0.000 C 
ATOM     17  C   UNL     1      -0.231   9.686  23.342  0.00  0.00    +0.000 C 
ATOM     18  C   UNL     1      -1.242  10.806  23.091  0.00  0.00    +0.000 C 
ATOM     19  C   UNL     1      -0.656  11.853  22.143  0.00  0.00    +0.000 C 
ENDBRANCH   9  11
ENDBRANCH   5   7
BRANCH   1  20
ATOM     20  O   UNL     1       6.140   5.547  16.688  0.00  0.00    +0.000 OA
BRANCH  20  21
ATOM     21  C   UNL     1       6.438   4.285  16.094  0.00  0.00    +0.000 C 
BRANCH  21  23
ATOM     22  N   UNL     1       6.335   3.561  13.750  0.00  0.00    +0.000 N 
ATOM     23  C   UNL     1       6.834   4.474  14.632  0.00  0.00    +0.000 C 
ATOM     24  O   UNL     1       7.595   5.363  14.260  0.00  0.00    +0.000 OA
ATOM     25  H   UNL     1       6.526   3.705  12.763  0.00  0.00    +0.000 HD
ATOM     26  H   UNL     1       5.572   2.950  14.011  0.00  0.00    +0.000 HD
ENDBRANCH  21  23
ENDBRANCH  20  21
ENDBRANCH   1  20
TORSDOF 5
ENDMDL
MODEL 4
REMARK VINA RESULT:      -7.5      2.468      2.973
REMARK  Name = 
REMARK  5 active torsions:
REMARK  status: ('A' for Active; 'I' for Inactive)
REMARK    1  A    between atoms: C_2  and  C_4
REMARK    2  A    between atoms: C_4  and  O_5
REMARK    3  A    between atoms: O_5  and  C_6
REMARK    4  A    between atoms: C_10  and  C_11
REMARK    5  A    between atoms: N_13  and  C_14
REMARK                            x       y       z     vdW  Elec       q    Type
REMARK                         _______ _______ _______ _____ _____    ______ ____
ROOT
ATOM      1  C   UNL     1       4.834   5.875  17.016  0.00  0.00    +0.000 A 
ATOM      2  C   UNL     1       4.149   4.682  17.270  0.00  0.00    +0.000 A 
ATOM      3  C   UNL     1       2.861   4.698  17.802  0.00  0.00    +0.000 A 
ATOM      4  C   UNL     1       2.242   5.916  18.066  0.00  0.00    +0.000 A 
ATOM      5  C   UNL     1       2.912   7.116  17.795  0.00  0.00    +0.000 A 
ATOM      6  C   UNL     1       4.215   7.102  17.273  0.00  0.00    +0.000 A 
ENDROOT
BRANCH   5   7
ATOM      7  C   UNL     1       2.188   8.375  18.083  0.00  0.00    +0.000 C 
ATOM      8  O   UNL     1       2.223   9.311  17.301  0.00  0.00    +0.000 OA
ATOM      9  N   UNL     1       1.540   8.491  19.359  0.00  0.00    +0.000 N 
ATOM     10  H   UNL     1       1.644   7.757  20.045  0.00  0.00    +0.000 HD
BRANCH   9  11
ATOM     11  C   UNL     1       0.904   9.667  19.747  0.00  0.00    +0.000 A 
ATOM     12  C   UNL     1       0.796  10.867  19.073  0.00  0.00    +0.000 A 
ATOM     13  N   UNL     1       0.118  11.799  19.819  0.00  0.00    +0.000 NA
ATOM     14  C   UNL     1      -0.174  11.198  20.951  0.00  0.00    +0.000 A 
ATOM     15  N   UNL     1       0.248   9.889  20.931  0.00  0.00    +0.000 N 
ATOM     16  C   UNL     1       0.096   8.977  22.046  0.00  0.00    +0.000 C 
ATOM     17  C   UNL     1      -0.174   9.705  23.362  0.00  0.00    +0.000 C 
ATOM     18  C   UNL     1      -1.247  10.777  23.169  0.00  0.00    +0.000 C 
ATOM     19  C   UNL     1      -0.780  11.827  22.161  0.00  0.00    +0.000 C 
ENDBRANCH   9  11
ENDBRANCH   5   7
BRANCH   1  20
ATOM     20  O   UNL     1       6.069   5.710  16.454  0.00  0.00    +0.000 OA
BRANCH  20  21
ATOM     21  C   UNL     1       7.189   6.183  17.198  0.00  0.00    +0.000 C 
BRANCH  21  23
ATOM     22  N   UNL     1       7.468   5.309  19.476  0.00  0.00    +0.000 N 
ATOM     23  C   UNL     1       7.688   5.097  18.146  0.00  0.00    +0.000 C 
ATOM     24  O   UNL     1       8.295   4.102  17.756  0.00  0.00    +0.000 OA
ATOM     25  H   UNL     1       7.727   4.570  20.121  0.00  0.00    +0.000 HD
ATOM     26  H   UNL     1       6.816   6.017  19.787  0.00  0.00    +0.000 HD
ENDBRANCH  21  23
ENDBRANCH  20  21
ENDBRANCH   1  20
TORSDOF 5
ENDMDL
MODEL 5
REMARK VINA RESULT:      -7.5      3.305      4.533
REMARK  Name = 
REMARK  5 active torsions:
REMARK  status: ('A' for Active; 'I' for Inactive)
REMARK    1  A    between atoms: C_2  and  C_4
REMARK    2  A    between atoms: C_4  and  O_5
REMARK    3  A    between atoms: O_5  and  C_6
REMARK    4  A    between atoms: C_10  and  C_11
REMARK    5  A    between atoms: N_13  and  C_14
REMARK                            x       y       z     vdW  Elec       q    Type
REMARK                         _______ _______ _______ _____ _____    ______ ____
ROOT
ATOM      1  C   UNL     1       3.011   4.531  18.299  0.00  0.00    +0.000 A 
ATOM      2  C   UNL     1       4.192   4.532  17.549  0.00  0.00    +0.000 A 
ATOM      3  C   UNL     1       4.700   5.716  17.020  0.00  0.00    +0.000 A 
ATOM      4  C   UNL     1       4.035   6.915  17.256  0.00  0.00    +0.000 A 
ATOM      5  C   UNL     1       2.863   6.928  18.024  0.00  0.00    +0.000 A 
ATOM      6  C   UNL     1       2.341   5.733  18.545  0.00  0.00    +0.000 A 
ENDROOT
BRANCH   5   7
ATOM      7  C   UNL     1       2.216   8.240  18.250  0.00  0.00    +0.000 C 
ATOM      8  O   UNL     1       2.298   9.131  17.420  0.00  0.00    +0.000 OA
ATOM      9  N   UNL     1       1.587   8.461  19.523  0.00  0.00    +0.000 N 
ATOM     10  H   UNL     1       1.654   7.758  20.245  0.00  0.00    +0.000 HD
BRANCH   9  11
ATOM     11  C   UNL     1       1.025   9.690  19.852  0.00  0.00    +0.000 A 
ATOM     12  C   UNL     1       1.090  10.892  19.175  0.00  0.00    +0.000 A 
ATOM     13  N   UNL     1       0.430  11.884  19.856  0.00  0.00    +0.000 NA
ATOM     14  C   UNL     1      -0.022  11.317  20.953  0.00  0.00    +0.000 A 
ATOM     15  N   UNL     1       0.281   9.976  20.968  0.00  0.00    +0.000 N 
ATOM     16  C   UNL     1      -0.058   9.086  22.060  0.00  0.00    +0.000 C 
ATOM     17  C   UNL     1      -0.386   9.842  23.347  0.00  0.00    +0.000 C 
ATOM     18  C   UNL     1      -1.336  11.005  23.056  0.00  0.00    +0.000 C 
ATOM     19  C   UNL     1      -0.683  12.003  22.101  0.00  0.00    +0.000 C 
ENDBRANCH   9  11
ENDBRANCH   5   7
BRANCH   1  20
ATOM     20  O   UNL     1       2.655   3.308  18.793  0.00  0.00    +0.000 OA
BRANCH  20  21
ATOM     21  C   UNL     1       2.998   3.030  20.149  0.00  0.00    +0.000 C 
BRANCH  21  23
ATOM     22  N   UNL     1       0.552   3.107  20.348  0.00  0.00    +0.000 N 
ATOM     23  C   UNL     1       1.736   2.917  20.999  0.00  0.00    +0.000 C 
ATOM     24  O   UNL     1       1.766   2.713  22.210  0.00  0.00    +0.000 OA
ATOM     25  H   UNL     1      -0.304   2.968  20.875  0.00  0.00    +0.000 HD
ATOM     26  H   UNL     1       0.507   3.088  19.338  0.00  0.00    +0.000 HD
ENDBRANCH  21  23
ENDBRANCH  20  21
ENDBRANCH   1  20
TORSDOF 5
ENDMDL
MODEL 6
REMARK VINA RESULT:      -7.5      3.211      8.261
REMARK  Name = 
REMARK  5 active torsions:
REMARK  status: ('A' for Active; 'I' for Inactive)
REMARK    1  A    between atoms: C_2  and  C_4
REMARK    2  A    between atoms: C_4  and  O_5
REMARK    3  A    between atoms: O_5  and  C_6
REMARK    4  A    between atoms: C_10  and  C_11
REMARK    5  A    between atoms: N_13  and  C_14
REMARK                            x       y       z     vdW  Elec       q    Type
REMARK                         _______ _______ _______ _____ _____    ______ ____
ROOT
ATOM      1  C   UNL     1      -0.256  10.884  20.774  0.00  0.00    +0.000 A 
ATOM      2  C   UNL     1      -0.395  10.673  22.150  0.00  0.00    +0.000 A 
ATOM      3  C   UNL     1       0.167   9.554  22.761  0.00  0.00    +0.000 A 
ATOM      4  C   UNL     1       0.890   8.645  21.996  0.00  0.00    +0.000 A 
ATOM      5  C   UNL     1       1.053   8.858  20.621  0.00  0.00    +0.000 A 
ATOM      6  C   UNL     1       0.476   9.978  20.001  0.00  0.00    +0.000 A 
ENDROOT
BRANCH   5   7
ATOM      7  C   UNL     1       1.849   7.861  19.871  0.00  0.00    +0.000 C 
ATOM      8  O   UNL     1       2.084   8.011  18.682  0.00  0.00    +0.000 OA
ATOM      9  N   UNL     1       2.239   6.664  20.564  0.00  0.00    +0.000 N 
ATOM     10  H   UNL     1       1.913   6.500  21.506  0.00  0.00    +0.000 HD
BRANCH   9  11
ATOM     11  C   UNL     1       2.919   5.638  19.916  0.00  0.00    +0.000 A 
ATOM     12  C   UNL     1       4.207   5.619  19.417  0.00  0.00    +0.000 A 
ATOM     13  N   UNL     1       4.489   4.421  18.809  0.00  0.00    +0.000 NA
ATOM     14  C   UNL     1       3.388   3.709  18.907  0.00  0.00    +0.000 A 
ATOM     15  N   UNL     1       2.425   4.395  19.609  0.00  0.00    +0.000 N 
ATOM     16  C   UNL     1       1.092   3.884  19.857  0.00  0.00    +0.000 C 
ATOM     17  C   UNL     1       0.725   2.735  18.920  0.00  0.00    +0.000 C 
ATOM     18  C   UNL     1       1.870   1.724  18.840  0.00  0.00    +0.000 C 
ATOM     19  C   UNL     1       3.127   2.384  18.274  0.00  0.00    +0.000 C 
ENDBRANCH   9  11
ENDBRANCH   5   7
BRANCH   1  20
ATOM     20  O   UNL     1      -0.818  12.044  20.320  0.00  0.00    +0.000 OA
BRANCH  20  21
ATOM     21  C   UNL     1      -2.047  11.932  19.605  0.00  0.00    +0.000 C 
BRANCH  21  23
ATOM     22  N   UNL     1      -0.977  12.894  17.615  0.00  0.00    +0.000 N 
ATOM     23  C   UNL     1      -1.781  11.905  18.102  0.00  0.00    +0.000 C 
ATOM     24  O   UNL     1      -2.289  11.076  17.352  0.00  0.00    +0.000 OA
ATOM     25  H   UNL     1      -0.728  12.858  16.631  0.00  0.00    +0.000 HD
ATOM     26  H   UNL     1      -0.413  13.457  18.237  0.00  0.00    +0.000 HD
ENDBRANCH  21  23
ENDBRANCH  20  21
ENDBRANCH   1  20
TORSDOF 5
ENDMDL
MODEL 7
REMARK VINA RESULT:      -7.5      2.886      3.318
REMARK  Name = 
REMARK  5 active torsions:
REMARK  status: ('A' for Active; 'I' for Inactive)
REMARK    1  A    between atoms: C_2  and  C_4
REMARK    2  A    between atoms: C_4  and  O_5
REMARK    3  A    between atoms: O_5  and  C_6
REMARK    4  A    between atoms: C_10  and  C_11
REMARK    5  A    between atoms: N_13  and  C_14
REMARK                            x       y       z     vdW  Elec       q    Type
REMARK                         _______ _______ _______ _____ _____    ______ ____
ROOT
ATOM      1  C   UNL     1       4.776   4.649  18.594  0.00  0.00    +0.000 A 
ATOM      2  C   UNL     1       3.975   3.624  18.080  0.00  0.00    +0.000 A 
ATOM      3  C   UNL     1       2.655   3.867  17.708  0.00  0.00    +0.000 A 
ATOM      4  C   UNL     1       2.133   5.151  17.832  0.00  0.00    +0.000 A 
ATOM      5  C   UNL     1       2.933   6.190  18.325  0.00  0.00    +0.000 A 
ATOM      6  C   UNL     1       4.259   5.943  18.714  0.00  0.00    +0.000 A 
ENDROOT
BRANCH   5   7
ATOM      7  C   UNL     1       2.319   7.533  18.414  0.00  0.00    +0.000 C 
ATOM      8  O   UNL     1       2.365   8.307  17.471  0.00  0.00    +0.000 OA
ATOM      9  N   UNL     1       1.768   7.930  19.680  0.00  0.00    +0.000 N 
ATOM     10  H   UNL     1       1.867   7.326  20.483  0.00  0.00    +0.000 HD
BRANCH   9  11
ATOM     11  C   UNL     1       1.242   9.204  19.877  0.00  0.00    +0.000 A 
ATOM     12  C   UNL     1       1.359  10.331  19.087  0.00  0.00    +0.000 A 
ATOM     13  N   UNL     1       0.722  11.406  19.656  0.00  0.00    +0.000 NA
ATOM     14  C   UNL     1       0.233  10.963  20.792  0.00  0.00    +0.000 A 
ATOM     15  N   UNL     1       0.490   9.621  20.945  0.00  0.00    +0.000 N 
ATOM     16  C   UNL     1       0.102   8.854  22.111  0.00  0.00    +0.000 C 
ATOM     17  C   UNL     1      -0.222   9.742  23.311  0.00  0.00    +0.000 C 
ATOM     18  C   UNL     1      -1.127  10.901  22.889  0.00  0.00    +0.000 C 
ATOM     19  C   UNL     1      -0.424  11.780  21.855  0.00  0.00    +0.000 C 
ENDBRANCH   9  11
ENDBRANCH   5   7
BRANCH   1  20
ATOM     20  O   UNL     1       6.061   4.278  18.874  0.00  0.00    +0.000 OA
BRANCH  20  21
ATOM     21  C   UNL     1       7.095   4.883  18.100  0.00  0.00    +0.000 C 
BRANCH  21  23
ATOM     22  N   UNL     1       8.270   5.412  20.190  0.00  0.00    +0.000 N 
ATOM     23  C   UNL     1       7.891   5.861  18.959  0.00  0.00    +0.000 C 
ATOM     24  O   UNL     1       8.146   7.008  18.598  0.00  0.00    +0.000 OA
ATOM     25  H   UNL     1       8.860   6.018  20.753  0.00  0.00    +0.000 HD
ATOM     26  H   UNL     1       8.231   4.428  20.418  0.00  0.00    +0.000 HD
ENDBRANCH  21  23
ENDBRANCH  20  21
ENDBRANCH   1  20
TORSDOF 5
ENDMDL
MODEL 8
REMARK VINA RESULT:      -7.5      2.553      3.598
REMARK  Name = 
REMARK  5 active torsions:
REMARK  status: ('A' for Active; 'I' for Inactive)
REMARK    1  A    between atoms: C_2  and  C_4
REMARK    2  A    between atoms: C_4  and  O_5
REMARK    3  A    between atoms: O_5  and  C_6
REMARK    4  A    between atoms: C_10  and  C_11
REMARK    5  A    between atoms: N_13  and  C_14
REMARK                            x       y       z     vdW  Elec       q    Type
REMARK                         _______ _______ _______ _____ _____    ______ ____
ROOT
ATOM      1  C   UNL     1       3.012   4.619  17.584  0.00  0.00    +0.000 A 
ATOM      2  C   UNL     1       4.222   4.915  16.946  0.00  0.00    +0.000 A 
ATOM      3  C   UNL     1       4.697   6.223  16.888  0.00  0.00    +0.000 A 
ATOM      4  C   UNL     1       3.968   7.245  17.488  0.00  0.00    +0.000 A 
ATOM      5  C   UNL     1       2.767   6.956  18.148  0.00  0.00    +0.000 A 
ATOM      6  C   UNL     1       2.279   5.640  18.195  0.00  0.00    +0.000 A 
ENDROOT
BRANCH   5   7
ATOM      7  C   UNL     1       2.053   8.088  18.780  0.00  0.00    +0.000 C 
ATOM      8  O   UNL     1       1.781   8.072  19.970  0.00  0.00    +0.000 OA
ATOM      9  N   UNL     1       1.598   9.148  17.924  0.00  0.00    +0.000 N 
ATOM     10  H   UNL     1       1.713   9.070  16.924  0.00  0.00    +0.000 HD
BRANCH   9  11
ATOM     11  C   UNL     1       0.850  10.212  18.419  0.00  0.00    +0.000 A 
ATOM     12  C   UNL     1       1.231  11.228  19.273  0.00  0.00    +0.000 A 
ATOM     13  N   UNL     1       0.179  12.064  19.554  0.00  0.00    +0.000 NA
ATOM     14  C   UNL     1      -0.849  11.567  18.902  0.00  0.00    +0.000 A 
ATOM     15  N   UNL     1      -0.474  10.467  18.167  0.00  0.00    +0.000 N 
ATOM     16  C   UNL     1      -1.392   9.683  17.366  0.00  0.00    +0.000 C 
ATOM     17  C   UNL     1      -2.852   9.923  17.750  0.00  0.00    +0.000 C 
ATOM     18  C   UNL     1      -3.128  11.421  17.887  0.00  0.00    +0.000 C 
ATOM     19  C   UNL     1      -2.266  12.026  18.994  0.00  0.00    +0.000 C 
ENDBRANCH   9  11
ENDBRANCH   5   7
BRANCH   1  20
ATOM     20  O   UNL     1       2.692   3.290  17.603  0.00  0.00    +0.000 OA
BRANCH  20  21
ATOM     21  C   UNL     1       2.540   2.678  18.882  0.00  0.00    +0.000 C 
BRANCH  21  23
ATOM     22  N   UNL     1       0.720   3.019  20.495  0.00  0.00    +0.000 N 
ATOM     23  C   UNL     1       1.061   2.586  19.247  0.00  0.00    +0.000 C 
ATOM     24  O   UNL     1       0.218   2.110  18.491  0.00  0.00    +0.000 OA
ATOM     25  H   UNL     1      -0.266   3.033  20.737  0.00  0.00    +0.000 HD
ATOM     26  H   UNL     1       1.361   3.576  21.044  0.00  0.00    +0.000 HD
ENDBRANCH  21  23
ENDBRANCH  20  21
ENDBRANCH   1  20
TORSDOF 5
ENDMDL
MODEL 9
REMARK VINA RESULT:      -7.4      2.028      2.437
REMARK  Name = 
REMARK  5 active torsions:
REMARK  status: ('A' for Active; 'I' for Inactive)
REMARK    1  A    between atoms: C_2  and  C_4
REMARK    2  A    between atoms: C_4  and  O_5
REMARK    3  A    between atoms: O_5  and  C_6
REMARK    4  A    between atoms: C_10  and  C_11
REMARK    5  A    between atoms: N_13  and  C_14
REMARK                            x       y       z     vdW  Elec       q    Type
REMARK                         _______ _______ _______ _____ _____    ______ ____
ROOT
ATOM      1  C   UNL     1       4.014   4.777  17.184  0.00  0.00    +0.000 A 
ATOM      2  C   UNL     1       3.606   3.441  17.265  0.00  0.00    +0.000 A 
ATOM      3  C   UNL     1       2.689   3.033  18.231  0.00  0.00    +0.000 A 
ATOM      4  C   UNL     1       2.159   3.968  19.114  0.00  0.00    +0.000 A 
ATOM      5  C   UNL     1       2.546   5.312  19.027  0.00  0.00    +0.000 A 
ATOM      6  C   UNL     1       3.480   5.723  18.064  0.00  0.00    +0.000 A 
ENDROOT
BRANCH   5   7
ATOM      7  C   UNL     1       1.930   6.256  19.987  0.00  0.00    +0.000 C 
ATOM      8  O   UNL     1       1.242   5.852  20.910  0.00  0.00    +0.000 OA
ATOM      9  N   UNL     1       2.080   7.661  19.727  0.00  0.00    +0.000 N 
ATOM     10  H   UNL     1       2.535   7.969  18.879  0.00  0.00    +0.000 HD
BRANCH   9  11
ATOM     11  C   UNL     1       1.468   8.618  20.530  0.00  0.00    +0.000 A 
ATOM     12  C   UNL     1       1.503   8.761  21.903  0.00  0.00    +0.000 A 
ATOM     13  N   UNL     1       0.729   9.818  22.314  0.00  0.00    +0.000 NA
ATOM     14  C   UNL     1       0.201  10.314  21.218  0.00  0.00    +0.000 A 
ATOM     15  N   UNL     1       0.658   9.642  20.109  0.00  0.00    +0.000 N 
ATOM     16  C   UNL     1       0.233   9.938  18.756  0.00  0.00    +0.000 C 
ATOM     17  C   UNL     1      -1.060  10.751  18.715  0.00  0.00    +0.000 C 
ATOM     18  C   UNL     1      -0.992  11.911  19.709  0.00  0.00    +0.000 C 
ATOM     19  C   UNL     1      -0.835  11.386  21.136  0.00  0.00    +0.000 C 
ENDBRANCH   9  11
ENDBRANCH   5   7
BRANCH   1  20
ATOM     20  O   UNL     1       4.881   5.043  16.161  0.00  0.00    +0.000 OA
BRANCH  20  21
ATOM     21  C   UNL     1       6.003   4.175  16.020  0.00  0.00    +0.000 C 
BRANCH  21  23
ATOM     22  N   UNL     1       7.403   6.160  16.381  0.00  0.00    +0.000 N 
ATOM     23  C   UNL     1       7.249   4.825  16.615  0.00  0.00    +0.000 C 
ATOM     24  O   UNL     1       8.100   4.189  17.233  0.00  0.00    +0.000 OA
ATOM     25  H   UNL     1       8.186   6.630  16.824  0.00  0.00    +0.000 HD
ATOM     26  H   UNL     1       6.632   6.719  16.042  0.00  0.00    +0.000 HD
ENDBRANCH  21  23
ENDBRANCH  20  21
ENDBRANCH   1  20
TORSDOF 5
ENDMDL
