MODEL 1
REMARK VINA RESULT:      -7.9      0.000      0.000
REMARK  Name = 
REMARK  13 active torsions:
REMARK  status: ('A' for Active; 'I' for Inactive)
REMARK    1  A    between atoms: C_1  and  C_2
REMARK    2  A    between atoms: C_8  and  C_9
REMARK    3  A    between atoms: N_11  and  C_12
REMARK    4  A    between atoms: C_12  and  C_13
REMARK    5  A    between atoms: C_12  and  C_14
REMARK    6  A    between atoms: C_17  and  S_18
REMARK    7  A    between atoms: S_18  and  C_21
REMARK    8  A    between atoms: C_21  and  C_22
REMARK    9  A    between atoms: C_22  and  O_24
REMARK   10  A    between atoms: O_24  and  C_25
REMARK   11  A    between atoms: C_25  and  C_26
REMARK   12  A    between atoms: C_26  and  O_27
REMARK   13  A    between atoms: N_30  and  C_31
REMARK                            x       y       z     vdW  Elec       q    Type
REMARK                         _______ _______ _______ _____ _____    ______ ____
ROOT
ATOM      1  C   UNL     1       0.926   9.209  20.664  0.00  0.00    +0.000 C 
ATOM      2  C   UNL     1       1.258   9.231  22.160  0.00  0.00    +0.000 C 
ENDROOT
BRANCH   1   3
ATOM      3  C   UNL     1       1.644   8.110  19.885  0.00  0.00    +0.000 A 
ATOM      4  C   UNL     1       1.776   6.846  20.487  0.00  0.00    +0.000 A 
ATOM      5  C   UNL     1       2.471   5.808  19.858  0.00  0.00    +0.000 A 
ATOM      6  C   UNL     1       3.022   6.022  18.595  0.00  0.00    +0.000 A 
ATOM      7  C   UNL     1       2.891   7.258  17.961  0.00  0.00    +0.000 A 
ATOM      8  C   UNL     1       2.197   8.292  18.604  0.00  0.00    +0.000 A 
BRANCH   6   9
ATOM      9  S   UNL     1       3.913   4.704  17.809  0.00  0.00    +0.000 S 
ATOM     10  O   UNL     1       4.777   4.090  18.802  0.00  0.00    +0.000 OA
ATOM     11  O   UNL     1       2.919   3.907  17.111  0.00  0.00    +0.000 OA
BRANCH   9  12
ATOM     12  C   UNL     1       4.941   5.431  16.591  0.00  0.00    +0.000 C 
BRANCH  12  13
ATOM     13  C   UNL     1       6.031   4.501  16.201  0.00  0.00    +0.000 C 
ATOM     14  O   UNL     1       5.856   3.373  15.765  0.00  0.00    +0.000 OA
BRANCH  13  15
ATOM     15  O   UNL     1       7.249   5.022  16.517  0.00  0.00    +0.000 OA
BRANCH  15  16
ATOM     16  C   UNL     1       7.778   4.636  17.803  0.00  0.00    +0.000 C 
BRANCH  16  17
ATOM     17  C   UNL     1       7.814   5.788  18.804  0.00  0.00    +0.000 C 
BRANCH  17  18
ATOM     18  O   UNL     1       7.236   5.388  20.043  0.00  0.00    +0.000 OA
ATOM     19  H   UNL     1       6.730   4.573  19.871  0.00  0.00    +0.000 HD
ENDBRANCH  17  18
ENDBRANCH  16  17
ENDBRANCH  15  16
ENDBRANCH  13  15
ENDBRANCH  12  13
ENDBRANCH   9  12
ENDBRANCH   6   9
ENDBRANCH   1   3
BRANCH   1  22
ATOM     20  C   UNL     1       0.856  11.697  20.703  0.00  0.00    +0.000 C 
ATOM     21  O   UNL     1       0.409  11.688  21.848  0.00  0.00    +0.000 OA
ATOM     22  N   UNL     1       1.141  10.511  20.043  0.00  0.00    +0.000 N 
ATOM     23  H   UNL     1       1.591  10.533  19.142  0.00  0.00    +0.000 HD
BRANCH  20  31
ATOM     24  C   UNL     1       0.673  18.548  17.662  0.00  0.00    +0.000 C 
ATOM     25  C   UNL     1       1.197  17.192  18.044  0.00  0.00    +0.000 A 
ATOM     26  C   UNL     1       2.509  16.822  17.749  0.00  0.00    +0.000 A 
ATOM     27  C   UNL     1       2.980  15.566  18.137  0.00  0.00    +0.000 A 
ATOM     28 CL   UNL     1       4.580  15.061  17.799  0.00  0.00    +0.000 Cl
ATOM     29  C   UNL     1       2.160  14.646  18.818  0.00  0.00    +0.000 A 
ATOM     30  C   UNL     1       2.323  13.341  19.367  0.00  0.00    +0.000 A 
ATOM     31  C   UNL     1       1.133  12.927  19.958  0.00  0.00    +0.000 A 
ATOM     32  N   UNL     1       0.218  13.938  19.677  0.00  0.00    +0.000 N 
ATOM     33  C   UNL     1      -1.214  13.932  19.901  0.00  0.00    +0.000 C 
ATOM     34  C   UNL     1       0.846  15.021  19.076  0.00  0.00    +0.000 A 
ATOM     35  C   UNL     1       0.351  16.291  18.714  0.00  0.00    +0.000 A 
ENDBRANCH  20  31
ENDBRANCH   1  22
TORSDOF 10
ENDMDL
MODEL 2
REMARK VINA RESULT:      -7.8      1.675      2.219
REMARK  Name = 
REMARK  13 active torsions:
REMARK  status: ('A' for Active; 'I' for Inactive)
REMARK    1  A    between atoms: C_1  and  C_2
REMARK    2  A    between atoms: C_8  and  C_9
REMARK    3  A    between atoms: N_11  and  C_12
REMARK    4  A    between atoms: C_12  and  C_13
REMARK    5  A    between atoms: C_12  and  C_14
REMARK    6  A    between atoms: C_17  and  S_18
REMARK    7  A    between atoms: S_18  and  C_21
REMARK    8  A    between atoms: C_21  and  C_22
REMARK    9  A    between atoms: C_22  and  O_24
REMARK   10  A    between atoms: O_24  and  C_25
REMARK   11  A    between atoms: C_25  and  C_26
REMARK   12  A    between atoms: C_26  and  O_27
REMARK   13  A    between atoms: N_30  and  C_31
REMARK                            x       y       z     vdW  Elec       q    Type
REMARK                         _______ _______ _______ _____ _____    ______ ____
ROOT
ATOM      1  C   UNL     1       0.973   8.648  20.120  0.00  0.00    +0.000 C 
ATOM      2  C   UNL     1       0.730   8.395  21.611  0.00  0.00    +0.000 C 
ENDROOT
BRANCH   1   3
ATOM      3  C   UNL     1       1.992   7.704  19.488  0.00  0.00    +0.000 A 
ATOM      4  C   UNL     1       2.305   6.513  20.166  0.00  0.00    +0.000 A 
ATOM      5  C   UNL     1       3.272   5.628  19.678  0.00  0.00    +0.000 A 
ATOM      6  C   UNL     1       3.920   5.918  18.478  0.00  0.00    +0.000 A 
ATOM      7  C   UNL     1       3.618   7.081  17.769  0.00  0.00    +0.000 A 
ATOM      8  C   UNL     1       2.651   7.963  18.272  0.00  0.00    +0.000 A 
BRANCH   6   9
ATOM      9  S   UNL     1       5.154   4.797  17.871  0.00  0.00    +0.000 S 
ATOM     10  O   UNL     1       5.632   4.005  18.991  0.00  0.00    +0.000 OA
ATOM     11  O   UNL     1       4.569   4.144  16.712  0.00  0.00    +0.000 OA
BRANCH   9  12
ATOM     12  C   UNL     1       6.495   5.766  17.298  0.00  0.00    +0.000 C 
BRANCH  12  13
ATOM     13  C   UNL     1       6.421   5.946  15.825  0.00  0.00    +0.000 C 
ATOM     14  O   UNL     1       5.550   6.579  15.248  0.00  0.00    +0.000 OA
BRANCH  13  15
ATOM     15  O   UNL     1       7.374   5.203  15.198  0.00  0.00    +0.000 OA
BRANCH  15  16
ATOM     16  C   UNL     1       6.993   4.644  13.924  0.00  0.00    +0.000 C 
BRANCH  16  17
ATOM     17  C   UNL     1       7.821   5.185  12.762  0.00  0.00    +0.000 C 
BRANCH  17  18
ATOM     18  O   UNL     1       8.879   6.007  13.247  0.00  0.00    +0.000 OA
ATOM     19  H   UNL     1       9.318   5.514  13.964  0.00  0.00    +0.000 HD
ENDBRANCH  17  18
ENDBRANCH  16  17
ENDBRANCH  15  16
ENDBRANCH  13  15
ENDBRANCH  12  13
ENDBRANCH   9  12
ENDBRANCH   6   9
ENDBRANCH   1   3
BRANCH   1  22
ATOM     20  C   UNL     1       0.676  10.785  18.879  0.00  0.00    +0.000 C 
ATOM     21  O   UNL     1      -0.219  10.291  18.198  0.00  0.00    +0.000 OA
ATOM     22  N   UNL     1       1.320  10.040  19.856  0.00  0.00    +0.000 N 
ATOM     23  H   UNL     1       1.987  10.482  20.468  0.00  0.00    +0.000 HD
BRANCH  20  31
ATOM     24  C   UNL     1       1.384  18.248  19.043  0.00  0.00    +0.000 C 
ATOM     25  C   UNL     1       1.743  16.805  18.820  0.00  0.00    +0.000 A 
ATOM     26  C   UNL     1       3.029  16.440  18.420  0.00  0.00    +0.000 A 
ATOM     27  C   UNL     1       3.344  15.092  18.245  0.00  0.00    +0.000 A 
ATOM     28 CL   UNL     1       4.904  14.590  17.753  0.00  0.00    +0.000 Cl
ATOM     29  C   UNL     1       2.392  14.076  18.454  0.00  0.00    +0.000 A 
ATOM     30  C   UNL     1       2.386  12.651  18.398  0.00  0.00    +0.000 A 
ATOM     31  C   UNL     1       1.124  12.172  18.734  0.00  0.00    +0.000 A 
ATOM     32  N   UNL     1       0.336  13.309  18.894  0.00  0.00    +0.000 N 
ATOM     33  C   UNL     1      -1.102  13.379  19.068  0.00  0.00    +0.000 C 
ATOM     34  C   UNL     1       1.108  14.461  18.823  0.00  0.00    +0.000 A 
ATOM     35  C   UNL     1       0.768  15.814  19.028  0.00  0.00    +0.000 A 
ENDBRANCH  20  31
ENDBRANCH   1  22
TORSDOF 10
ENDMDL
MODEL 3
REMARK VINA RESULT:      -7.7      3.680      5.354
REMARK  Name = 
REMARK  13 active torsions:
REMARK  status: ('A' for Active; 'I' for Inactive)
REMARK    1  A    between atoms: C_1  and  C_2
REMARK    2  A    between atoms: C_8  and  C_9
REMARK    3  A    between atoms: N_11  and  C_12
REMARK    4  A    between atoms: C_12  and  C_13
REMARK    5  A    between atoms: C_12  and  C_14
REMARK    6  A    between atoms: C_17  and  S_18
REMARK    7  A    between atoms: S_18  and  C_21
REMARK    8  A    between atoms: C_21  and  C_22
REMARK    9  A    between atoms: C_22  and  O_24
REMARK   10  A    between atoms: O_24  and  C_25
REMARK   11  A    between atoms: C_25  and  C_26
REMARK   12  A    between atoms: C_26  and  O_27
REMARK   13  A    between atoms: N_30  and  C_31
REMARK                            x       y       z     vdW  Elec       q    Type
REMARK                         _______ _______ _______ _____ _____    ______ ____
ROOT
ATOM      1  C   UNL     1       0.938  11.240  19.687  0.00  0.00    +0.000 C 
ATOM      2  C   UNL     1       1.373  12.042  18.456  0.00  0.00    +0.000 C 
ENDROOT
BRANCH   1   3
ATOM      3  C   UNL     1       1.310   9.761  19.628  0.00  0.00    +0.000 A 
ATOM      4  C   UNL     1       1.107   8.978  20.778  0.00  0.00    +0.000 A 
ATOM      5  C   UNL     1       1.478   7.630  20.817  0.00  0.00    +0.000 A 
ATOM      6  C   UNL     1       2.035   7.041  19.683  0.00  0.00    +0.000 A 
ATOM      7  C   UNL     1       2.230   7.785  18.519  0.00  0.00    +0.000 A 
ATOM      8  C   UNL     1       1.860   9.136  18.494  0.00  0.00    +0.000 A 
BRANCH   6   9
ATOM      9  S   UNL     1       2.514   5.334  19.744  0.00  0.00    +0.000 S 
ATOM     10  O   UNL     1       2.199   4.826  21.068  0.00  0.00    +0.000 OA
ATOM     11  O   UNL     1       1.935   4.711  18.567  0.00  0.00    +0.000 OA
BRANCH   9  12
ATOM     12  C   UNL     1       4.254   5.279  19.557  0.00  0.00    +0.000 C 
BRANCH  12  13
ATOM     13  C   UNL     1       4.686   3.951  19.051  0.00  0.00    +0.000 C 
ATOM     14  O   UNL     1       4.764   2.942  19.734  0.00  0.00    +0.000 OA
BRANCH  13  15
ATOM     15  O   UNL     1       5.110   4.040  17.759  0.00  0.00    +0.000 OA
BRANCH  15  16
ATOM     16  C   UNL     1       6.022   5.121  17.474  0.00  0.00    +0.000 C 
BRANCH  16  17
ATOM     17  C   UNL     1       7.484   4.682  17.463  0.00  0.00    +0.000 C 
BRANCH  17  18
ATOM     18  O   UNL     1       8.042   4.779  18.770  0.00  0.00    +0.000 OA
ATOM     19  H   UNL     1       8.038   5.722  19.012  0.00  0.00    +0.000 HD
ENDBRANCH  17  18
ENDBRANCH  16  17
ENDBRANCH  15  16
ENDBRANCH  13  15
ENDBRANCH  12  13
ENDBRANCH   9  12
ENDBRANCH   6   9
ENDBRANCH   1   3
BRANCH   1  22
ATOM     20  C   UNL     1      -0.969  12.491  20.684  0.00  0.00    +0.000 C 
ATOM     21  O   UNL     1      -0.207  13.357  21.109  0.00  0.00    +0.000 OA
ATOM     22  N   UNL     1      -0.483  11.407  19.969  0.00  0.00    +0.000 N 
ATOM     23  H   UNL     1      -1.125  10.754  19.549  0.00  0.00    +0.000 HD
BRANCH  20  31
ATOM     24  C   UNL     1      -7.917  13.145  23.426  0.00  0.00    +0.000 C 
ATOM     25  C   UNL     1      -6.811  12.972  22.423  0.00  0.00    +0.000 A 
ATOM     26  C   UNL     1      -7.084  12.929  21.056  0.00  0.00    +0.000 A 
ATOM     27  C   UNL     1      -6.037  12.795  20.143  0.00  0.00    +0.000 A 
ATOM     28 CL   UNL     1      -6.316  12.734  18.456  0.00  0.00    +0.000 Cl
ATOM     29  C   UNL     1      -4.697  12.690  20.563  0.00  0.00    +0.000 A 
ATOM     30  C   UNL     1      -3.428  12.578  19.923  0.00  0.00    +0.000 A 
ATOM     31  C   UNL     1      -2.420  12.532  20.880  0.00  0.00    +0.000 A 
ATOM     32  N   UNL     1      -3.083  12.513  22.104  0.00  0.00    +0.000 N 
ATOM     33  C   UNL     1      -2.518  12.284  23.420  0.00  0.00    +0.000 C 
ATOM     34  C   UNL     1      -4.447  12.704  21.931  0.00  0.00    +0.000 A 
ATOM     35  C   UNL     1      -5.484  12.862  22.875  0.00  0.00    +0.000 A 
ENDBRANCH  20  31
ENDBRANCH   1  22
TORSDOF 10
ENDMDL
MODEL 4
REMARK VINA RESULT:      -7.7      4.723     10.852
REMARK  Name = 
REMARK  13 active torsions:
REMARK  status: ('A' for Active; 'I' for Inactive)
REMARK    1  A    between atoms: C_1  and  C_2
REMARK    2  A    between atoms: C_8  and  C_9
REMARK    3  A    between atoms: N_11  and  C_12
REMARK    4  A    between atoms: C_12  and  C_13
REMARK    5  A    between atoms: C_12  and  C_14
REMARK    6  A    between atoms: C_17  and  S_18
REMARK    7  A    between atoms: S_18  and  C_21
REMARK    8  A    between atoms: C_21  and  C_22
REMARK    9  A    between atoms: C_22  and  O_24
REMARK   10  A    between atoms: O_24  and  C_25
REMARK   11  A    between atoms: C_25  and  C_26
REMARK   12  A    between atoms: C_26  and  O_27
REMARK   13  A    between atoms: N_30  and  C_31
REMARK                            x       y       z     vdW  Elec       q    Type
REMARK                         _______ _______ _______ _____ _____    ______ ____
ROOT
ATOM      1  C   UNL     1       0.919  12.357  18.910  0.00  0.00    +0.000 C 
ATOM      2  C   UNL     1       1.919  13.517  18.924  0.00  0.00    +0.000 C 
ENDROOT
BRANCH   1   3
ATOM      3  C   UNL     1      -0.151  12.446  19.995  0.00  0.00    +0.000 A 
ATOM      4  C   UNL     1      -1.439  12.870  19.626  0.00  0.00    +0.000 A 
ATOM      5  C   UNL     1      -2.455  13.031  20.574  0.00  0.00    +0.000 A 
ATOM      6  C   UNL     1      -2.192  12.739  21.912  0.00  0.00    +0.000 A 
ATOM      7  C   UNL     1      -0.930  12.297  22.309  0.00  0.00    +0.000 A 
ATOM      8  C   UNL     1       0.081  12.144  21.350  0.00  0.00    +0.000 A 
BRANCH   6   9
ATOM      9  S   UNL     1      -3.481  12.958  23.111  0.00  0.00    +0.000 S 
ATOM     10  O   UNL     1      -3.609  11.723  23.865  0.00  0.00    +0.000 OA
ATOM     11  O   UNL     1      -3.187  14.205  23.796  0.00  0.00    +0.000 OA
BRANCH   9  12
ATOM     12  C   UNL     1      -4.974  13.193  22.226  0.00  0.00    +0.000 C 
BRANCH  12  13
ATOM     13  C   UNL     1      -6.147  12.900  23.087  0.00  0.00    +0.000 C 
ATOM     14  O   UNL     1      -6.424  13.507  24.111  0.00  0.00    +0.000 OA
BRANCH  13  15
ATOM     15  O   UNL     1      -6.795  11.781  22.658  0.00  0.00    +0.000 OA
BRANCH  15  16
ATOM     16  C   UNL     1      -7.525  11.918  21.421  0.00  0.00    +0.000 C 
BRANCH  16  17
ATOM     17  C   UNL     1      -7.564  10.630  20.604  0.00  0.00    +0.000 C 
BRANCH  17  18
ATOM     18  O   UNL     1      -7.470  10.920  19.212  0.00  0.00    +0.000 OA
ATOM     19  H   UNL     1      -6.572  10.671  18.930  0.00  0.00    +0.000 HD
ENDBRANCH  17  18
ENDBRANCH  16  17
ENDBRANCH  15  16
ENDBRANCH  13  15
ENDBRANCH  12  13
ENDBRANCH   9  12
ENDBRANCH   6   9
ENDBRANCH   1   3
BRANCH   1  22
ATOM     20  C   UNL     1       1.016   9.920  18.413  0.00  0.00    +0.000 C 
ATOM     21  O   UNL     1      -0.091   9.962  17.882  0.00  0.00    +0.000 OA
ATOM     22  N   UNL     1       1.591  11.063  18.949  0.00  0.00    +0.000 N 
ATOM     23  H   UNL     1       2.535  11.033  19.299  0.00  0.00    +0.000 HD
BRANCH  20  31
ATOM     24  C   UNL     1       3.875   3.245  20.283  0.00  0.00    +0.000 C 
ATOM     25  C   UNL     1       3.666   4.521  19.517  0.00  0.00    +0.000 A 
ATOM     26  C   UNL     1       4.340   4.755  18.318  0.00  0.00    +0.000 A 
ATOM     27  C   UNL     1       4.108   5.936  17.611  0.00  0.00    +0.000 A 
ATOM     28 CL   UNL     1       4.909   6.275  16.137  0.00  0.00    +0.000 Cl
ATOM     29  C   UNL     1       3.211   6.916  18.079  0.00  0.00    +0.000 A 
ATOM     30  C   UNL     1       2.733   8.174  17.611  0.00  0.00    +0.000 A 
ATOM     31  C   UNL     1       1.812   8.695  18.515  0.00  0.00    +0.000 A 
ATOM     32  N   UNL     1       1.808   7.801  19.582  0.00  0.00    +0.000 N 
ATOM     33  C   UNL     1       1.165   7.956  20.873  0.00  0.00    +0.000 C 
ATOM     34  C   UNL     1       2.572   6.678  19.291  0.00  0.00    +0.000 A 
ATOM     35  C   UNL     1       2.771   5.484  20.015  0.00  0.00    +0.000 A 
ENDBRANCH  20  31
ENDBRANCH   1  22
TORSDOF 10
ENDMDL
MODEL 5
REMARK VINA RESULT:      -7.6      4.984     10.837
REMARK  Name = 
REMARK  13 active torsions:
REMARK  status: ('A' for Active; 'I' for Inactive)
REMARK    1  A    between atoms: C_1  and  C_2
REMARK    2  A    between atoms: C_8  and  C_9
REMARK    3  A    between atoms: N_11  and  C_12
REMARK    4  A    between atoms: C_12  and  C_13
REMARK    5  A    between atoms: C_12  and  C_14
REMARK    6  A    between atoms: C_17  and  S_18
REMARK    7  A    between atoms: S_18  and  C_21
REMARK    8  A    between atoms: C_21  and  C_22
REMARK    9  A    between atoms: C_22  and  O_24
REMARK   10  A    between atoms: O_24  and  C_25
REMARK   11  A    between atoms: C_25  and  C_26
REMARK   12  A    between atoms: C_26  and  O_27
REMARK   13  A    between atoms: N_30  and  C_31
REMARK                            x       y       z     vdW  Elec       q    Type
REMARK                         _______ _______ _______ _____ _____    ______ ____
ROOT
ATOM      1  C   UNL     1       0.195  11.025  18.255  0.00  0.00    +0.000 C 
ATOM      2  C   UNL     1       0.896  12.077  19.119  0.00  0.00    +0.000 C 
ENDROOT
BRANCH   1   3
ATOM      3  C   UNL     1      -1.328  11.131  18.260  0.00  0.00    +0.000 A 
ATOM      4  C   UNL     1      -1.930  12.015  19.173  0.00  0.00    +0.000 A 
ATOM      5  C   UNL     1      -3.321  12.123  19.275  0.00  0.00    +0.000 A 
ATOM      6  C   UNL     1      -4.129  11.358  18.434  0.00  0.00    +0.000 A 
ATOM      7  C   UNL     1      -3.563  10.487  17.503  0.00  0.00    +0.000 A 
ATOM      8  C   UNL     1      -2.168  10.384  17.415  0.00  0.00    +0.000 A 
BRANCH   6   9
ATOM      9  S   UNL     1      -5.892  11.492  18.578  0.00  0.00    +0.000 S 
ATOM     10  O   UNL     1      -6.389  12.174  17.396  0.00  0.00    +0.000 OA
ATOM     11  O   UNL     1      -6.371  10.161  18.909  0.00  0.00    +0.000 OA
BRANCH   9  12
ATOM     12  C   UNL     1      -6.220  12.519  19.958  0.00  0.00    +0.000 C 
BRANCH  12  13
ATOM     13  C   UNL     1      -6.924  11.759  21.022  0.00  0.00    +0.000 C 
ATOM     14  O   UNL     1      -7.917  11.070  20.841  0.00  0.00    +0.000 OA
BRANCH  13  15
ATOM     15  O   UNL     1      -6.396  12.039  22.246  0.00  0.00    +0.000 OA
BRANCH  15  16
ATOM     16  C   UNL     1      -5.402  13.085  22.274  0.00  0.00    +0.000 C 
BRANCH  16  17
ATOM     17  C   UNL     1      -4.230  12.771  23.199  0.00  0.00    +0.000 C 
BRANCH  17  18
ATOM     18  O   UNL     1      -4.358  13.485  24.425  0.00  0.00    +0.000 OA
ATOM     19  H   UNL     1      -5.261  13.326  24.754  0.00  0.00    +0.000 HD
ENDBRANCH  17  18
ENDBRANCH  16  17
ENDBRANCH  15  16
ENDBRANCH  13  15
ENDBRANCH  12  13
ENDBRANCH   9  12
ENDBRANCH   6   9
ENDBRANCH   1   3
BRANCH   1  22
ATOM     20  C   UNL     1       1.857   9.173  18.213  0.00  0.00    +0.000 C 
ATOM     21  O   UNL     1       2.642   9.863  17.567  0.00  0.00    +0.000 OA
ATOM     22  N   UNL     1       0.622   9.672  18.596  0.00  0.00    +0.000 N 
ATOM     23  H   UNL     1       0.026   9.130  19.202  0.00  0.00    +0.000 HD
BRANCH  20  31
ATOM     24  C   UNL     1       2.177   2.566  21.743  0.00  0.00    +0.000 C 
ATOM     25  C   UNL     1       2.403   3.606  20.683  0.00  0.00    +0.000 A 
ATOM     26  C   UNL     1       3.041   3.282  19.485  0.00  0.00    +0.000 A 
ATOM     27  C   UNL     1       3.215   4.260  18.504  0.00  0.00    +0.000 A 
ATOM     28 CL   UNL     1       3.992   3.916  17.019  0.00  0.00    +0.000 Cl
ATOM     29  C   UNL     1       2.772   5.583  18.691  0.00  0.00    +0.000 A 
ATOM     30  C   UNL     1       2.760   6.778  17.915  0.00  0.00    +0.000 A 
ATOM     31  C   UNL     1       2.153   7.802  18.636  0.00  0.00    +0.000 A 
ATOM     32  N   UNL     1       1.887   7.255  19.888  0.00  0.00    +0.000 N 
ATOM     33  C   UNL     1       1.427   7.940  21.081  0.00  0.00    +0.000 C 
ATOM     34  C   UNL     1       2.166   5.895  19.904  0.00  0.00    +0.000 A 
ATOM     35  C   UNL     1       1.957   4.921  20.903  0.00  0.00    +0.000 A 
ENDBRANCH  20  31
ENDBRANCH   1  22
TORSDOF 10
ENDMDL
MODEL 6
REMARK VINA RESULT:      -7.6      0.972      1.825
REMARK  Name = 
REMARK  13 active torsions:
REMARK  status: ('A' for Active; 'I' for Inactive)
REMARK    1  A    between atoms: C_1  and  C_2
REMARK    2  A    between atoms: C_8  and  C_9
REMARK    3  A    between atoms: N_11  and  C_12
REMARK    4  A    between atoms: C_12  and  C_13
REMARK    5  A    between atoms: C_12  and  C_14
REMARK    6  A    between atoms: C_17  and  S_18
REMARK    7  A    between atoms: S_18  and  C_21
REMARK    8  A    between atoms: C_21  and  C_22
REMARK    9  A    between atoms: C_22  and  O_24
REMARK   10  A    between atoms: O_24  and  C_25
REMARK   11  A    between atoms: C_25  and  C_26
REMARK   12  A    between atoms: C_26  and  O_27
REMARK   13  A    between atoms: N_30  and  C_31
REMARK                            x       y       z     vdW  Elec       q    Type
REMARK                         _______ _______ _______ _____ _____    ______ ____
ROOT
ATOM      1  C   UNL     1       0.784   9.277  21.156  0.00  0.00    +0.000 C 
ATOM      2  C   UNL     1       1.144   9.359  22.643  0.00  0.00    +0.000 C 
ENDROOT
BRANCH   1   3
ATOM      3  C   UNL     1       1.413   8.091  20.429  0.00  0.00    +0.000 A 
ATOM      4  C   UNL     1       1.956   8.306  19.150  0.00  0.00    +0.000 A 
ATOM      5  C   UNL     1       2.496   7.256  18.401  0.00  0.00    +0.000 A 
ATOM      6  C   UNL     1       2.522   5.972  18.944  0.00  0.00    +0.000 A 
ATOM      7  C   UNL     1       2.010   5.728  20.218  0.00  0.00    +0.000 A 
ATOM      8  C   UNL     1       1.466   6.788  20.957  0.00  0.00    +0.000 A 
BRANCH   6   9
ATOM      9  S   UNL     1       3.198   4.643  17.982  0.00  0.00    +0.000 S 
ATOM     10  O   UNL     1       2.125   3.709  17.690  0.00  0.00    +0.000 OA
ATOM     11  O   UNL     1       3.938   5.266  16.899  0.00  0.00    +0.000 OA
BRANCH   9  12
ATOM     12  C   UNL     1       4.360   3.813  18.995  0.00  0.00    +0.000 C 
BRANCH  12  13
ATOM     13  C   UNL     1       5.652   4.547  19.021  0.00  0.00    +0.000 C 
ATOM     14  O   UNL     1       5.833   5.609  19.596  0.00  0.00    +0.000 OA
BRANCH  13  15
ATOM     15  O   UNL     1       6.566   3.946  18.209  0.00  0.00    +0.000 OA
BRANCH  15  16
ATOM     16  C   UNL     1       7.448   4.837  17.496  0.00  0.00    +0.000 C 
BRANCH  16  17
ATOM     17  C   UNL     1       7.190   4.856  15.992  0.00  0.00    +0.000 C 
BRANCH  17  18
ATOM     18  O   UNL     1       6.321   5.932  15.650  0.00  0.00    +0.000 OA
ATOM     19  H   UNL     1       6.875   6.633  15.261  0.00  0.00    +0.000 HD
ENDBRANCH  17  18
ENDBRANCH  16  17
ENDBRANCH  15  16
ENDBRANCH  13  15
ENDBRANCH  12  13
ENDBRANCH   9  12
ENDBRANCH   6   9
ENDBRANCH   1   3
BRANCH   1  22
ATOM     20  C   UNL     1       0.676  11.756  20.959  0.00  0.00    +0.000 C 
ATOM     21  O   UNL     1       0.060  11.835  22.020  0.00  0.00    +0.000 OA
ATOM     22  N   UNL     1       1.074  10.525  20.459  0.00  0.00    +0.000 N 
ATOM     23  H   UNL     1       1.656  10.481  19.638  0.00  0.00    +0.000 HD
BRANCH  20  31
ATOM     24  C   UNL     1       0.996  18.427  17.551  0.00  0.00    +0.000 C 
ATOM     25  C   UNL     1       1.424  17.064  18.019  0.00  0.00    +0.000 A 
ATOM     26  C   UNL     1       2.717  16.598  17.778  0.00  0.00    +0.000 A 
ATOM     27  C   UNL     1       3.099  15.339  18.245  0.00  0.00    +0.000 A 
ATOM     28 CL   UNL     1       4.670  14.717  17.976  0.00  0.00    +0.000 Cl
ATOM     29  C   UNL     1       2.206  14.510  18.953  0.00  0.00    +0.000 A 
ATOM     30  C   UNL     1       2.274  13.230  19.576  0.00  0.00    +0.000 A 
ATOM     31  C   UNL     1       1.047  12.924  20.157  0.00  0.00    +0.000 A 
ATOM     32  N   UNL     1       0.205  13.973  19.798  0.00  0.00    +0.000 N 
ATOM     33  C   UNL     1      -1.230  14.068  19.985  0.00  0.00    +0.000 C 
ATOM     34  C   UNL     1       0.913  14.980  19.156  0.00  0.00    +0.000 A 
ATOM     35  C   UNL     1       0.508  16.257  18.714  0.00  0.00    +0.000 A 
ENDBRANCH  20  31
ENDBRANCH   1  22
TORSDOF 10
ENDMDL
MODEL 7
REMARK VINA RESULT:      -7.6      3.750      5.553
REMARK  Name = 
REMARK  13 active torsions:
REMARK  status: ('A' for Active; 'I' for Inactive)
REMARK    1  A    between atoms: C_1  and  C_2
REMARK    2  A    between atoms: C_8  and  C_9
REMARK    3  A    between atoms: N_11  and  C_12
REMARK    4  A    between atoms: C_12  and  C_13
REMARK    5  A    between atoms: C_12  and  C_14
REMARK    6  A    between atoms: C_17  and  S_18
REMARK    7  A    between atoms: S_18  and  C_21
REMARK    8  A    between atoms: C_21  and  C_22
REMARK    9  A    between atoms: C_22  and  O_24
REMARK   10  A    between atoms: O_24  and  C_25
REMARK   11  A    between atoms: C_25  and  C_26
REMARK   12  A    between atoms: C_26  and  O_27
REMARK   13  A    between atoms: N_30  and  C_31
REMARK                            x       y       z     vdW  Elec       q    Type
REMARK                         _______ _______ _______ _____ _____    ______ ____
ROOT
ATOM      1  C   UNL     1       0.825  11.270  19.615  0.00  0.00    +0.000 C 
ATOM      2  C   UNL     1       1.074  11.927  18.254  0.00  0.00    +0.000 C 
ENDROOT
BRANCH   1   3
ATOM      3  C   UNL     1       1.276   9.814  19.693  0.00  0.00    +0.000 A 
ATOM      4  C   UNL     1       1.859   9.236  18.552  0.00  0.00    +0.000 A 
ATOM      5  C   UNL     1       2.245   7.891  18.530  0.00  0.00    +0.000 A 
ATOM      6  C   UNL     1       2.072   7.113  19.674  0.00  0.00    +0.000 A 
ATOM      7  C   UNL     1       1.516   7.661  20.830  0.00  0.00    +0.000 A 
ATOM      8  C   UNL     1       1.129   9.008  20.838  0.00  0.00    +0.000 A 
BRANCH   6   9
ATOM      9  S   UNL     1       2.551   5.405  19.635  0.00  0.00    +0.000 S 
ATOM     10  O   UNL     1       2.335   4.847  20.959  0.00  0.00    +0.000 OA
ATOM     11  O   UNL     1       1.886   4.827  18.481  0.00  0.00    +0.000 OA
BRANCH   9  12
ATOM     12  C   UNL     1       4.273   5.361  19.318  0.00  0.00    +0.000 C 
BRANCH  12  13
ATOM     13  C   UNL     1       4.697   3.996  18.911  0.00  0.00    +0.000 C 
ATOM     14  O   UNL     1       4.987   3.100  19.690  0.00  0.00    +0.000 OA
BRANCH  13  15
ATOM     15  O   UNL     1       4.847   3.919  17.560  0.00  0.00    +0.000 OA
BRANCH  15  16
ATOM     16  C   UNL     1       5.465   5.062  16.933  0.00  0.00    +0.000 C 
BRANCH  16  17
ATOM     17  C   UNL     1       6.937   4.837  16.601  0.00  0.00    +0.000 C 
BRANCH  17  18
ATOM     18  O   UNL     1       7.517   6.030  16.080  0.00  0.00    +0.000 OA
ATOM     19  H   UNL     1       8.269   6.257  16.658  0.00  0.00    +0.000 HD
ENDBRANCH  17  18
ENDBRANCH  16  17
ENDBRANCH  15  16
ENDBRANCH  13  15
ENDBRANCH  12  13
ENDBRANCH   9  12
ENDBRANCH   6   9
ENDBRANCH   1   3
BRANCH   1  22
ATOM     20  C   UNL     1      -1.095  12.621  20.441  0.00  0.00    +0.000 C 
ATOM     21  O   UNL     1      -0.402  13.636  20.458  0.00  0.00    +0.000 OA
ATOM     22  N   UNL     1      -0.565  11.405  20.036  0.00  0.00    +0.000 N 
ATOM     23  H   UNL     1      -1.166  10.602  19.940  0.00  0.00    +0.000 HD
BRANCH  20  31
ATOM     24  C   UNL     1      -7.661  13.214  24.013  0.00  0.00    +0.000 C 
ATOM     25  C   UNL     1      -6.684  12.988  22.893  0.00  0.00    +0.000 A 
ATOM     26  C   UNL     1      -7.127  12.777  21.587  0.00  0.00    +0.000 A 
ATOM     27  C   UNL     1      -6.200  12.596  20.560  0.00  0.00    +0.000 A 
ATOM     28 CL   UNL     1      -6.689  12.331  18.942  0.00  0.00    +0.000 Cl
ATOM     29  C   UNL     1      -4.813  12.610  20.804  0.00  0.00    +0.000 A 
ATOM     30  C   UNL     1      -3.633  12.493  20.014  0.00  0.00    +0.000 A 
ATOM     31  C   UNL     1      -2.508  12.607  20.826  0.00  0.00    +0.000 A 
ATOM     32  N   UNL     1      -3.006  12.691  22.123  0.00  0.00    +0.000 N 
ATOM     33  C   UNL     1      -2.263  12.642  23.367  0.00  0.00    +0.000 C 
ATOM     34  C   UNL     1      -4.391  12.791  22.117  0.00  0.00    +0.000 A 
ATOM     35  C   UNL     1      -5.306  12.998  23.170  0.00  0.00    +0.000 A 
ENDBRANCH  20  31
ENDBRANCH   1  22
TORSDOF 10
ENDMDL
MODEL 8
REMARK VINA RESULT:      -7.6      3.996      6.091
REMARK  Name = 
REMARK  13 active torsions:
REMARK  status: ('A' for Active; 'I' for Inactive)
REMARK    1  A    between atoms: C_1  and  C_2
REMARK    2  A    between atoms: C_8  and  C_9
REMARK    3  A    between atoms: N_11  and  C_12
REMARK    4  A    between atoms: C_12  and  C_13
REMARK    5  A    between atoms: C_12  and  C_14
REMARK    6  A    between atoms: C_17  and  S_18
REMARK    7  A    between atoms: S_18  and  C_21
REMARK    8  A    between atoms: C_21  and  C_22
REMARK    9  A    between atoms: C_22  and  O_24
REMARK   10  A    between atoms: O_24  and  C_25
REMARK   11  A    between atoms: C_25  and  C_26
REMARK   12  A    between atoms: C_26  and  O_27
REMARK   13  A    between atoms: N_30  and  C_31
REMARK                            x       y       z     vdW  Elec       q    Type
REMARK                         _______ _______ _______ _____ _____    ______ ____
ROOT
ATOM      1  C   UNL     1       0.670  11.617  19.564  0.00  0.00    +0.000 C 
ATOM      2  C   UNL     1       0.864  12.358  18.238  0.00  0.00    +0.000 C 
ENDROOT
BRANCH   1   3
ATOM      3  C   UNL     1       1.175  10.176  19.550  0.00  0.00    +0.000 A 
ATOM      4  C   UNL     1       1.708   9.670  18.352  0.00  0.00    +0.000 A 
ATOM      5  C   UNL     1       2.136   8.343  18.247  0.00  0.00    +0.000 A 
ATOM      6  C   UNL     1       2.059   7.510  19.363  0.00  0.00    +0.000 A 
ATOM      7  C   UNL     1       1.555   7.987  20.573  0.00  0.00    +0.000 A 
ATOM      8  C   UNL     1       1.124   9.317  20.664  0.00  0.00    +0.000 A 
BRANCH   6   9
ATOM      9  S   UNL     1       2.593   5.824  19.219  0.00  0.00    +0.000 S 
ATOM     10  O   UNL     1       2.149   5.320  17.932  0.00  0.00    +0.000 OA
ATOM     11  O   UNL     1       4.006   5.820  19.558  0.00  0.00    +0.000 OA
BRANCH   9  12
ATOM     12  C   UNL     1       1.760   4.912  20.460  0.00  0.00    +0.000 C 
BRANCH  12  13
ATOM     13  C   UNL     1       1.576   3.499  20.039  0.00  0.00    +0.000 C 
ATOM     14  O   UNL     1       0.492   2.972  19.839  0.00  0.00    +0.000 OA
BRANCH  13  15
ATOM     15  O   UNL     1       2.766   2.837  20.035  0.00  0.00    +0.000 OA
BRANCH  15  16
ATOM     16  C   UNL     1       2.892   1.784  19.057  0.00  0.00    +0.000 C 
BRANCH  16  17
ATOM     17  C   UNL     1       3.632   2.225  17.797  0.00  0.00    +0.000 C 
BRANCH  17  18
ATOM     18  O   UNL     1       4.621   3.199  18.116  0.00  0.00    +0.000 OA
ATOM     19  H   UNL     1       4.830   3.674  17.292  0.00  0.00    +0.000 HD
ENDBRANCH  17  18
ENDBRANCH  16  17
ENDBRANCH  15  16
ENDBRANCH  13  15
ENDBRANCH  12  13
ENDBRANCH   9  12
ENDBRANCH   6   9
ENDBRANCH   1   3
BRANCH   1  22
ATOM     20  C   UNL     1      -1.320  12.874  20.373  0.00  0.00    +0.000 C 
ATOM     21  O   UNL     1      -0.703  13.935  20.310  0.00  0.00    +0.000 OA
ATOM     22  N   UNL     1      -0.714  11.677  20.021  0.00  0.00    +0.000 N 
ATOM     23  H   UNL     1      -1.256  10.829  19.990  0.00  0.00    +0.000 HD
BRANCH  20  31
ATOM     24  C   UNL     1      -7.825  13.279  24.080  0.00  0.00    +0.000 C 
ATOM     25  C   UNL     1      -6.860  13.022  22.957  0.00  0.00    +0.000 A 
ATOM     26  C   UNL     1      -7.314  12.643  21.694  0.00  0.00    +0.000 A 
ATOM     27  C   UNL     1      -6.399  12.436  20.660  0.00  0.00    +0.000 A 
ATOM     28 CL   UNL     1      -6.902  11.969  19.093  0.00  0.00    +0.000 Cl
ATOM     29  C   UNL     1      -5.013  12.590  20.857  0.00  0.00    +0.000 A 
ATOM     30  C   UNL     1      -3.847  12.492  20.043  0.00  0.00    +0.000 A 
ATOM     31  C   UNL     1      -2.717  12.782  20.803  0.00  0.00    +0.000 A 
ATOM     32  N   UNL     1      -3.189  12.955  22.101  0.00  0.00    +0.000 N 
ATOM     33  C   UNL     1      -2.415  13.095  23.319  0.00  0.00    +0.000 C 
ATOM     34  C   UNL     1      -4.577  12.938  22.130  0.00  0.00    +0.000 A 
ATOM     35  C   UNL     1      -5.481  13.175  23.187  0.00  0.00    +0.000 A 
ENDBRANCH  20  31
ENDBRANCH   1  22
TORSDOF 10
ENDMDL
MODEL 9
REMARK VINA RESULT:      -7.5      4.780     11.384
REMARK  Name = 
REMARK  13 active torsions:
REMARK  status: ('A' for Active; 'I' for Inactive)
REMARK    1  A    between atoms: C_1  and  C_2
REMARK    2  A    between atoms: C_8  and  C_9
REMARK    3  A    between atoms: N_11  and  C_12
REMARK    4  A    between atoms: C_12  and  C_13
REMARK    5  A    between atoms: C_12  and  C_14
REMARK    6  A    between atoms: C_17  and  S_18
REMARK    7  A    between atoms: S_18  and  C_21
REMARK    8  A    between atoms: C_21  and  C_22
REMARK    9  A    between atoms: C_22  and  O_24
REMARK   10  A    between atoms: O_24  and  C_25
REMARK   11  A    between atoms: C_25  and  C_26
REMARK   12  A    between atoms: C_26  and  O_27
REMARK   13  A    between atoms: N_30  and  C_31
REMARK                            x       y       z     vdW  Elec       q    Type
REMARK                         _______ _______ _______ _____ _____    ______ ____
ROOT
ATOM      1  C   UNL     1       0.531  11.517  19.104  0.00  0.00    +0.000 C 
ATOM      2  C   UNL     1       1.701  12.504  19.164  0.00  0.00    +0.000 C 
ENDROOT
BRANCH   1   3
ATOM      3  C   UNL     1      -0.624  11.866  20.041  0.00  0.00    +0.000 A 
ATOM      4  C   UNL     1      -0.394  11.815  21.427  0.00  0.00    +0.000 A 
ATOM      5  C   UNL     1      -1.419  12.066  22.346  0.00  0.00    +0.000 A 
ATOM      6  C   UNL     1      -2.689  12.399  21.878  0.00  0.00    +0.000 A 
ATOM      7  C   UNL     1      -2.945  12.478  20.509  0.00  0.00    +0.000 A 
ATOM      8  C   UNL     1      -1.912  12.220  19.598  0.00  0.00    +0.000 A 
BRANCH   6   9
ATOM      9  S   UNL     1      -3.987  12.703  23.049  0.00  0.00    +0.000 S 
ATOM     10  O   UNL     1      -5.256  12.587  22.354  0.00  0.00    +0.000 OA
ATOM     11  O   UNL     1      -3.701  11.857  24.194  0.00  0.00    +0.000 OA
BRANCH   9  12
ATOM     12  C   UNL     1      -3.824  14.364  23.579  0.00  0.00    +0.000 C 
BRANCH  12  13
ATOM     13  C   UNL     1      -4.692  15.260  22.773  0.00  0.00    +0.000 C 
ATOM     14  O   UNL     1      -4.423  15.657  21.649  0.00  0.00    +0.000 OA
BRANCH  13  15
ATOM     15  O   UNL     1      -5.760  15.685  23.504  0.00  0.00    +0.000 OA
BRANCH  15  16
ATOM     16  C   UNL     1      -7.056  15.355  22.965  0.00  0.00    +0.000 C 
BRANCH  16  17
ATOM     17  C   UNL     1      -7.911  14.534  23.926  0.00  0.00    +0.000 C 
BRANCH  17  18
ATOM     18  O   UNL     1      -7.109  13.575  24.610  0.00  0.00    +0.000 OA
ATOM     19  H   UNL     1      -7.461  12.695  24.382  0.00  0.00    +0.000 HD
ENDBRANCH  17  18
ENDBRANCH  16  17
ENDBRANCH  15  16
ENDBRANCH  13  15
ENDBRANCH  12  13
ENDBRANCH   9  12
ENDBRANCH   6   9
ENDBRANCH   1   3
BRANCH   1  22
ATOM     20  C   UNL     1       1.769   9.478  18.393  0.00  0.00    +0.000 C 
ATOM     21  O   UNL     1       2.137  10.035  17.361  0.00  0.00    +0.000 OA
ATOM     22  N   UNL     1       0.970  10.142  19.312  0.00  0.00    +0.000 N 
ATOM     23  H   UNL     1       0.751   9.707  20.194  0.00  0.00    +0.000 HD
BRANCH  20  31
ATOM     24  C   UNL     1       2.430   2.703  21.536  0.00  0.00    +0.000 C 
ATOM     25  C   UNL     1       2.610   3.817  20.543  0.00  0.00    +0.000 A 
ATOM     26  C   UNL     1       3.287   3.603  19.342  0.00  0.00    +0.000 A 
ATOM     27  C   UNL     1       3.419   4.647  18.424  0.00  0.00    +0.000 A 
ATOM     28 CL   UNL     1       4.241   4.440  16.938  0.00  0.00    +0.000 Cl
ATOM     29  C   UNL     1       2.892   5.928  18.679  0.00  0.00    +0.000 A 
ATOM     30  C   UNL     1       2.822   7.165  17.974  0.00  0.00    +0.000 A 
ATOM     31  C   UNL     1       2.140   8.105  18.741  0.00  0.00    +0.000 A 
ATOM     32  N   UNL     1       1.886   7.469  19.953  0.00  0.00    +0.000 N 
ATOM     33  C   UNL     1       1.364   8.053  21.173  0.00  0.00    +0.000 C 
ATOM     34  C   UNL     1       2.247   6.129  19.895  0.00  0.00    +0.000 A 
ATOM     35  C   UNL     1       2.080   5.087  20.830  0.00  0.00    +0.000 A 
ENDBRANCH  20  31
ENDBRANCH   1  22
TORSDOF 10
ENDMDL
