MODEL 1
REMARK VINA RESULT:      -6.2      0.000      0.000
REMARK  Name = 
REMARK  12 active torsions:
REMARK  status: ('A' for Active; 'I' for Inactive)
REMARK    1  A    between atoms: C_1  and  C_2
REMARK    2  A    between atoms: C_2  and  C_3
REMARK    3  A    between atoms: C_3  and  C_4
REMARK    4  A    between atoms: C_4  and  C_5
REMARK    5  A    between atoms: C_4  and  S_9
REMARK    6  A    between atoms: C_5  and  O_7
REMARK    7  A    between atoms: O_7  and  C_8
REMARK    8  A    between atoms: S_9  and  C_12
REMARK    9  A    between atoms: N_18  and  C_19
REMARK   10  A    between atoms: N_18  and  C_21
REMARK   11  A    between atoms: C_19  and  C_20
REMARK   12  A    between atoms: C_21  and  C_22
REMARK                            x       y       z     vdW  Elec       q    Type
REMARK                         _______ _______ _______ _____ _____    ______ ____
ROOT
ATOM      1  C   UNL     1       5.710   4.215  17.581  0.00  0.00    +0.000 A 
ATOM      2  N   UNL     1       5.155   3.720  16.417  0.00  0.00    +0.000 NA
ATOM      3  C   UNL     1       4.028   3.188  16.828  0.00  0.00    +0.000 A 
ATOM      4  N   UNL     1       3.855   3.368  18.178  0.00  0.00    +0.000 N 
ATOM      5  C   UNL     1       3.020   2.580  18.998  0.00  0.00    +0.000 C 
ATOM      6  O   UNL     1       3.293   1.386  19.084  0.00  0.00    +0.000 OA
ATOM      7  N   UNL     1       1.906   3.205  19.559  0.00  0.00    +0.000 N 
ATOM      8  N   UNL     1       4.942   4.033  18.680  0.00  0.00    +0.000 NA
ENDROOT
BRANCH   1   9
ATOM      9  S   UNL     1       7.226   5.132  17.549  0.00  0.00    +0.000 S 
ATOM     10  O   UNL     1       7.771   4.953  16.217  0.00  0.00    +0.000 OA
ATOM     11  O   UNL     1       7.944   4.629  18.713  0.00  0.00    +0.000 OA
BRANCH   9  12
ATOM     12  C   UNL     1       6.856   6.849  17.833  0.00  0.00    +0.000 C 
BRANCH  12  13
ATOM     13  C   UNL     1       5.673   7.221  16.993  0.00  0.00    +0.000 C 
ATOM     14  O   UNL     1       5.629   7.166  15.772  0.00  0.00    +0.000 OA
BRANCH  13  15
ATOM     15  O   UNL     1       4.670   7.707  17.777  0.00  0.00    +0.000 OA
ATOM     16  C   UNL     1       3.381   7.137  17.522  0.00  0.00    +0.000 C 
ENDBRANCH  13  15
ENDBRANCH  12  13
BRANCH  12  17
ATOM     17  C   UNL     1       8.097   7.710  17.497  0.00  0.00    +0.000 C 
BRANCH  17  19
ATOM     18  C   UNL     1       8.963   9.724  18.745  0.00  0.00    +0.000 C 
ATOM     19  C   UNL     1       7.938   9.218  17.733  0.00  0.00    +0.000 C 
ENDBRANCH  17  19
ENDBRANCH  12  17
ENDBRANCH   9  12
ENDBRANCH   1   9
BRANCH   7  20
ATOM     20  C   UNL     1       1.510   4.611  19.385  0.00  0.00    +0.000 C 
ATOM     21  C   UNL     1       1.966   5.521  20.525  0.00  0.00    +0.000 C 
ENDBRANCH   7  20
BRANCH   7  22
ATOM     22  C   UNL     1       1.120   2.398  20.501  0.00  0.00    +0.000 C 
ATOM     23  C   UNL     1       1.609   2.473  21.942  0.00  0.00    +0.000 C 
ENDBRANCH   7  22
TORSDOF 8
ENDMDL
MODEL 2
REMARK VINA RESULT:      -6.0      5.121      7.019
REMARK  Name = 
REMARK  12 active torsions:
REMARK  status: ('A' for Active; 'I' for Inactive)
REMARK    1  A    between atoms: C_1  and  C_2
REMARK    2  A    between atoms: C_2  and  C_3
REMARK    3  A    between atoms: C_3  and  C_4
REMARK    4  A    between atoms: C_4  and  C_5
REMARK    5  A    between atoms: C_4  and  S_9
REMARK    6  A    between atoms: C_5  and  O_7
REMARK    7  A    between atoms: O_7  and  C_8
REMARK    8  A    between atoms: S_9  and  C_12
REMARK    9  A    between atoms: N_18  and  C_19
REMARK   10  A    between atoms: N_18  and  C_21
REMARK   11  A    between atoms: C_19  and  C_20
REMARK   12  A    between atoms: C_21  and  C_22
REMARK                            x       y       z     vdW  Elec       q    Type
REMARK                         _______ _______ _______ _____ _____    ______ ____
ROOT
ATOM      1  C   UNL     1       1.678   7.997  20.250  0.00  0.00    +0.000 A 
ATOM      2  N   UNL     1       2.015   8.372  18.964  0.00  0.00    +0.000 NA
ATOM      3  C   UNL     1       2.598   7.299  18.484  0.00  0.00    +0.000 A 
ATOM      4  N   UNL     1       2.600   6.279  19.404  0.00  0.00    +0.000 N 
ATOM      5  C   UNL     1       3.491   5.185  19.396  0.00  0.00    +0.000 C 
ATOM      6  O   UNL     1       4.686   5.442  19.520  0.00  0.00    +0.000 OA
ATOM      7  N   UNL     1       2.948   3.923  19.154  0.00  0.00    +0.000 N 
ATOM      8  N   UNL     1       2.006   6.719  20.557  0.00  0.00    +0.000 NA
ENDROOT
BRANCH   1   9
ATOM      9  S   UNL     1       0.763   9.085  21.307  0.00  0.00    +0.000 S 
ATOM     10  O   UNL     1       1.645   9.399  22.414  0.00  0.00    +0.000 OA
ATOM     11  O   UNL     1      -0.479   8.359  21.537  0.00  0.00    +0.000 OA
BRANCH   9  12
ATOM     12  C   UNL     1       0.373  10.563  20.397  0.00  0.00    +0.000 C 
BRANCH  12  13
ATOM     13  C   UNL     1       0.212  11.688  21.374  0.00  0.00    +0.000 C 
ATOM     14  O   UNL     1       1.003  12.607  21.530  0.00  0.00    +0.000 OA
BRANCH  13  15
ATOM     15  O   UNL     1      -0.910  11.503  22.126  0.00  0.00    +0.000 OA
ATOM     16  C   UNL     1      -1.266  12.618  22.952  0.00  0.00    +0.000 C 
ENDBRANCH  13  15
ENDBRANCH  12  13
BRANCH  12  17
ATOM     17  C   UNL     1      -0.910  10.336  19.562  0.00  0.00    +0.000 C 
BRANCH  17  19
ATOM     18  C   UNL     1      -2.659  11.224  17.976  0.00  0.00    +0.000 C 
ATOM     19  C   UNL     1      -1.307  11.490  18.632  0.00  0.00    +0.000 C 
ENDBRANCH  17  19
ENDBRANCH  12  17
ENDBRANCH   9  12
ENDBRANCH   1   9
BRANCH   7  20
ATOM     20  C   UNL     1       1.532   3.613  18.905  0.00  0.00    +0.000 C 
ATOM     21  C   UNL     1       0.752   3.256  20.170  0.00  0.00    +0.000 C 
ENDBRANCH   7  20
BRANCH   7  22
ATOM     22  C   UNL     1       3.875   2.790  19.268  0.00  0.00    +0.000 C 
ATOM     23  C   UNL     1       3.535   1.616  18.355  0.00  0.00    +0.000 C 
ENDBRANCH   7  22
TORSDOF 8
ENDMDL
MODEL 3
REMARK VINA RESULT:      -6.0      2.928      6.702
REMARK  Name = 
REMARK  12 active torsions:
REMARK  status: ('A' for Active; 'I' for Inactive)
REMARK    1  A    between atoms: C_1  and  C_2
REMARK    2  A    between atoms: C_2  and  C_3
REMARK    3  A    between atoms: C_3  and  C_4
REMARK    4  A    between atoms: C_4  and  C_5
REMARK    5  A    between atoms: C_4  and  S_9
REMARK    6  A    between atoms: C_5  and  O_7
REMARK    7  A    between atoms: O_7  and  C_8
REMARK    8  A    between atoms: S_9  and  C_12
REMARK    9  A    between atoms: N_18  and  C_19
REMARK   10  A    between atoms: N_18  and  C_21
REMARK   11  A    between atoms: C_19  and  C_20
REMARK   12  A    between atoms: C_21  and  C_22
REMARK                            x       y       z     vdW  Elec       q    Type
REMARK                         _______ _______ _______ _____ _____    ______ ____
ROOT
ATOM      1  C   UNL     1       4.981   5.100  17.457  0.00  0.00    +0.000 A 
ATOM      2  N   UNL     1       4.611   6.344  16.984  0.00  0.00    +0.000 NA
ATOM      3  C   UNL     1       5.066   6.342  15.754  0.00  0.00    +0.000 A 
ATOM      4  N   UNL     1       5.662   5.144  15.445  0.00  0.00    +0.000 N 
ATOM      5  C   UNL     1       6.609   4.954  14.416  0.00  0.00    +0.000 C 
ATOM      6  O   UNL     1       7.664   5.577  14.511  0.00  0.00    +0.000 OA
ATOM      7  N   UNL     1       6.227   4.155  13.339  0.00  0.00    +0.000 N 
ATOM      8  N   UNL     1       5.614   4.327  16.543  0.00  0.00    +0.000 NA
ENDROOT
BRANCH   1   9
ATOM      9  S   UNL     1       4.504   4.561  19.077  0.00  0.00    +0.000 S 
ATOM     10  O   UNL     1       4.241   5.769  19.835  0.00  0.00    +0.000 OA
ATOM     11  O   UNL     1       5.589   3.669  19.464  0.00  0.00    +0.000 OA
BRANCH   9  12
ATOM     12  C   UNL     1       3.020   3.591  18.938  0.00  0.00    +0.000 C 
BRANCH  12  13
ATOM     13  C   UNL     1       2.995   2.961  17.579  0.00  0.00    +0.000 C 
ATOM     14  O   UNL     1       2.337   3.360  16.628  0.00  0.00    +0.000 OA
BRANCH  13  15
ATOM     15  O   UNL     1       3.752   1.828  17.569  0.00  0.00    +0.000 OA
ATOM     16  C   UNL     1       3.642   1.026  18.750  0.00  0.00    +0.000 C 
ENDBRANCH  13  15
ENDBRANCH  12  13
BRANCH  12  17
ATOM     17  C   UNL     1       1.785   4.492  19.180  0.00  0.00    +0.000 C 
BRANCH  17  19
ATOM     18  C   UNL     1       1.278   2.945  21.107  0.00  0.00    +0.000 C 
ATOM     19  C   UNL     1       1.135   4.365  20.564  0.00  0.00    +0.000 C 
ENDBRANCH  17  19
ENDBRANCH  12  17
ENDBRANCH   9  12
ENDBRANCH   1   9
BRANCH   7  20
ATOM     20  C   UNL     1       4.931   3.483  13.163  0.00  0.00    +0.000 C 
ATOM     21  C   UNL     1       4.533   3.291  11.700  0.00  0.00    +0.000 C 
ENDBRANCH   7  20
BRANCH   7  22
ATOM     22  C   UNL     1       7.268   3.877  12.341  0.00  0.00    +0.000 C 
ATOM     23  C   UNL     1       7.657   5.085  11.497  0.00  0.00    +0.000 C 
ENDBRANCH   7  22
TORSDOF 8
ENDMDL
MODEL 4
REMARK VINA RESULT:      -5.9      4.551      7.161
REMARK  Name = 
REMARK  12 active torsions:
REMARK  status: ('A' for Active; 'I' for Inactive)
REMARK    1  A    between atoms: C_1  and  C_2
REMARK    2  A    between atoms: C_2  and  C_3
REMARK    3  A    between atoms: C_3  and  C_4
REMARK    4  A    between atoms: C_4  and  C_5
REMARK    5  A    between atoms: C_4  and  S_9
REMARK    6  A    between atoms: C_5  and  O_7
REMARK    7  A    between atoms: O_7  and  C_8
REMARK    8  A    between atoms: S_9  and  C_12
REMARK    9  A    between atoms: N_18  and  C_19
REMARK   10  A    between atoms: N_18  and  C_21
REMARK   11  A    between atoms: C_19  and  C_20
REMARK   12  A    between atoms: C_21  and  C_22
REMARK                            x       y       z     vdW  Elec       q    Type
REMARK                         _______ _______ _______ _____ _____    ______ ____
ROOT
ATOM      1  C   UNL     1       2.052   7.751  19.419  0.00  0.00    +0.000 A 
ATOM      2  N   UNL     1       1.701   7.550  20.740  0.00  0.00    +0.000 NA
ATOM      3  C   UNL     1       0.975   8.606  21.019  0.00  0.00    +0.000 A 
ATOM      4  N   UNL     1       0.838   9.421  19.922  0.00  0.00    +0.000 N 
ATOM      5  C   UNL     1       0.518  10.795  19.971  0.00  0.00    +0.000 C 
ATOM      6  O   UNL     1       1.312  11.530  20.551  0.00  0.00    +0.000 OA
ATOM      7  N   UNL     1      -0.714  11.179  19.441  0.00  0.00    +0.000 N 
ATOM      8  N   UNL     1       1.534   8.877  18.876  0.00  0.00    +0.000 NA
ENDROOT
BRANCH   1   9
ATOM      9  S   UNL     1       2.974   6.530  18.525  0.00  0.00    +0.000 S 
ATOM     10  O   UNL     1       3.988   7.260  17.788  0.00  0.00    +0.000 OA
ATOM     11  O   UNL     1       1.941   5.785  17.818  0.00  0.00    +0.000 OA
BRANCH   9  12
ATOM     12  C   UNL     1       3.741   5.430  19.694  0.00  0.00    +0.000 C 
BRANCH  12  13
ATOM     13  C   UNL     1       5.097   5.062  19.175  0.00  0.00    +0.000 C 
ATOM     14  O   UNL     1       6.158   5.491  19.605  0.00  0.00    +0.000 OA
BRANCH  13  15
ATOM     15  O   UNL     1       4.982   4.237  18.096  0.00  0.00    +0.000 OA
ATOM     16  C   UNL     1       5.948   4.465  17.063  0.00  0.00    +0.000 C 
ENDBRANCH  13  15
ENDBRANCH  12  13
BRANCH  12  17
ATOM     17  C   UNL     1       2.845   4.185  19.900  0.00  0.00    +0.000 C 
BRANCH  17  19
ATOM     18  C   UNL     1       1.710   2.675  21.572  0.00  0.00    +0.000 C 
ATOM     19  C   UNL     1       2.117   4.111  21.249  0.00  0.00    +0.000 C 
ENDBRANCH  17  19
ENDBRANCH  12  17
ENDBRANCH   9  12
ENDBRANCH   1   9
BRANCH   7  20
ATOM     20  C   UNL     1      -1.720  10.296  18.832  0.00  0.00    +0.000 C 
ATOM     21  C   UNL     1      -1.520  10.085  17.331  0.00  0.00    +0.000 C 
ENDBRANCH   7  20
BRANCH   7  22
ATOM     22  C   UNL     1      -0.973  12.624  19.396  0.00  0.00    +0.000 C 
ATOM     23  C   UNL     1      -0.306  13.338  18.225  0.00  0.00    +0.000 C 
ENDBRANCH   7  22
TORSDOF 8
ENDMDL
MODEL 5
REMARK VINA RESULT:      -5.8      5.076      6.963
REMARK  Name = 
REMARK  12 active torsions:
REMARK  status: ('A' for Active; 'I' for Inactive)
REMARK    1  A    between atoms: C_1  and  C_2
REMARK    2  A    between atoms: C_2  and  C_3
REMARK    3  A    between atoms: C_3  and  C_4
REMARK    4  A    between atoms: C_4  and  C_5
REMARK    5  A    between atoms: C_4  and  S_9
REMARK    6  A    between atoms: C_5  and  O_7
REMARK    7  A    between atoms: O_7  and  C_8
REMARK    8  A    between atoms: S_9  and  C_12
REMARK    9  A    between atoms: N_18  and  C_19
REMARK   10  A    between atoms: N_18  and  C_21
REMARK   11  A    between atoms: C_19  and  C_20
REMARK   12  A    between atoms: C_21  and  C_22
REMARK                            x       y       z     vdW  Elec       q    Type
REMARK                         _______ _______ _______ _____ _____    ______ ____
ROOT
ATOM      1  C   UNL     1       1.630   8.104  20.235  0.00  0.00    +0.000 A 
ATOM      2  N   UNL     1       1.906   8.567  18.963  0.00  0.00    +0.000 NA
ATOM      3  C   UNL     1       2.492   7.542  18.393  0.00  0.00    +0.000 A 
ATOM      4  N   UNL     1       2.553   6.466  19.245  0.00  0.00    +0.000 N 
ATOM      5  C   UNL     1       3.467   5.396  19.132  0.00  0.00    +0.000 C 
ATOM      6  O   UNL     1       4.660   5.673  19.225  0.00  0.00    +0.000 OA
ATOM      7  N   UNL     1       2.941   4.140  18.830  0.00  0.00    +0.000 N 
ATOM      8  N   UNL     1       1.997   6.818  20.446  0.00  0.00    +0.000 NA
ENDROOT
BRANCH   1   9
ATOM      9  S   UNL     1       0.735   9.101  21.395  0.00  0.00    +0.000 S 
ATOM     10  O   UNL     1       1.661   9.382  22.474  0.00  0.00    +0.000 OA
ATOM     11  O   UNL     1      -0.471   8.323  21.642  0.00  0.00    +0.000 OA
BRANCH   9  12
ATOM     12  C   UNL     1       0.256  10.614  20.591  0.00  0.00    +0.000 C 
BRANCH  12  13
ATOM     13  C   UNL     1      -0.083  11.621  21.646  0.00  0.00    +0.000 C 
ATOM     14  O   UNL     1      -1.047  11.561  22.396  0.00  0.00    +0.000 OA
BRANCH  13  15
ATOM     15  O   UNL     1       0.794  12.663  21.604  0.00  0.00    +0.000 OA
ATOM     16  C   UNL     1       1.645  12.682  20.452  0.00  0.00    +0.000 C 
ENDBRANCH  13  15
ENDBRANCH  12  13
BRANCH  12  17
ATOM     17  C   UNL     1      -0.940  10.343  19.646  0.00  0.00    +0.000 C 
BRANCH  17  19
ATOM     18  C   UNL     1      -2.025  11.306  17.582  0.00  0.00    +0.000 C 
ATOM     19  C   UNL     1      -1.577  11.588  19.014  0.00  0.00    +0.000 C 
ENDBRANCH  17  19
ENDBRANCH  12  17
ENDBRANCH   9  12
ENDBRANCH   1   9
BRANCH   7  20
ATOM     20  C   UNL     1       1.524   3.811  18.618  0.00  0.00    +0.000 C 
ATOM     21  C   UNL     1       0.797   3.384  19.893  0.00  0.00    +0.000 C 
ENDBRANCH   7  20
BRANCH   7  22
ATOM     22  C   UNL     1       3.896   3.024  18.835  0.00  0.00    +0.000 C 
ATOM     23  C   UNL     1       4.174   2.450  20.220  0.00  0.00    +0.000 C 
ENDBRANCH   7  22
TORSDOF 8
ENDMDL
MODEL 6
REMARK VINA RESULT:      -5.8      3.137      6.546
REMARK  Name = 
REMARK  12 active torsions:
REMARK  status: ('A' for Active; 'I' for Inactive)
REMARK    1  A    between atoms: C_1  and  C_2
REMARK    2  A    between atoms: C_2  and  C_3
REMARK    3  A    between atoms: C_3  and  C_4
REMARK    4  A    between atoms: C_4  and  C_5
REMARK    5  A    between atoms: C_4  and  S_9
REMARK    6  A    between atoms: C_5  and  O_7
REMARK    7  A    between atoms: O_7  and  C_8
REMARK    8  A    between atoms: S_9  and  C_12
REMARK    9  A    between atoms: N_18  and  C_19
REMARK   10  A    between atoms: N_18  and  C_21
REMARK   11  A    between atoms: C_19  and  C_20
REMARK   12  A    between atoms: C_21  and  C_22
REMARK                            x       y       z     vdW  Elec       q    Type
REMARK                         _______ _______ _______ _____ _____    ______ ____
ROOT
ATOM      1  C   UNL     1       5.241   5.050  17.136  0.00  0.00    +0.000 A 
ATOM      2  N   UNL     1       4.922   6.301  16.644  0.00  0.00    +0.000 NA
ATOM      3  C   UNL     1       5.313   6.238  15.394  0.00  0.00    +0.000 A 
ATOM      4  N   UNL     1       5.820   4.997  15.092  0.00  0.00    +0.000 N 
ATOM      5  C   UNL     1       6.701   4.722  14.025  0.00  0.00    +0.000 C 
ATOM      6  O   UNL     1       7.794   5.282  14.048  0.00  0.00    +0.000 OA
ATOM      7  N   UNL     1       6.217   3.918  12.992  0.00  0.00    +0.000 N 
ATOM      8  N   UNL     1       5.780   4.216  16.216  0.00  0.00    +0.000 NA
ENDROOT
BRANCH   1   9
ATOM      9  S   UNL     1       4.817   4.587  18.793  0.00  0.00    +0.000 S 
ATOM     10  O   UNL     1       5.277   5.671  19.639  0.00  0.00    +0.000 OA
ATOM     11  O   UNL     1       5.393   3.255  18.924  0.00  0.00    +0.000 OA
BRANCH   9  12
ATOM     12  C   UNL     1       3.048   4.432  18.904  0.00  0.00    +0.000 C 
BRANCH  12  13
ATOM     13  C   UNL     1       2.467   5.801  19.082  0.00  0.00    +0.000 C 
ATOM     14  O   UNL     1       2.327   6.631  18.195  0.00  0.00    +0.000 OA
BRANCH  13  15
ATOM     15  O   UNL     1       2.184   6.026  20.397  0.00  0.00    +0.000 OA
ATOM     16  C   UNL     1       1.566   7.290  20.667  0.00  0.00    +0.000 C 
ENDBRANCH  13  15
ENDBRANCH  12  13
BRANCH  12  17
ATOM     17  C   UNL     1       2.681   3.492  20.077  0.00  0.00    +0.000 C 
BRANCH  17  19
ATOM     18  C   UNL     1       0.807   2.523  18.694  0.00  0.00    +0.000 C 
ATOM     19  C   UNL     1       1.924   2.215  19.688  0.00  0.00    +0.000 C 
ENDBRANCH  17  19
ENDBRANCH  12  17
ENDBRANCH   9  12
ENDBRANCH   1   9
BRANCH   7  20
ATOM     20  C   UNL     1       4.876   3.322  12.902  0.00  0.00    +0.000 C 
ATOM     21  C   UNL     1       4.224   3.487  11.529  0.00  0.00    +0.000 C 
ENDBRANCH   7  20
BRANCH   7  22
ATOM     22  C   UNL     1       7.188   3.550  11.953  0.00  0.00    +0.000 C 
ATOM     23  C   UNL     1       7.063   2.110  11.470  0.00  0.00    +0.000 C 
ENDBRANCH   7  22
TORSDOF 8
ENDMDL
MODEL 7
REMARK VINA RESULT:      -5.8      3.038      4.458
REMARK  Name = 
REMARK  12 active torsions:
REMARK  status: ('A' for Active; 'I' for Inactive)
REMARK    1  A    between atoms: C_1  and  C_2
REMARK    2  A    between atoms: C_2  and  C_3
REMARK    3  A    between atoms: C_3  and  C_4
REMARK    4  A    between atoms: C_4  and  C_5
REMARK    5  A    between atoms: C_4  and  S_9
REMARK    6  A    between atoms: C_5  and  O_7
REMARK    7  A    between atoms: O_7  and  C_8
REMARK    8  A    between atoms: S_9  and  C_12
REMARK    9  A    between atoms: N_18  and  C_19
REMARK   10  A    between atoms: N_18  and  C_21
REMARK   11  A    between atoms: C_19  and  C_20
REMARK   12  A    between atoms: C_21  and  C_22
REMARK                            x       y       z     vdW  Elec       q    Type
REMARK                         _______ _______ _______ _____ _____    ______ ____
ROOT
ATOM      1  C   UNL     1       3.904   5.523  19.073  0.00  0.00    +0.000 A 
ATOM      2  N   UNL     1       2.756   4.754  19.054  0.00  0.00    +0.000 NA
ATOM      3  C   UNL     1       1.814   5.618  19.348  0.00  0.00    +0.000 A 
ATOM      4  N   UNL     1       2.329   6.881  19.509  0.00  0.00    +0.000 N 
ATOM      5  C   UNL     1       1.707   7.921  20.232  0.00  0.00    +0.000 C 
ATOM      6  O   UNL     1       1.520   7.729  21.431  0.00  0.00    +0.000 OA
ATOM      7  N   UNL     1       1.274   9.031  19.506  0.00  0.00    +0.000 N 
ATOM      8  N   UNL     1       3.686   6.833  19.333  0.00  0.00    +0.000 NA
ENDROOT
BRANCH   1   9
ATOM      9  S   UNL     1       5.474   4.828  18.636  0.00  0.00    +0.000 S 
ATOM     10  O   UNL     1       5.187   3.530  18.058  0.00  0.00    +0.000 OA
ATOM     11  O   UNL     1       6.240   4.932  19.871  0.00  0.00    +0.000 OA
BRANCH   9  12
ATOM     12  C   UNL     1       6.242   5.881  17.425  0.00  0.00    +0.000 C 
BRANCH  12  13
ATOM     13  C   UNL     1       6.799   5.016  16.335  0.00  0.00    +0.000 C 
ATOM     14  O   UNL     1       7.904   4.493  16.343  0.00  0.00    +0.000 OA
BRANCH  13  15
ATOM     15  O   UNL     1       5.927   4.955  15.289  0.00  0.00    +0.000 OA
ATOM     16  C   UNL     1       6.465   4.373  14.096  0.00  0.00    +0.000 C 
ENDBRANCH  13  15
ENDBRANCH  12  13
BRANCH  12  17
ATOM     17  C   UNL     1       7.341   6.735  18.101  0.00  0.00    +0.000 C 
BRANCH  17  19
ATOM     18  C   UNL     1       8.465   8.981  18.335  0.00  0.00    +0.000 C 
ATOM     19  C   UNL     1       7.654   8.072  17.415  0.00  0.00    +0.000 C 
ENDBRANCH  17  19
ENDBRANCH  12  17
ENDBRANCH   9  12
ENDBRANCH   1   9
BRANCH   7  20
ATOM     20  C   UNL     1       1.402   9.232  18.055  0.00  0.00    +0.000 C 
ATOM     21  C   UNL     1       2.503  10.218  17.667  0.00  0.00    +0.000 C 
ENDBRANCH   7  20
BRANCH   7  22
ATOM     22  C   UNL     1       0.738  10.148  20.294  0.00  0.00    +0.000 C 
ATOM     23  C   UNL     1      -0.708  10.500  19.968  0.00  0.00    +0.000 C 
ENDBRANCH   7  22
TORSDOF 8
ENDMDL
MODEL 8
REMARK VINA RESULT:      -5.8      3.064      6.604
REMARK  Name = 
REMARK  12 active torsions:
REMARK  status: ('A' for Active; 'I' for Inactive)
REMARK    1  A    between atoms: C_1  and  C_2
REMARK    2  A    between atoms: C_2  and  C_3
REMARK    3  A    between atoms: C_3  and  C_4
REMARK    4  A    between atoms: C_4  and  C_5
REMARK    5  A    between atoms: C_4  and  S_9
REMARK    6  A    between atoms: C_5  and  O_7
REMARK    7  A    between atoms: O_7  and  C_8
REMARK    8  A    between atoms: S_9  and  C_12
REMARK    9  A    between atoms: N_18  and  C_19
REMARK   10  A    between atoms: N_18  and  C_21
REMARK   11  A    between atoms: C_19  and  C_20
REMARK   12  A    between atoms: C_21  and  C_22
REMARK                            x       y       z     vdW  Elec       q    Type
REMARK                         _______ _______ _______ _____ _____    ______ ____
ROOT
ATOM      1  C   UNL     1       5.305   5.266  17.144  0.00  0.00    +0.000 A 
ATOM      2  N   UNL     1       4.961   6.491  16.606  0.00  0.00    +0.000 NA
ATOM      3  C   UNL     1       5.334   6.381  15.353  0.00  0.00    +0.000 A 
ATOM      4  N   UNL     1       5.853   5.136  15.095  0.00  0.00    +0.000 N 
ATOM      5  C   UNL     1       6.721   4.828  14.025  0.00  0.00    +0.000 C 
ATOM      6  O   UNL     1       7.807   5.402  14.008  0.00  0.00    +0.000 OA
ATOM      7  N   UNL     1       6.232   3.975  13.035  0.00  0.00    +0.000 N 
ATOM      8  N   UNL     1       5.841   4.401  16.251  0.00  0.00    +0.000 NA
ENDROOT
BRANCH   1   9
ATOM      9  S   UNL     1       4.912   4.866  18.825  0.00  0.00    +0.000 S 
ATOM     10  O   UNL     1       4.638   6.131  19.480  0.00  0.00    +0.000 OA
ATOM     11  O   UNL     1       6.042   4.049  19.245  0.00  0.00    +0.000 OA
BRANCH   9  12
ATOM     12  C   UNL     1       3.459   3.842  18.840  0.00  0.00    +0.000 C 
BRANCH  12  13
ATOM     13  C   UNL     1       2.524   4.335  17.777  0.00  0.00    +0.000 C 
ATOM     14  O   UNL     1       2.012   5.445  17.747  0.00  0.00    +0.000 OA
BRANCH  13  15
ATOM     15  O   UNL     1       2.260   3.342  16.882  0.00  0.00    +0.000 OA
ATOM     16  C   UNL     1       2.829   2.070  17.215  0.00  0.00    +0.000 C 
ENDBRANCH  13  15
ENDBRANCH  12  13
BRANCH  12  17
ATOM     17  C   UNL     1       2.809   3.882  20.244  0.00  0.00    +0.000 C 
BRANCH  17  19
ATOM     18  C   UNL     1       1.338   2.656  21.885  0.00  0.00    +0.000 C 
ATOM     19  C   UNL     1       2.443   2.517  20.842  0.00  0.00    +0.000 C 
ENDBRANCH  17  19
ENDBRANCH  12  17
ENDBRANCH   9  12
ENDBRANCH   1   9
BRANCH   7  20
ATOM     20  C   UNL     1       4.898   3.358  12.991  0.00  0.00    +0.000 C 
ATOM     21  C   UNL     1       4.203   3.501  11.637  0.00  0.00    +0.000 C 
ENDBRANCH   7  20
BRANCH   7  22
ATOM     22  C   UNL     1       7.192   3.577  11.997  0.00  0.00    +0.000 C 
ATOM     23  C   UNL     1       7.039   2.133  11.532  0.00  0.00    +0.000 C 
ENDBRANCH   7  22
TORSDOF 8
ENDMDL
MODEL 9
REMARK VINA RESULT:      -5.7      4.565      7.082
REMARK  Name = 
REMARK  12 active torsions:
REMARK  status: ('A' for Active; 'I' for Inactive)
REMARK    1  A    between atoms: C_1  and  C_2
REMARK    2  A    between atoms: C_2  and  C_3
REMARK    3  A    between atoms: C_3  and  C_4
REMARK    4  A    between atoms: C_4  and  C_5
REMARK    5  A    between atoms: C_4  and  S_9
REMARK    6  A    between atoms: C_5  and  O_7
REMARK    7  A    between atoms: O_7  and  C_8
REMARK    8  A    between atoms: S_9  and  C_12
REMARK    9  A    between atoms: N_18  and  C_19
REMARK   10  A    between atoms: N_18  and  C_21
REMARK   11  A    between atoms: C_19  and  C_20
REMARK   12  A    between atoms: C_21  and  C_22
REMARK                            x       y       z     vdW  Elec       q    Type
REMARK                         _______ _______ _______ _____ _____    ______ ____
ROOT
ATOM      1  C   UNL     1       2.112   7.543  19.518  0.00  0.00    +0.000 A 
ATOM      2  N   UNL     1       1.709   7.233  20.802  0.00  0.00    +0.000 NA
ATOM      3  C   UNL     1       1.014   8.287  21.159  0.00  0.00    +0.000 A 
ATOM      4  N   UNL     1       0.946   9.207  20.141  0.00  0.00    +0.000 N 
ATOM      5  C   UNL     1       0.676  10.582  20.310  0.00  0.00    +0.000 C 
ATOM      6  O   UNL     1       1.478  11.226  20.982  0.00  0.00    +0.000 OA
ATOM      7  N   UNL     1      -0.522  11.065  19.783  0.00  0.00    +0.000 N 
ATOM      8  N   UNL     1       1.656   8.736  19.069  0.00  0.00    +0.000 NA
ENDROOT
BRANCH   1   9
ATOM      9  S   UNL     1       3.017   6.376  18.539  0.00  0.00    +0.000 S 
ATOM     10  O   UNL     1       4.089   7.127  17.916  0.00  0.00    +0.000 OA
ATOM     11  O   UNL     1       1.983   5.752  17.724  0.00  0.00    +0.000 OA
BRANCH   9  12
ATOM     12  C   UNL     1       3.689   5.132  19.619  0.00  0.00    +0.000 C 
BRANCH  12  13
ATOM     13  C   UNL     1       4.981   4.649  19.034  0.00  0.00    +0.000 C 
ATOM     14  O   UNL     1       5.087   3.933  18.048  0.00  0.00    +0.000 OA
BRANCH  13  15
ATOM     15  O   UNL     1       6.029   5.057  19.804  0.00  0.00    +0.000 OA
ATOM     16  C   UNL     1       7.114   5.643  19.075  0.00  0.00    +0.000 C 
ENDBRANCH  13  15
ENDBRANCH  12  13
BRANCH  12  17
ATOM     17  C   UNL     1       2.666   3.982  19.786  0.00  0.00    +0.000 C 
BRANCH  17  19
ATOM     18  C   UNL     1       1.564   2.641  21.616  0.00  0.00    +0.000 C 
ATOM     19  C   UNL     1       2.893   3.067  20.997  0.00  0.00    +0.000 C 
ENDBRANCH  17  19
ENDBRANCH  12  17
ENDBRANCH   9  12
ENDBRANCH   1   9
BRANCH   7  20
ATOM     20  C   UNL     1      -1.539  10.285  19.062  0.00  0.00    +0.000 C 
ATOM     21  C   UNL     1      -1.322  10.246  17.549  0.00  0.00    +0.000 C 
ENDBRANCH   7  20
BRANCH   7  22
ATOM     22  C   UNL     1      -0.724  12.517  19.868  0.00  0.00    +0.000 C 
ATOM     23  C   UNL     1      -2.163  12.927  20.162  0.00  0.00    +0.000 C 
ENDBRANCH   7  22
TORSDOF 8
ENDMDL
