MODEL 1
REMARK VINA RESULT:      -7.4      0.000      0.000
REMARK  Name = 
REMARK  12 active torsions:
REMARK  status: ('A' for Active; 'I' for Inactive)
REMARK    1  A    between atoms: C_1  and  C_2
REMARK    2  A    between atoms: C_4  and  N_5
REMARK    3  A    between atoms: C_7  and  C_8
REMARK    4  A    between atoms: C_9  and  C_10
REMARK    5  A    between atoms: C_10  and  N_11
REMARK    6  A    between atoms: C_12  and  C_14
REMARK    7  A    between atoms: N_17  and  C_18
REMARK    8  A    between atoms: C_18  and  C_19
REMARK    9  A    between atoms: C_22  and  C_23
REMARK   10  A    between atoms: C_23  and  C_24
REMARK   11  A    between atoms: C_23  and  C_25
REMARK   12  A    between atoms: C_23  and  C_26
REMARK                            x       y       z     vdW  Elec       q    Type
REMARK                         _______ _______ _______ _____ _____    ______ ____
ROOT
ATOM      1  N   UNL     1       4.160   6.285  19.040  0.00  0.00    +0.000 N 
ATOM      2  C   UNL     1       2.796   6.238  19.252  0.00  0.00    +0.000 C 
ATOM      3  O   UNL     1       2.139   5.199  19.265  0.00  0.00    +0.000 OA
ATOM      4  H   UNL     1       4.632   7.132  19.335  0.00  0.00    +0.000 HD
ENDROOT
BRANCH   2   5
ATOM      5  C   UNL     1       2.209   7.536  19.493  0.00  0.00    +0.000 A 
ATOM      6  C   UNL     1       1.396   7.957  20.577  0.00  0.00    +0.000 A 
ATOM      7  N   UNL     1       1.017   9.237  20.484  0.00  0.00    +0.000 NA
ATOM      8  N   UNL     1       1.528   9.634  19.298  0.00  0.00    +0.000 N 
ATOM      9  C   UNL     1       2.268   8.660  18.683  0.00  0.00    +0.000 A 
BRANCH   8  10
ATOM     10  C   UNL     1       1.278  10.976  18.783  0.00  0.00    +0.000 C 
BRANCH  10  11
ATOM     11  C   UNL     1      -0.185  11.283  18.816  0.00  0.00    +0.000 A 
ATOM     12  C   UNL     1      -0.809  12.148  19.693  0.00  0.00    +0.000 A 
ATOM     13  S   UNL     1      -2.488  12.175  19.409  0.00  0.00    +0.000 S 
ATOM     14  C   UNL     1      -2.288  11.066  18.095  0.00  0.00    +0.000 A 
ATOM     15  N   UNL     1      -1.040  10.680  17.896  0.00  0.00    +0.000 NA
BRANCH  14  16
ATOM     16  C   UNL     1      -3.491  10.613  17.264  0.00  0.00    +0.000 C 
ATOM     17  C   UNL     1      -3.096  10.467  15.782  0.00  0.00    +0.000 C 
ATOM     18  C   UNL     1      -3.999   9.244  17.763  0.00  0.00    +0.000 C 
ATOM     19  C   UNL     1      -4.650  11.621  17.385  0.00  0.00    +0.000 C 
ENDBRANCH  14  16
ENDBRANCH  10  11
ENDBRANCH   8  10
ENDBRANCH   2   5
BRANCH   1  20
ATOM     20  C   UNL     1       4.971   5.108  18.823  0.00  0.00    +0.000 C 
BRANCH  20  28
ATOM     21  C   UNL     1       3.700   3.581  16.527  0.00  0.00    +0.000 C 
ATOM     22  C   UNL     1       4.992   4.336  16.385  0.00  0.00    +0.000 A 
ATOM     23  C   UNL     1       5.619   4.313  15.132  0.00  0.00    +0.000 A 
ATOM     24  C   UNL     1       6.817   4.975  14.944  0.00  0.00    +0.000 A 
ATOM     25  N   UNL     1       7.404   5.673  15.925  0.00  0.00    +0.000 NA
ATOM     26  C   UNL     1       6.797   5.722  17.145  0.00  0.00    +0.000 A 
ATOM     27  C   UNL     1       7.517   6.564  18.160  0.00  0.00    +0.000 C 
ATOM     28  C   UNL     1       5.589   5.059  17.440  0.00  0.00    +0.000 A 
BRANCH  24  29
ATOM     29  N   UNL     1       7.394   5.020  13.677  0.00  0.00    +0.000 N 
ATOM     30  H   UNL     1       6.716   5.023  12.927  0.00  0.00    +0.000 HD
ATOM     31  H   UNL     1       8.075   4.269  13.606  0.00  0.00    +0.000 HD
ENDBRANCH  24  29
ENDBRANCH  20  28
ENDBRANCH   1  20
TORSDOF 7
ENDMDL
MODEL 2
REMARK VINA RESULT:      -7.3      2.052      2.688
REMARK  Name = 
REMARK  12 active torsions:
REMARK  status: ('A' for Active; 'I' for Inactive)
REMARK    1  A    between atoms: C_1  and  C_2
REMARK    2  A    between atoms: C_4  and  N_5
REMARK    3  A    between atoms: C_7  and  C_8
REMARK    4  A    between atoms: C_9  and  C_10
REMARK    5  A    between atoms: C_10  and  N_11
REMARK    6  A    between atoms: C_12  and  C_14
REMARK    7  A    between atoms: N_17  and  C_18
REMARK    8  A    between atoms: C_18  and  C_19
REMARK    9  A    between atoms: C_22  and  C_23
REMARK   10  A    between atoms: C_23  and  C_24
REMARK   11  A    between atoms: C_23  and  C_25
REMARK   12  A    between atoms: C_23  and  C_26
REMARK                            x       y       z     vdW  Elec       q    Type
REMARK                         _______ _______ _______ _____ _____    ______ ____
ROOT
ATOM      1  N   UNL     1       4.174   6.344  19.315  0.00  0.00    +0.000 N 
ATOM      2  C   UNL     1       2.851   6.149  19.661  0.00  0.00    +0.000 C 
ATOM      3  O   UNL     1       2.345   5.044  19.840  0.00  0.00    +0.000 OA
ATOM      4  H   UNL     1       4.550   7.271  19.476  0.00  0.00    +0.000 HD
ENDROOT
BRANCH   2   5
ATOM      5  C   UNL     1       2.116   7.382  19.827  0.00  0.00    +0.000 A 
ATOM      6  C   UNL     1       1.440   7.866  20.977  0.00  0.00    +0.000 A 
ATOM      7  N   UNL     1       0.854   9.053  20.780  0.00  0.00    +0.000 NA
ATOM      8  N   UNL     1       1.090   9.313  19.475  0.00  0.00    +0.000 N 
ATOM      9  C   UNL     1       1.860   8.355  18.873  0.00  0.00    +0.000 A 
BRANCH   8  10
ATOM     10  C   UNL     1       0.548  10.507  18.836  0.00  0.00    +0.000 C 
BRANCH  10  11
ATOM     11  C   UNL     1       0.225  11.546  19.861  0.00  0.00    +0.000 A 
ATOM     12  C   UNL     1       1.098  12.500  20.348  0.00  0.00    +0.000 A 
ATOM     13  S   UNL     1       0.333  13.459  21.529  0.00  0.00    +0.000 S 
ATOM     14  C   UNL     1      -1.141  12.583  21.293  0.00  0.00    +0.000 A 
ATOM     15  N   UNL     1      -1.058  11.613  20.399  0.00  0.00    +0.000 NA
BRANCH  14  16
ATOM     16  C   UNL     1      -2.403  12.951  22.075  0.00  0.00    +0.000 C 
ATOM     17  C   UNL     1      -2.608  11.980  23.253  0.00  0.00    +0.000 C 
ATOM     18  C   UNL     1      -2.278  14.380  22.648  0.00  0.00    +0.000 C 
ATOM     19  C   UNL     1      -3.643  12.914  21.162  0.00  0.00    +0.000 C 
ENDBRANCH  14  16
ENDBRANCH  10  11
ENDBRANCH   8  10
ENDBRANCH   2   5
BRANCH   1  20
ATOM     20  C   UNL     1       5.116   5.262  19.139  0.00  0.00    +0.000 C 
BRANCH  20  28
ATOM     21  C   UNL     1       3.732   3.677  16.949  0.00  0.00    +0.000 C 
ATOM     22  C   UNL     1       5.016   4.425  16.724  0.00  0.00    +0.000 A 
ATOM     23  C   UNL     1       5.581   4.368  15.442  0.00  0.00    +0.000 A 
ATOM     24  C   UNL     1       6.768   5.022  15.178  0.00  0.00    +0.000 A 
ATOM     25  N   UNL     1       7.404   5.744  16.109  0.00  0.00    +0.000 NA
ATOM     26  C   UNL     1       6.857   5.827  17.356  0.00  0.00    +0.000 A 
ATOM     27  C   UNL     1       7.628   6.694  18.312  0.00  0.00    +0.000 C 
ATOM     28  C   UNL     1       5.666   5.174  17.729  0.00  0.00    +0.000 A 
BRANCH  24  29
ATOM     29  N   UNL     1       7.282   5.032  13.883  0.00  0.00    +0.000 N 
ATOM     30  H   UNL     1       7.032   5.860  13.358  0.00  0.00    +0.000 HD
ATOM     31  H   UNL     1       7.018   4.165  13.424  0.00  0.00    +0.000 HD
ENDBRANCH  24  29
ENDBRANCH  20  28
ENDBRANCH   1  20
TORSDOF 7
ENDMDL
MODEL 3
REMARK VINA RESULT:      -7.3      3.284      4.413
REMARK  Name = 
REMARK  12 active torsions:
REMARK  status: ('A' for Active; 'I' for Inactive)
REMARK    1  A    between atoms: C_1  and  C_2
REMARK    2  A    between atoms: C_4  and  N_5
REMARK    3  A    between atoms: C_7  and  C_8
REMARK    4  A    between atoms: C_9  and  C_10
REMARK    5  A    between atoms: C_10  and  N_11
REMARK    6  A    between atoms: C_12  and  C_14
REMARK    7  A    between atoms: N_17  and  C_18
REMARK    8  A    between atoms: C_18  and  C_19
REMARK    9  A    between atoms: C_22  and  C_23
REMARK   10  A    between atoms: C_23  and  C_24
REMARK   11  A    between atoms: C_23  and  C_25
REMARK   12  A    between atoms: C_23  and  C_26
REMARK                            x       y       z     vdW  Elec       q    Type
REMARK                         _______ _______ _______ _____ _____    ______ ____
ROOT
ATOM      1  N   UNL     1       2.455   7.369  18.456  0.00  0.00    +0.000 N 
ATOM      2  C   UNL     1       2.076   8.667  18.171  0.00  0.00    +0.000 C 
ATOM      3  O   UNL     1       2.474   9.299  17.196  0.00  0.00    +0.000 OA
ATOM      4  H   UNL     1       1.860   6.857  19.095  0.00  0.00    +0.000 HD
ENDROOT
BRANCH   2   5
ATOM      5  C   UNL     1       1.130   9.208  19.119  0.00  0.00    +0.000 A 
ATOM      6  C   UNL     1      -0.066   9.929  18.870  0.00  0.00    +0.000 A 
ATOM      7  N   UNL     1      -0.707  10.288  19.989  0.00  0.00    +0.000 NA
ATOM      8  N   UNL     1       0.111   9.858  20.975  0.00  0.00    +0.000 N 
ATOM      9  C   UNL     1       1.206   9.186  20.504  0.00  0.00    +0.000 A 
BRANCH   8  10
ATOM     10  C   UNL     1      -0.200  10.119  22.377  0.00  0.00    +0.000 C 
BRANCH  10  11
ATOM     11  C   UNL     1      -0.878  11.443  22.523  0.00  0.00    +0.000 A 
ATOM     12  C   UNL     1      -0.343  12.668  22.173  0.00  0.00    +0.000 A 
ATOM     13  S   UNL     1      -1.436  13.921  22.542  0.00  0.00    +0.000 S 
ATOM     14  C   UNL     1      -2.587  12.758  23.105  0.00  0.00    +0.000 A 
ATOM     15  N   UNL     1      -2.169  11.506  23.043  0.00  0.00    +0.000 NA
BRANCH  14  16
ATOM     16  C   UNL     1      -3.961  13.201  23.612  0.00  0.00    +0.000 C 
ATOM     17  C   UNL     1      -5.022  13.034  22.508  0.00  0.00    +0.000 C 
ATOM     18  C   UNL     1      -4.387  12.339  24.821  0.00  0.00    +0.000 C 
ATOM     19  C   UNL     1      -3.928  14.673  24.068  0.00  0.00    +0.000 C 
ENDBRANCH  14  16
ENDBRANCH  10  11
ENDBRANCH   8  10
ENDBRANCH   2   5
BRANCH   1  20
ATOM     20  C   UNL     1       3.357   6.605  17.623  0.00  0.00    +0.000 C 
BRANCH  20  28
ATOM     21  C   UNL     1       1.417   4.277  17.824  0.00  0.00    +0.000 C 
ATOM     22  C   UNL     1       2.830   4.204  18.330  0.00  0.00    +0.000 A 
ATOM     23  C   UNL     1       3.244   3.001  18.920  0.00  0.00    +0.000 A 
ATOM     24  C   UNL     1       4.526   2.878  19.417  0.00  0.00    +0.000 A 
ATOM     25  N   UNL     1       5.418   3.874  19.336  0.00  0.00    +0.000 NA
ATOM     26  C   UNL     1       5.038   5.043  18.747  0.00  0.00    +0.000 A 
ATOM     27  C   UNL     1       6.126   6.078  18.671  0.00  0.00    +0.000 C 
ATOM     28  C   UNL     1       3.746   5.274  18.235  0.00  0.00    +0.000 A 
BRANCH  24  29
ATOM     29  N   UNL     1       4.958   1.656  19.927  0.00  0.00    +0.000 N 
ATOM     30  H   UNL     1       5.497   1.113  19.265  0.00  0.00    +0.000 HD
ATOM     31  H   UNL     1       4.155   1.159  20.301  0.00  0.00    +0.000 HD
ENDBRANCH  24  29
ENDBRANCH  20  28
ENDBRANCH   1  20
TORSDOF 7
ENDMDL
MODEL 4
REMARK VINA RESULT:      -7.2      3.387      9.469
REMARK  Name = 
REMARK  12 active torsions:
REMARK  status: ('A' for Active; 'I' for Inactive)
REMARK    1  A    between atoms: C_1  and  C_2
REMARK    2  A    between atoms: C_4  and  N_5
REMARK    3  A    between atoms: C_7  and  C_8
REMARK    4  A    between atoms: C_9  and  C_10
REMARK    5  A    between atoms: C_10  and  N_11
REMARK    6  A    between atoms: C_12  and  C_14
REMARK    7  A    between atoms: N_17  and  C_18
REMARK    8  A    between atoms: C_18  and  C_19
REMARK    9  A    between atoms: C_22  and  C_23
REMARK   10  A    between atoms: C_23  and  C_24
REMARK   11  A    between atoms: C_23  and  C_25
REMARK   12  A    between atoms: C_23  and  C_26
REMARK                            x       y       z     vdW  Elec       q    Type
REMARK                         _______ _______ _______ _____ _____    ______ ____
ROOT
ATOM      1  N   UNL     1      -0.441  11.187  18.173  0.00  0.00    +0.000 N 
ATOM      2  C   UNL     1       0.279  10.839  19.300  0.00  0.00    +0.000 C 
ATOM      3  O   UNL     1       0.222  11.450  20.365  0.00  0.00    +0.000 OA
ATOM      4  H   UNL     1      -0.543  10.468  17.466  0.00  0.00    +0.000 HD
ENDROOT
BRANCH   2   5
ATOM      5  C   UNL     1       1.090   9.658  19.119  0.00  0.00    +0.000 A 
ATOM      6  C   UNL     1       1.395   8.637  20.056  0.00  0.00    +0.000 A 
ATOM      7  N   UNL     1       2.186   7.681  19.553  0.00  0.00    +0.000 NA
ATOM      8  N   UNL     1       2.455   8.117  18.302  0.00  0.00    +0.000 N 
ATOM      9  C   UNL     1       1.802   9.279  17.991  0.00  0.00    +0.000 A 
BRANCH   8  10
ATOM     10  C   UNL     1       3.357   7.377  17.426  0.00  0.00    +0.000 C 
BRANCH  10  11
ATOM     11  C   UNL     1       3.740   6.075  18.052  0.00  0.00    +0.000 A 
ATOM     12  C   UNL     1       5.000   5.737  18.507  0.00  0.00    +0.000 A 
ATOM     13  S   UNL     1       5.006   4.144  19.112  0.00  0.00    +0.000 S 
ATOM     14  C   UNL     1       3.314   4.006  18.779  0.00  0.00    +0.000 A 
ATOM     15  N   UNL     1       2.780   5.081  18.226  0.00  0.00    +0.000 NA
BRANCH  14  16
ATOM     16  C   UNL     1       2.551   2.726  19.127  0.00  0.00    +0.000 C 
ATOM     17  C   UNL     1       3.283   1.493  18.563  0.00  0.00    +0.000 C 
ATOM     18  C   UNL     1       2.449   2.565  20.659  0.00  0.00    +0.000 C 
ATOM     19  C   UNL     1       1.119   2.771  18.560  0.00  0.00    +0.000 C 
ENDBRANCH  14  16
ENDBRANCH  10  11
ENDBRANCH   8  10
ENDBRANCH   2   5
BRANCH   1  20
ATOM     20  C   UNL     1      -1.356  12.305  18.128  0.00  0.00    +0.000 C 
BRANCH  20  28
ATOM     21  C   UNL     1      -2.689  10.904  15.787  0.00  0.00    +0.000 C 
ATOM     22  C   UNL     1      -3.420  11.243  17.056  0.00  0.00    +0.000 A 
ATOM     23  C   UNL     1      -4.775  10.891  17.133  0.00  0.00    +0.000 A 
ATOM     24  C   UNL     1      -5.504  11.190  18.267  0.00  0.00    +0.000 A 
ATOM     25  N   UNL     1      -4.953  11.793  19.328  0.00  0.00    +0.000 NA
ATOM     26  C   UNL     1      -3.631  12.123  19.277  0.00  0.00    +0.000 A 
ATOM     27  C   UNL     1      -3.103  12.757  20.534  0.00  0.00    +0.000 C 
ATOM     28  C   UNL     1      -2.811  11.884  18.156  0.00  0.00    +0.000 A 
BRANCH  24  29
ATOM     29  N   UNL     1      -6.827  10.766  18.374  0.00  0.00    +0.000 N 
ATOM     30  H   UNL     1      -7.457  11.493  18.686  0.00  0.00    +0.000 HD
ATOM     31  H   UNL     1      -6.853   9.930  18.950  0.00  0.00    +0.000 HD
ENDBRANCH  24  29
ENDBRANCH  20  28
ENDBRANCH   1  20
TORSDOF 7
ENDMDL
MODEL 5
REMARK VINA RESULT:      -7.2      3.209      9.896
REMARK  Name = 
REMARK  12 active torsions:
REMARK  status: ('A' for Active; 'I' for Inactive)
REMARK    1  A    between atoms: C_1  and  C_2
REMARK    2  A    between atoms: C_4  and  N_5
REMARK    3  A    between atoms: C_7  and  C_8
REMARK    4  A    between atoms: C_9  and  C_10
REMARK    5  A    between atoms: C_10  and  N_11
REMARK    6  A    between atoms: C_12  and  C_14
REMARK    7  A    between atoms: N_17  and  C_18
REMARK    8  A    between atoms: C_18  and  C_19
REMARK    9  A    between atoms: C_22  and  C_23
REMARK   10  A    between atoms: C_23  and  C_24
REMARK   11  A    between atoms: C_23  and  C_25
REMARK   12  A    between atoms: C_23  and  C_26
REMARK                            x       y       z     vdW  Elec       q    Type
REMARK                         _______ _______ _______ _____ _____    ______ ____
ROOT
ATOM      1  N   UNL     1      -0.426  10.842  18.095  0.00  0.00    +0.000 N 
ATOM      2  C   UNL     1       0.712  10.750  18.874  0.00  0.00    +0.000 C 
ATOM      3  O   UNL     1       1.161  11.677  19.543  0.00  0.00    +0.000 OA
ATOM      4  H   UNL     1      -0.860   9.967  17.828  0.00  0.00    +0.000 HD
ENDROOT
BRANCH   2   5
ATOM      5  C   UNL     1       1.314   9.436  18.854  0.00  0.00    +0.000 A 
ATOM      6  C   UNL     1       1.842   8.717  17.751  0.00  0.00    +0.000 A 
ATOM      7  N   UNL     1       2.324   7.515  18.090  0.00  0.00    +0.000 NA
ATOM      8  N   UNL     1       2.047   7.422  19.409  0.00  0.00    +0.000 N 
ATOM      9  C   UNL     1       1.467   8.555  19.913  0.00  0.00    +0.000 A 
BRANCH   8  10
ATOM     10  C   UNL     1       2.358   6.209  20.159  0.00  0.00    +0.000 C 
BRANCH  10  11
ATOM     11  C   UNL     1       3.457   5.450  19.490  0.00  0.00    +0.000 A 
ATOM     12  C   UNL     1       3.392   4.134  19.072  0.00  0.00    +0.000 A 
ATOM     13  S   UNL     1       4.878   3.651  18.394  0.00  0.00    +0.000 S 
ATOM     14  C   UNL     1       5.516   5.240  18.648  0.00  0.00    +0.000 A 
ATOM     15  N   UNL     1       4.673   6.077  19.229  0.00  0.00    +0.000 NA
BRANCH  14  16
ATOM     16  C   UNL     1       6.939   5.590  18.208  0.00  0.00    +0.000 C 
ATOM     17  C   UNL     1       7.495   4.502  17.270  0.00  0.00    +0.000 C 
ATOM     18  C   UNL     1       6.946   6.932  17.444  0.00  0.00    +0.000 C 
ATOM     19  C   UNL     1       7.868   5.735  19.428  0.00  0.00    +0.000 C 
ENDBRANCH  14  16
ENDBRANCH  10  11
ENDBRANCH   8  10
ENDBRANCH   2   5
BRANCH   1  20
ATOM     20  C   UNL     1      -1.223  12.043  17.994  0.00  0.00    +0.000 C 
BRANCH  20  28
ATOM     21  C   UNL     1      -2.908  12.702  20.433  0.00  0.00    +0.000 C 
ATOM     22  C   UNL     1      -3.482  12.077  19.193  0.00  0.00    +0.000 A 
ATOM     23  C   UNL     1      -4.855  11.790  19.190  0.00  0.00    +0.000 A 
ATOM     24  C   UNL     1      -5.437  11.201  18.086  0.00  0.00    +0.000 A 
ATOM     25  N   UNL     1      -4.735  10.907  16.984  0.00  0.00    +0.000 NA
ATOM     26  C   UNL     1      -3.403  11.198  16.962  0.00  0.00    +0.000 A 
ATOM     27  C   UNL     1      -2.718  10.867  15.665  0.00  0.00    +0.000 C 
ATOM     28  C   UNL     1      -2.714  11.774  18.048  0.00  0.00    +0.000 A 
BRANCH  24  29
ATOM     29  N   UNL     1      -6.814  10.994  18.055  0.00  0.00    +0.000 N 
ATOM     30  H   UNL     1      -7.350  11.825  18.270  0.00  0.00    +0.000 HD
ATOM     31  H   UNL     1      -7.036  10.203  18.652  0.00  0.00    +0.000 HD
ENDBRANCH  24  29
ENDBRANCH  20  28
ENDBRANCH   1  20
TORSDOF 7
ENDMDL
MODEL 6
REMARK VINA RESULT:      -7.2      1.576      2.345
REMARK  Name = 
REMARK  12 active torsions:
REMARK  status: ('A' for Active; 'I' for Inactive)
REMARK    1  A    between atoms: C_1  and  C_2
REMARK    2  A    between atoms: C_4  and  N_5
REMARK    3  A    between atoms: C_7  and  C_8
REMARK    4  A    between atoms: C_9  and  C_10
REMARK    5  A    between atoms: C_10  and  N_11
REMARK    6  A    between atoms: C_12  and  C_14
REMARK    7  A    between atoms: N_17  and  C_18
REMARK    8  A    between atoms: C_18  and  C_19
REMARK    9  A    between atoms: C_22  and  C_23
REMARK   10  A    between atoms: C_23  and  C_24
REMARK   11  A    between atoms: C_23  and  C_25
REMARK   12  A    between atoms: C_23  and  C_26
REMARK                            x       y       z     vdW  Elec       q    Type
REMARK                         _______ _______ _______ _____ _____    ______ ____
ROOT
ATOM      1  N   UNL     1       3.586   6.038  19.667  0.00  0.00    +0.000 N 
ATOM      2  C   UNL     1       2.282   6.105  20.119  0.00  0.00    +0.000 C 
ATOM      3  O   UNL     1       1.617   5.123  20.443  0.00  0.00    +0.000 OA
ATOM      4  H   UNL     1       4.121   6.897  19.708  0.00  0.00    +0.000 HD
ENDROOT
BRANCH   2   5
ATOM      5  C   UNL     1       1.775   7.455  20.207  0.00  0.00    +0.000 A 
ATOM      6  C   UNL     1       1.033   8.060  21.253  0.00  0.00    +0.000 A 
ATOM      7  N   UNL     1       0.719   9.337  21.005  0.00  0.00    +0.000 NA
ATOM      8  N   UNL     1       1.200   9.546  19.760  0.00  0.00    +0.000 N 
ATOM      9  C   UNL     1       1.860   8.459  19.254  0.00  0.00    +0.000 A 
BRANCH   8  10
ATOM     10  C   UNL     1       0.999  10.822  19.081  0.00  0.00    +0.000 C 
BRANCH  10  11
ATOM     11  C   UNL     1      -0.447  11.198  19.094  0.00  0.00    +0.000 A 
ATOM     12  C   UNL     1      -1.381  10.852  18.136  0.00  0.00    +0.000 A 
ATOM     13  S   UNL     1      -2.901  11.518  18.519  0.00  0.00    +0.000 S 
ATOM     14  C   UNL     1      -2.245  12.194  19.970  0.00  0.00    +0.000 A 
ATOM     15  N   UNL     1      -0.957  11.955  20.147  0.00  0.00    +0.000 NA
BRANCH  14  16
ATOM     16  C   UNL     1      -3.131  12.985  20.935  0.00  0.00    +0.000 C 
ATOM     17  C   UNL     1      -2.881  12.535  22.387  0.00  0.00    +0.000 C 
ATOM     18  C   UNL     1      -2.812  14.493  20.838  0.00  0.00    +0.000 C 
ATOM     19  C   UNL     1      -4.621  12.793  20.591  0.00  0.00    +0.000 C 
ENDBRANCH  14  16
ENDBRANCH  10  11
ENDBRANCH   8  10
ENDBRANCH   2   5
BRANCH   1  20
ATOM     20  C   UNL     1       4.319   4.798  19.540  0.00  0.00    +0.000 C 
BRANCH  20  28
ATOM     21  C   UNL     1       2.848   3.614  17.163  0.00  0.00    +0.000 C 
ATOM     22  C   UNL     1       4.279   4.068  17.090  0.00  0.00    +0.000 A 
ATOM     23  C   UNL     1       4.940   3.923  15.862  0.00  0.00    +0.000 A 
ATOM     24  C   UNL     1       6.261   4.307  15.737  0.00  0.00    +0.000 A 
ATOM     25  N   UNL     1       6.943   4.847  16.755  0.00  0.00    +0.000 NA
ATOM     26  C   UNL     1       6.308   5.015  17.950  0.00  0.00    +0.000 A 
ATOM     27  C   UNL     1       7.149   5.667  19.012  0.00  0.00    +0.000 C 
ATOM     28  C   UNL     1       4.973   4.630  18.183  0.00  0.00    +0.000 A 
BRANCH  24  29
ATOM     29  N   UNL     1       6.889   4.238  14.496  0.00  0.00    +0.000 N 
ATOM     30  H   UNL     1       7.481   3.424  14.391  0.00  0.00    +0.000 HD
ATOM     31  H   UNL     1       7.372   5.116  14.329  0.00  0.00    +0.000 HD
ENDBRANCH  24  29
ENDBRANCH  20  28
ENDBRANCH   1  20
TORSDOF 7
ENDMDL
MODEL 7
REMARK VINA RESULT:      -7.1      1.647      2.839
REMARK  Name = 
REMARK  12 active torsions:
REMARK  status: ('A' for Active; 'I' for Inactive)
REMARK    1  A    between atoms: C_1  and  C_2
REMARK    2  A    between atoms: C_4  and  N_5
REMARK    3  A    between atoms: C_7  and  C_8
REMARK    4  A    between atoms: C_9  and  C_10
REMARK    5  A    between atoms: C_10  and  N_11
REMARK    6  A    between atoms: C_12  and  C_14
REMARK    7  A    between atoms: N_17  and  C_18
REMARK    8  A    between atoms: C_18  and  C_19
REMARK    9  A    between atoms: C_22  and  C_23
REMARK   10  A    between atoms: C_23  and  C_24
REMARK   11  A    between atoms: C_23  and  C_25
REMARK   12  A    between atoms: C_23  and  C_26
REMARK                            x       y       z     vdW  Elec       q    Type
REMARK                         _______ _______ _______ _____ _____    ______ ____
ROOT
ATOM      1  N   UNL     1       3.615   6.043  19.627  0.00  0.00    +0.000 N 
ATOM      2  C   UNL     1       2.330   6.143  20.124  0.00  0.00    +0.000 C 
ATOM      3  O   UNL     1       1.680   5.189  20.544  0.00  0.00    +0.000 OA
ATOM      4  H   UNL     1       4.149   6.902  19.585  0.00  0.00    +0.000 HD
ENDROOT
BRANCH   2   5
ATOM      5  C   UNL     1       1.825   7.497  20.135  0.00  0.00    +0.000 A 
ATOM      6  C   UNL     1       1.142   8.183  21.172  0.00  0.00    +0.000 A 
ATOM      7  N   UNL     1       0.809   9.437  20.842  0.00  0.00    +0.000 NA
ATOM      8  N   UNL     1       1.217   9.547  19.559  0.00  0.00    +0.000 N 
ATOM      9  C   UNL     1       1.850   8.423  19.103  0.00  0.00    +0.000 A 
BRANCH   8  10
ATOM     10  C   UNL     1       0.973  10.766  18.794  0.00  0.00    +0.000 C 
BRANCH  10  11
ATOM     11  C   UNL     1      -0.470  11.149  18.869  0.00  0.00    +0.000 A 
ATOM     12  C   UNL     1      -1.459  10.745  17.994  0.00  0.00    +0.000 A 
ATOM     13  S   UNL     1      -2.953  11.442  18.422  0.00  0.00    +0.000 S 
ATOM     14  C   UNL     1      -2.211  12.208  19.785  0.00  0.00    +0.000 A 
ATOM     15  N   UNL     1      -0.915  11.975  19.899  0.00  0.00    +0.000 NA
BRANCH  14  16
ATOM     16  C   UNL     1      -3.037  13.064  20.747  0.00  0.00    +0.000 C 
ATOM     17  C   UNL     1      -2.940  12.508  22.181  0.00  0.00    +0.000 C 
ATOM     18  C   UNL     1      -2.509  14.515  20.758  0.00  0.00    +0.000 C 
ATOM     19  C   UNL     1      -4.515  13.101  20.314  0.00  0.00    +0.000 C 
ENDBRANCH  14  16
ENDBRANCH  10  11
ENDBRANCH   8  10
ENDBRANCH   2   5
BRANCH   1  20
ATOM     20  C   UNL     1       4.345   4.797  19.561  0.00  0.00    +0.000 C 
BRANCH  20  28
ATOM     21  C   UNL     1       7.224   5.525  18.927  0.00  0.00    +0.000 C 
ATOM     22  C   UNL     1       6.304   4.896  17.919  0.00  0.00    +0.000 A 
ATOM     23  C   UNL     1       6.819   4.651  16.639  0.00  0.00    +0.000 A 
ATOM     24  C   UNL     1       6.017   4.090  15.665  0.00  0.00    +0.000 A 
ATOM     25  N   UNL     1       4.747   3.740  15.905  0.00  0.00    +0.000 NA
ATOM     26  C   UNL     1       4.236   3.953  17.152  0.00  0.00    +0.000 A 
ATOM     27  C   UNL     1       2.818   3.487  17.326  0.00  0.00    +0.000 C 
ATOM     28  C   UNL     1       4.967   4.543  18.202  0.00  0.00    +0.000 A 
BRANCH  24  29
ATOM     29  N   UNL     1       6.556   3.773  14.420  0.00  0.00    +0.000 N 
ATOM     30  H   UNL     1       6.768   4.585  13.855  0.00  0.00    +0.000 HD
ATOM     31  H   UNL     1       5.939   3.109  13.961  0.00  0.00    +0.000 HD
ENDBRANCH  24  29
ENDBRANCH  20  28
ENDBRANCH   1  20
TORSDOF 7
ENDMDL
MODEL 8
REMARK VINA RESULT:      -7.1      2.078      3.411
REMARK  Name = 
REMARK  12 active torsions:
REMARK  status: ('A' for Active; 'I' for Inactive)
REMARK    1  A    between atoms: C_1  and  C_2
REMARK    2  A    between atoms: C_4  and  N_5
REMARK    3  A    between atoms: C_7  and  C_8
REMARK    4  A    between atoms: C_9  and  C_10
REMARK    5  A    between atoms: C_10  and  N_11
REMARK    6  A    between atoms: C_12  and  C_14
REMARK    7  A    between atoms: N_17  and  C_18
REMARK    8  A    between atoms: C_18  and  C_19
REMARK    9  A    between atoms: C_22  and  C_23
REMARK   10  A    between atoms: C_23  and  C_24
REMARK   11  A    between atoms: C_23  and  C_25
REMARK   12  A    between atoms: C_23  and  C_26
REMARK                            x       y       z     vdW  Elec       q    Type
REMARK                         _______ _______ _______ _____ _____    ______ ____
ROOT
ATOM      1  N   UNL     1       4.099   6.152  19.271  0.00  0.00    +0.000 N 
ATOM      2  C   UNL     1       2.787   5.968  19.661  0.00  0.00    +0.000 C 
ATOM      3  O   UNL     1       2.279   4.867  19.860  0.00  0.00    +0.000 OA
ATOM      4  H   UNL     1       4.486   7.076  19.418  0.00  0.00    +0.000 HD
ENDROOT
BRANCH   2   5
ATOM      5  C   UNL     1       2.066   7.206  19.847  0.00  0.00    +0.000 A 
ATOM      6  C   UNL     1       1.834   8.249  18.914  0.00  0.00    +0.000 A 
ATOM      7  N   UNL     1       1.125   9.263  19.425  0.00  0.00    +0.000 NA
ATOM      8  N   UNL     1       0.952   8.911  20.718  0.00  0.00    +0.000 N 
ATOM      9  C   UNL     1       1.475   7.680  21.009  0.00  0.00    +0.000 A 
BRANCH   8  10
ATOM     10  C   UNL     1       0.271   9.798  21.654  0.00  0.00    +0.000 C 
BRANCH  10  11
ATOM     11  C   UNL     1       0.055  11.142  21.036  0.00  0.00    +0.000 A 
ATOM     12  C   UNL     1      -1.120  11.587  20.462  0.00  0.00    +0.000 A 
ATOM     13  S   UNL     1      -0.921  13.162  19.845  0.00  0.00    +0.000 S 
ATOM     14  C   UNL     1       0.711  13.187  20.421  0.00  0.00    +0.000 A 
ATOM     15  N   UNL     1       1.092  12.072  21.019  0.00  0.00    +0.000 NA
BRANCH  14  16
ATOM     16  C   UNL     1       1.588  14.427  20.232  0.00  0.00    +0.000 C 
ATOM     17  C   UNL     1       0.744  15.610  19.720  0.00  0.00    +0.000 C 
ATOM     18  C   UNL     1       2.226  14.838  21.576  0.00  0.00    +0.000 C 
ATOM     19  C   UNL     1       2.727  14.144  19.234  0.00  0.00    +0.000 C 
ENDBRANCH  14  16
ENDBRANCH  10  11
ENDBRANCH   8  10
ENDBRANCH   2   5
BRANCH   1  20
ATOM     20  C   UNL     1       5.027   5.062  19.067  0.00  0.00    +0.000 C 
BRANCH  20  28
ATOM     21  C   UNL     1       3.733   3.634  16.721  0.00  0.00    +0.000 C 
ATOM     22  C   UNL     1       5.033   4.378  16.603  0.00  0.00    +0.000 A 
ATOM     23  C   UNL     1       5.657   4.393  15.347  0.00  0.00    +0.000 A 
ATOM     24  C   UNL     1       6.862   5.047  15.180  0.00  0.00    +0.000 A 
ATOM     25  N   UNL     1       7.460   5.702  16.184  0.00  0.00    +0.000 NA
ATOM     26  C   UNL     1       6.856   5.715  17.406  0.00  0.00    +0.000 A 
ATOM     27  C   UNL     1       7.589   6.511  18.449  0.00  0.00    +0.000 C 
ATOM     28  C   UNL     1       5.642   5.055  17.682  0.00  0.00    +0.000 A 
BRANCH  24  29
ATOM     29  N   UNL     1       7.436   5.130  13.914  0.00  0.00    +0.000 N 
ATOM     30  H   UNL     1       8.281   5.687  13.892  0.00  0.00    +0.000 HD
ATOM     31  H   UNL     1       6.728   5.442  13.257  0.00  0.00    +0.000 HD
ENDBRANCH  24  29
ENDBRANCH  20  28
ENDBRANCH   1  20
TORSDOF 7
ENDMDL
MODEL 9
REMARK VINA RESULT:      -7.1      2.135      3.678
REMARK  Name = 
REMARK  12 active torsions:
REMARK  status: ('A' for Active; 'I' for Inactive)
REMARK    1  A    between atoms: C_1  and  C_2
REMARK    2  A    between atoms: C_4  and  N_5
REMARK    3  A    between atoms: C_7  and  C_8
REMARK    4  A    between atoms: C_9  and  C_10
REMARK    5  A    between atoms: C_10  and  N_11
REMARK    6  A    between atoms: C_12  and  C_14
REMARK    7  A    between atoms: N_17  and  C_18
REMARK    8  A    between atoms: C_18  and  C_19
REMARK    9  A    between atoms: C_22  and  C_23
REMARK   10  A    between atoms: C_23  and  C_24
REMARK   11  A    between atoms: C_23  and  C_25
REMARK   12  A    between atoms: C_23  and  C_26
REMARK                            x       y       z     vdW  Elec       q    Type
REMARK                         _______ _______ _______ _____ _____    ______ ____
ROOT
ATOM      1  N   UNL     1       4.174   6.341  19.067  0.00  0.00    +0.000 N 
ATOM      2  C   UNL     1       2.979   6.165  19.739  0.00  0.00    +0.000 C 
ATOM      3  O   UNL     1       2.635   5.106  20.259  0.00  0.00    +0.000 OA
ATOM      4  H   UNL     1       4.480   7.298  18.939  0.00  0.00    +0.000 HD
ENDROOT
BRANCH   2   5
ATOM      5  C   UNL     1       2.175   7.364  19.801  0.00  0.00    +0.000 A 
ATOM      6  C   UNL     1       1.415   7.869  20.887  0.00  0.00    +0.000 A 
ATOM      7  N   UNL     1       0.782   9.012  20.598  0.00  0.00    +0.000 NA
ATOM      8  N   UNL     1       1.076   9.219  19.296  0.00  0.00    +0.000 N 
ATOM      9  C   UNL     1       1.925   8.274  18.785  0.00  0.00    +0.000 A 
BRANCH   8  10
ATOM     10  C   UNL     1       0.512  10.350  18.568  0.00  0.00    +0.000 C 
BRANCH  10  11
ATOM     11  C   UNL     1       0.776  11.626  19.300  0.00  0.00    +0.000 A 
ATOM     12  C   UNL     1      -0.011  12.161  20.302  0.00  0.00    +0.000 A 
ATOM     13  S   UNL     1       0.633  13.644  20.836  0.00  0.00    +0.000 S 
ATOM     14  C   UNL     1       1.958  13.471  19.735  0.00  0.00    +0.000 A 
ATOM     15  N   UNL     1       1.908  12.378  18.994  0.00  0.00    +0.000 NA
BRANCH  14  16
ATOM     16  C   UNL     1       3.067  14.523  19.676  0.00  0.00    +0.000 C 
ATOM     17  C   UNL     1       4.024  14.364  20.874  0.00  0.00    +0.000 C 
ATOM     18  C   UNL     1       3.890  14.359  18.380  0.00  0.00    +0.000 C 
ATOM     19  C   UNL     1       2.474  15.945  19.684  0.00  0.00    +0.000 C 
ENDBRANCH  14  16
ENDBRANCH  10  11
ENDBRANCH   8  10
ENDBRANCH   2   5
BRANCH   1  20
ATOM     20  C   UNL     1       5.161   5.296  18.917  0.00  0.00    +0.000 C 
BRANCH  20  28
ATOM     21  C   UNL     1       3.824   3.599  16.782  0.00  0.00    +0.000 C 
ATOM     22  C   UNL     1       5.077   4.388  16.527  0.00  0.00    +0.000 A 
ATOM     23  C   UNL     1       5.634   4.317  15.243  0.00  0.00    +0.000 A 
ATOM     24  C   UNL     1       6.794   5.007  14.952  0.00  0.00    +0.000 A 
ATOM     25  N   UNL     1       7.408   5.779  15.858  0.00  0.00    +0.000 NA
ATOM     26  C   UNL     1       6.867   5.876  17.106  0.00  0.00    +0.000 A 
ATOM     27  C   UNL     1       7.611   6.798  18.032  0.00  0.00    +0.000 C 
ATOM     28  C   UNL     1       5.704   5.189  17.506  0.00  0.00    +0.000 A 
BRANCH  24  29
ATOM     29  N   UNL     1       7.299   5.000  13.653  0.00  0.00    +0.000 N 
ATOM     30  H   UNL     1       6.675   4.572  12.982  0.00  0.00    +0.000 HD
ATOM     31  H   UNL     1       8.225   4.583  13.669  0.00  0.00    +0.000 HD
ENDBRANCH  24  29
ENDBRANCH  20  28
ENDBRANCH   1  20
TORSDOF 7
ENDMDL
