MODEL 1
REMARK VINA RESULT:      -7.9      0.000      0.000
REMARK  Name = 
REMARK  6 active torsions:
REMARK  status: ('A' for Active; 'I' for Inactive)
REMARK    1  A    between atoms: C_2  and  C_3
REMARK    2  A    between atoms: C_3  and  C_4
REMARK    3  A    between atoms: C_3  and  C_15
REMARK    4  A    between atoms: C_4  and  C_5
REMARK    5  A    between atoms: C_10  and  O_11
REMARK    6  A    between atoms: O_11  and  C_12
REMARK                            x       y       z     vdW  Elec       q    Type
REMARK                         _______ _______ _______ _____ _____    ______ ____
ROOT
ATOM      1  C   UNL     1       3.221   7.193  17.486  0.00  0.00    +0.000 C 
ENDROOT
BRANCH   1   2
ATOM      2  C   UNL     1       2.955   5.989  18.338  0.00  0.00    +0.000 A 
ATOM      3  N   UNL     1       2.326   4.915  17.897  0.00  0.00    +0.000 NA
ATOM      4  C   UNL     1       2.026   4.166  19.001  0.00  0.00    +0.000 A 
ATOM      5  C   UNL     1       1.279   2.984  19.100  0.00  0.00    +0.000 A 
ATOM      6  C   UNL     1       1.050   2.440  20.367  0.00  0.00    +0.000 A 
ATOM      7  C   UNL     1       1.577   3.050  21.508  0.00  0.00    +0.000 A 
ATOM      8  C   UNL     1       2.348   4.219  21.424  0.00  0.00    +0.000 A 
ATOM      9  C   UNL     1       2.541   4.755  20.148  0.00  0.00    +0.000 A 
ATOM     10  N   UNL     1       3.181   5.888  19.695  0.00  0.00    +0.000 N 
ATOM     11  H   UNL     1       3.649   6.566  20.281  0.00  0.00    +0.000 HD
ENDBRANCH   1   2
BRANCH   1  13
ATOM     12  N   UNL     1       1.839   9.504  18.182  0.00  0.00    +0.000 NA
ATOM     13  C   UNL     1       2.466   8.456  17.866  0.00  0.00    +0.000 C 
ENDBRANCH   1  13
BRANCH   1  14
ATOM     14  C   UNL     1       4.736   7.461  17.337  0.00  0.00    +0.000 C 
BRANCH  14  15
ATOM     15  C   UNL     1       5.486   6.312  16.679  0.00  0.00    +0.000 A 
ATOM     16  C   UNL     1       5.230   6.060  15.319  0.00  0.00    +0.000 A 
ATOM     17  C   UNL     1       5.776   4.950  14.680  0.00  0.00    +0.000 A 
ATOM     18  C   UNL     1       6.606   4.092  15.385  0.00  0.00    +0.000 A 
ATOM     19  C   UNL     1       6.899   4.342  16.727  0.00  0.00    +0.000 A 
ATOM     20  C   UNL     1       6.355   5.454  17.383  0.00  0.00    +0.000 A 
BRANCH  20  21
ATOM     21  O   UNL     1       6.579   5.742  18.703  0.00  0.00    +0.000 OA
BRANCH  21  22
ATOM     22  C   UNL     1       7.948   5.785  19.102  0.00  0.00    +0.000 C 
ATOM     23  F   UNL     1       8.397   7.048  18.897  0.00  0.00    +0.000 F 
ATOM     24  F   UNL     1       8.032   5.565  20.439  0.00  0.00    +0.000 F 
ENDBRANCH  21  22
ENDBRANCH  20  21
ENDBRANCH  14  15
ENDBRANCH   1  14
TORSDOF 6
ENDMDL
MODEL 2
REMARK VINA RESULT:      -7.8      0.454      1.423
REMARK  Name = 
REMARK  6 active torsions:
REMARK  status: ('A' for Active; 'I' for Inactive)
REMARK    1  A    between atoms: C_2  and  C_3
REMARK    2  A    between atoms: C_3  and  C_4
REMARK    3  A    between atoms: C_3  and  C_15
REMARK    4  A    between atoms: C_4  and  C_5
REMARK    5  A    between atoms: C_10  and  O_11
REMARK    6  A    between atoms: O_11  and  C_12
REMARK                            x       y       z     vdW  Elec       q    Type
REMARK                         _______ _______ _______ _____ _____    ______ ____
ROOT
ATOM      1  C   UNL     1       3.117   7.211  17.538  0.00  0.00    +0.000 C 
ENDROOT
BRANCH   1   2
ATOM      2  C   UNL     1       2.502   6.134  18.378  0.00  0.00    +0.000 A 
ATOM      3  N   UNL     1       2.602   6.096  19.694  0.00  0.00    +0.000 NA
ATOM      4  C   UNL     1       2.174   4.855  20.076  0.00  0.00    +0.000 A 
ATOM      5  C   UNL     1       2.170   4.267  21.348  0.00  0.00    +0.000 A 
ATOM      6  C   UNL     1       1.742   2.941  21.472  0.00  0.00    +0.000 A 
ATOM      7  C   UNL     1       1.305   2.228  20.353  0.00  0.00    +0.000 A 
ATOM      8  C   UNL     1       1.278   2.811  19.077  0.00  0.00    +0.000 A 
ATOM      9  C   UNL     1       1.734   4.128  18.977  0.00  0.00    +0.000 A 
ATOM     10  N   UNL     1       1.898   4.985  17.911  0.00  0.00    +0.000 N 
ATOM     11  H   UNL     1       1.693   4.759  16.947  0.00  0.00    +0.000 HD
ENDBRANCH   1   2
BRANCH   1  13
ATOM     12  N   UNL     1       1.908   9.711  17.693  0.00  0.00    +0.000 NA
ATOM     13  C   UNL     1       2.456   8.578  17.622  0.00  0.00    +0.000 C 
ENDBRANCH   1  13
BRANCH   1  14
ATOM     14  C   UNL     1       4.644   7.304  17.758  0.00  0.00    +0.000 C 
BRANCH  14  15
ATOM     15  C   UNL     1       5.428   6.274  16.959  0.00  0.00    +0.000 A 
ATOM     16  C   UNL     1       5.193   6.205  15.574  0.00  0.00    +0.000 A 
ATOM     17  C   UNL     1       5.772   5.207  14.797  0.00  0.00    +0.000 A 
ATOM     18  C   UNL     1       6.616   4.279  15.389  0.00  0.00    +0.000 A 
ATOM     19  C   UNL     1       6.889   4.349  16.756  0.00  0.00    +0.000 A 
ATOM     20  C   UNL     1       6.311   5.348  17.551  0.00  0.00    +0.000 A 
BRANCH  20  21
ATOM     21  O   UNL     1       6.514   5.458  18.902  0.00  0.00    +0.000 OA
BRANCH  21  22
ATOM     22  C   UNL     1       7.763   6.024  19.294  0.00  0.00    +0.000 C 
ATOM     23  F   UNL     1       8.676   5.022  19.332  0.00  0.00    +0.000 F 
ATOM     24  F   UNL     1       8.185   6.885  18.333  0.00  0.00    +0.000 F 
ENDBRANCH  21  22
ENDBRANCH  20  21
ENDBRANCH  14  15
ENDBRANCH   1  14
TORSDOF 6
ENDMDL
MODEL 3
REMARK VINA RESULT:      -7.6      3.148      6.636
REMARK  Name = 
REMARK  6 active torsions:
REMARK  status: ('A' for Active; 'I' for Inactive)
REMARK    1  A    between atoms: C_2  and  C_3
REMARK    2  A    between atoms: C_3  and  C_4
REMARK    3  A    between atoms: C_3  and  C_15
REMARK    4  A    between atoms: C_4  and  C_5
REMARK    5  A    between atoms: C_10  and  O_11
REMARK    6  A    between atoms: O_11  and  C_12
REMARK                            x       y       z     vdW  Elec       q    Type
REMARK                         _______ _______ _______ _____ _____    ______ ____
ROOT
ATOM      1  C   UNL     1       5.560   4.903  17.808  0.00  0.00    +0.000 C 
ENDROOT
BRANCH   1   2
ATOM      2  C   UNL     1       6.126   4.628  16.448  0.00  0.00    +0.000 A 
ATOM      3  N   UNL     1       7.084   5.355  15.902  0.00  0.00    +0.000 NA
ATOM      4  C   UNL     1       7.137   4.991  14.585  0.00  0.00    +0.000 A 
ATOM      5  C   UNL     1       7.910   5.525  13.544  0.00  0.00    +0.000 A 
ATOM      6  C   UNL     1       7.731   5.023  12.251  0.00  0.00    +0.000 A 
ATOM      7  C   UNL     1       6.819   3.993  12.009  0.00  0.00    +0.000 A 
ATOM      8  C   UNL     1       6.058   3.430  13.044  0.00  0.00    +0.000 A 
ATOM      9  C   UNL     1       6.238   3.967  14.322  0.00  0.00    +0.000 A 
ATOM     10  N   UNL     1       5.644   3.710  15.538  0.00  0.00    +0.000 N 
ATOM     11  H   UNL     1       4.915   3.028  15.697  0.00  0.00    +0.000 HD
ENDBRANCH   1   2
BRANCH   1  13
ATOM     12  N   UNL     1       7.403   5.589  19.775  0.00  0.00    +0.000 NA
ATOM     13  C   UNL     1       6.567   5.278  18.883  0.00  0.00    +0.000 C 
ENDBRANCH   1  13
BRANCH   1  14
ATOM     14  C   UNL     1       4.393   5.914  17.746  0.00  0.00    +0.000 C 
BRANCH  14  15
ATOM     15  C   UNL     1       3.201   5.506  18.599  0.00  0.00    +0.000 A 
ATOM     16  C   UNL     1       2.886   6.311  19.708  0.00  0.00    +0.000 A 
ATOM     17  C   UNL     1       1.894   5.935  20.610  0.00  0.00    +0.000 A 
ATOM     18  C   UNL     1       1.185   4.762  20.400  0.00  0.00    +0.000 A 
ATOM     19  C   UNL     1       1.459   3.965  19.287  0.00  0.00    +0.000 A 
ATOM     20  C   UNL     1       2.456   4.331  18.372  0.00  0.00    +0.000 A 
BRANCH  20  21
ATOM     21  O   UNL     1       2.794   3.582  17.276  0.00  0.00    +0.000 OA
BRANCH  21  22
ATOM     22  C   UNL     1       3.178   2.234  17.544  0.00  0.00    +0.000 C 
ATOM     23  F   UNL     1       3.888   2.231  18.699  0.00  0.00    +0.000 F 
ATOM     24  F   UNL     1       2.066   1.491  17.779  0.00  0.00    +0.000 F 
ENDBRANCH  21  22
ENDBRANCH  20  21
ENDBRANCH  14  15
ENDBRANCH   1  14
TORSDOF 6
ENDMDL
MODEL 4
REMARK VINA RESULT:      -7.5      2.962      6.652
REMARK  Name = 
REMARK  6 active torsions:
REMARK  status: ('A' for Active; 'I' for Inactive)
REMARK    1  A    between atoms: C_2  and  C_3
REMARK    2  A    between atoms: C_3  and  C_4
REMARK    3  A    between atoms: C_3  and  C_15
REMARK    4  A    between atoms: C_4  and  C_5
REMARK    5  A    between atoms: C_10  and  O_11
REMARK    6  A    between atoms: O_11  and  C_12
REMARK                            x       y       z     vdW  Elec       q    Type
REMARK                         _______ _______ _______ _____ _____    ______ ____
ROOT
ATOM      1  C   UNL     1       5.161   4.173  17.528  0.00  0.00    +0.000 C 
ENDROOT
BRANCH   1   2
ATOM      2  C   UNL     1       5.868   4.136  16.207  0.00  0.00    +0.000 A 
ATOM      3  N   UNL     1       6.806   4.999  15.863  0.00  0.00    +0.000 NA
ATOM      4  C   UNL     1       7.010   4.830  14.523  0.00  0.00    +0.000 A 
ATOM      5  C   UNL     1       7.825   5.560  13.646  0.00  0.00    +0.000 A 
ATOM      6  C   UNL     1       7.808   5.234  12.286  0.00  0.00    +0.000 A 
ATOM      7  C   UNL     1       7.014   4.185  11.817  0.00  0.00    +0.000 A 
ATOM      8  C   UNL     1       6.213   3.428  12.685  0.00  0.00    +0.000 A 
ATOM      9  C   UNL     1       6.229   3.791  14.034  0.00  0.00    +0.000 A 
ATOM     10  N   UNL     1       5.552   3.323  15.139  0.00  0.00    +0.000 N 
ATOM     11  H   UNL     1       4.872   2.574  15.130  0.00  0.00    +0.000 HD
ENDBRANCH   1   2
BRANCH   1  13
ATOM     12  N   UNL     1       6.583   5.294  19.638  0.00  0.00    +0.000 NA
ATOM     13  C   UNL     1       5.938   4.786  18.681  0.00  0.00    +0.000 C 
ENDBRANCH   1  13
BRANCH   1  14
ATOM     14  C   UNL     1       3.751   4.794  17.400  0.00  0.00    +0.000 C 
BRANCH  14  15
ATOM     15  C   UNL     1       2.785   4.313  18.472  0.00  0.00    +0.000 A 
ATOM     16  C   UNL     1       2.218   3.036  18.314  0.00  0.00    +0.000 A 
ATOM     17  C   UNL     1       1.230   2.577  19.180  0.00  0.00    +0.000 A 
ATOM     18  C   UNL     1       0.813   3.379  20.232  0.00  0.00    +0.000 A 
ATOM     19  C   UNL     1       1.386   4.637  20.426  0.00  0.00    +0.000 A 
ATOM     20  C   UNL     1       2.380   5.112  19.561  0.00  0.00    +0.000 A 
BRANCH  20  21
ATOM     21  O   UNL     1       2.964   6.346  19.677  0.00  0.00    +0.000 OA
BRANCH  21  22
ATOM     22  C   UNL     1       2.218   7.435  19.135  0.00  0.00    +0.000 C 
ATOM     23  F   UNL     1       1.867   8.245  20.164  0.00  0.00    +0.000 F 
ATOM     24  F   UNL     1       3.025   8.171  18.329  0.00  0.00    +0.000 F 
ENDBRANCH  21  22
ENDBRANCH  20  21
ENDBRANCH  14  15
ENDBRANCH   1  14
TORSDOF 6
ENDMDL
MODEL 5
REMARK VINA RESULT:      -7.4      3.337      6.511
REMARK  Name = 
REMARK  6 active torsions:
REMARK  status: ('A' for Active; 'I' for Inactive)
REMARK    1  A    between atoms: C_2  and  C_3
REMARK    2  A    between atoms: C_3  and  C_4
REMARK    3  A    between atoms: C_3  and  C_15
REMARK    4  A    between atoms: C_4  and  C_5
REMARK    5  A    between atoms: C_10  and  O_11
REMARK    6  A    between atoms: O_11  and  C_12
REMARK                            x       y       z     vdW  Elec       q    Type
REMARK                         _______ _______ _______ _____ _____    ______ ____
ROOT
ATOM      1  C   UNL     1       6.058   4.576  17.719  0.00  0.00    +0.000 C 
ENDROOT
BRANCH   1   2
ATOM      2  C   UNL     1       6.199   4.671  16.230  0.00  0.00    +0.000 A 
ATOM      3  N   UNL     1       5.514   3.918  15.388  0.00  0.00    +0.000 NA
ATOM      4  C   UNL     1       6.099   4.082  14.164  0.00  0.00    +0.000 A 
ATOM      5  C   UNL     1       5.823   3.437  12.951  0.00  0.00    +0.000 A 
ATOM      6  C   UNL     1       6.619   3.730  11.839  0.00  0.00    +0.000 A 
ATOM      7  C   UNL     1       7.651   4.666  11.932  0.00  0.00    +0.000 A 
ATOM      8  C   UNL     1       7.924   5.340  13.131  0.00  0.00    +0.000 A 
ATOM      9  C   UNL     1       7.129   5.010  14.233  0.00  0.00    +0.000 A 
ATOM     10  N   UNL     1       7.138   5.417  15.549  0.00  0.00    +0.000 N 
ATOM     11  H   UNL     1       7.789   6.079  15.949  0.00  0.00    +0.000 HD
ENDBRANCH   1   2
BRANCH   1  13
ATOM     12  N   UNL     1       8.263   5.392  19.204  0.00  0.00    +0.000 NA
ATOM     13  C   UNL     1       7.263   5.022  18.530  0.00  0.00    +0.000 C 
ENDBRANCH   1  13
BRANCH   1  14
ATOM     14  C   UNL     1       4.759   5.255  18.212  0.00  0.00    +0.000 C 
BRANCH  14  15
ATOM     15  C   UNL     1       3.623   4.273  18.450  0.00  0.00    +0.000 A 
ATOM     16  C   UNL     1       3.919   2.900  18.372  0.00  0.00    +0.000 A 
ATOM     17  C   UNL     1       2.912   1.942  18.450  0.00  0.00    +0.000 A 
ATOM     18  C   UNL     1       1.597   2.343  18.632  0.00  0.00    +0.000 A 
ATOM     19  C   UNL     1       1.285   3.699  18.744  0.00  0.00    +0.000 A 
ATOM     20  C   UNL     1       2.289   4.674  18.667  0.00  0.00    +0.000 A 
BRANCH  20  21
ATOM     21  O   UNL     1       2.048   6.020  18.741  0.00  0.00    +0.000 OA
BRANCH  21  22
ATOM     22  C   UNL     1       2.220   6.607  20.030  0.00  0.00    +0.000 C 
ATOM     23  F   UNL     1       2.118   7.952  19.886  0.00  0.00    +0.000 F 
ATOM     24  F   UNL     1       1.193   6.232  20.833  0.00  0.00    +0.000 F 
ENDBRANCH  21  22
ENDBRANCH  20  21
ENDBRANCH  14  15
ENDBRANCH   1  14
TORSDOF 6
ENDMDL
MODEL 6
REMARK VINA RESULT:      -7.4      0.991      1.633
REMARK  Name = 
REMARK  6 active torsions:
REMARK  status: ('A' for Active; 'I' for Inactive)
REMARK    1  A    between atoms: C_2  and  C_3
REMARK    2  A    between atoms: C_3  and  C_4
REMARK    3  A    between atoms: C_3  and  C_15
REMARK    4  A    between atoms: C_4  and  C_5
REMARK    5  A    between atoms: C_10  and  O_11
REMARK    6  A    between atoms: O_11  and  C_12
REMARK                            x       y       z     vdW  Elec       q    Type
REMARK                         _______ _______ _______ _____ _____    ______ ____
ROOT
ATOM      1  C   UNL     1       3.097   7.191  17.570  0.00  0.00    +0.000 C 
ENDROOT
BRANCH   1   2
ATOM      2  C   UNL     1       2.490   6.115  18.418  0.00  0.00    +0.000 A 
ATOM      3  N   UNL     1       2.619   6.069  19.732  0.00  0.00    +0.000 NA
ATOM      4  C   UNL     1       2.187   4.831  20.117  0.00  0.00    +0.000 A 
ATOM      5  C   UNL     1       2.205   4.236  21.386  0.00  0.00    +0.000 A 
ATOM      6  C   UNL     1       1.767   2.914  21.512  0.00  0.00    +0.000 A 
ATOM      7  C   UNL     1       1.297   2.212  20.400  0.00  0.00    +0.000 A 
ATOM      8  C   UNL     1       1.248   2.801  19.128  0.00  0.00    +0.000 A 
ATOM      9  C   UNL     1       1.715   4.115  19.025  0.00  0.00    +0.000 A 
ATOM     10  N   UNL     1       1.863   4.975  17.959  0.00  0.00    +0.000 N 
ATOM     11  H   UNL     1       1.635   4.756  16.999  0.00  0.00    +0.000 HD
ENDBRANCH   1   2
BRANCH   1  13
ATOM     12  N   UNL     1       1.834   9.667  17.660  0.00  0.00    +0.000 NA
ATOM     13  C   UNL     1       2.406   8.544  17.619  0.00  0.00    +0.000 C 
ENDBRANCH   1  13
BRANCH   1  14
ATOM     14  C   UNL     1       4.617   7.320  17.815  0.00  0.00    +0.000 C 
BRANCH  14  15
ATOM     15  C   UNL     1       5.438   6.301  17.038  0.00  0.00    +0.000 A 
ATOM     16  C   UNL     1       4.795   5.595  16.006  0.00  0.00    +0.000 A 
ATOM     17  C   UNL     1       5.438   4.558  15.336  0.00  0.00    +0.000 A 
ATOM     18  C   UNL     1       6.742   4.230  15.672  0.00  0.00    +0.000 A 
ATOM     19  C   UNL     1       7.411   4.940  16.671  0.00  0.00    +0.000 A 
ATOM     20  C   UNL     1       6.775   5.985  17.354  0.00  0.00    +0.000 A 
BRANCH  20  21
ATOM     21  O   UNL     1       7.362   6.703  18.363  0.00  0.00    +0.000 OA
BRANCH  21  22
ATOM     22  C   UNL     1       8.188   7.789  17.946  0.00  0.00    +0.000 C 
ATOM     23  F   UNL     1       7.371   8.812  17.590  0.00  0.00    +0.000 F 
ATOM     24  F   UNL     1       8.912   8.232  19.005  0.00  0.00    +0.000 F 
ENDBRANCH  21  22
ENDBRANCH  20  21
ENDBRANCH  14  15
ENDBRANCH   1  14
TORSDOF 6
ENDMDL
MODEL 7
REMARK VINA RESULT:      -7.3      3.238      6.607
REMARK  Name = 
REMARK  6 active torsions:
REMARK  status: ('A' for Active; 'I' for Inactive)
REMARK    1  A    between atoms: C_2  and  C_3
REMARK    2  A    between atoms: C_3  and  C_4
REMARK    3  A    between atoms: C_3  and  C_15
REMARK    4  A    between atoms: C_4  and  C_5
REMARK    5  A    between atoms: C_10  and  O_11
REMARK    6  A    between atoms: O_11  and  C_12
REMARK                            x       y       z     vdW  Elec       q    Type
REMARK                         _______ _______ _______ _____ _____    ______ ____
ROOT
ATOM      1  C   UNL     1       6.022   4.640  17.525  0.00  0.00    +0.000 C 
ENDROOT
BRANCH   1   2
ATOM      2  C   UNL     1       6.470   4.431  16.111  0.00  0.00    +0.000 A 
ATOM      3  N   UNL     1       7.323   5.229  15.496  0.00  0.00    +0.000 NA
ATOM      4  C   UNL     1       7.274   4.896  14.171  0.00  0.00    +0.000 A 
ATOM      5  C   UNL     1       7.907   5.500  13.076  0.00  0.00    +0.000 A 
ATOM      6  C   UNL     1       7.637   5.012  11.793  0.00  0.00    +0.000 A 
ATOM      7  C   UNL     1       6.775   3.929  11.612  0.00  0.00    +0.000 A 
ATOM      8  C   UNL     1       6.154   3.297  12.699  0.00  0.00    +0.000 A 
ATOM      9  C   UNL     1       6.420   3.819  13.967  0.00  0.00    +0.000 A 
ATOM     10  N   UNL     1       5.963   3.501  15.227  0.00  0.00    +0.000 N 
ATOM     11  H   UNL     1       5.298   2.769  15.436  0.00  0.00    +0.000 HD
ENDBRANCH   1   2
BRANCH   1  13
ATOM     12  N   UNL     1       7.847   5.895  19.207  0.00  0.00    +0.000 NA
ATOM     13  C   UNL     1       7.020   5.326  18.444  0.00  0.00    +0.000 C 
ENDBRANCH   1  13
BRANCH   1  14
ATOM     14  C   UNL     1       4.634   5.318  17.587  0.00  0.00    +0.000 C 
BRANCH  14  15
ATOM     15  C   UNL     1       3.558   4.427  18.190  0.00  0.00    +0.000 A 
ATOM     16  C   UNL     1       3.223   3.249  17.497  0.00  0.00    +0.000 A 
ATOM     17  C   UNL     1       2.162   2.450  17.913  0.00  0.00    +0.000 A 
ATOM     18  C   UNL     1       1.439   2.802  19.043  0.00  0.00    +0.000 A 
ATOM     19  C   UNL     1       1.776   3.949  19.763  0.00  0.00    +0.000 A 
ATOM     20  C   UNL     1       2.840   4.764  19.355  0.00  0.00    +0.000 A 
BRANCH  20  21
ATOM     21  O   UNL     1       3.207   5.917  19.999  0.00  0.00    +0.000 OA
BRANCH  21  22
ATOM     22  C   UNL     1       2.340   7.033  19.806  0.00  0.00    +0.000 C 
ATOM     23  F   UNL     1       1.872   6.975  18.535  0.00  0.00    +0.000 F 
ATOM     24  F   UNL     1       1.258   6.905  20.616  0.00  0.00    +0.000 F 
ENDBRANCH  21  22
ENDBRANCH  20  21
ENDBRANCH  14  15
ENDBRANCH   1  14
TORSDOF 6
ENDMDL
MODEL 8
REMARK VINA RESULT:      -7.3      0.765      1.015
REMARK  Name = 
REMARK  6 active torsions:
REMARK  status: ('A' for Active; 'I' for Inactive)
REMARK    1  A    between atoms: C_2  and  C_3
REMARK    2  A    between atoms: C_3  and  C_4
REMARK    3  A    between atoms: C_3  and  C_15
REMARK    4  A    between atoms: C_4  and  C_5
REMARK    5  A    between atoms: C_10  and  O_11
REMARK    6  A    between atoms: O_11  and  C_12
REMARK                            x       y       z     vdW  Elec       q    Type
REMARK                         _______ _______ _______ _____ _____    ______ ____
ROOT
ATOM      1  C   UNL     1       3.295   7.138  17.445  0.00  0.00    +0.000 C 
ENDROOT
BRANCH   1   2
ATOM      2  C   UNL     1       3.020   5.949  18.315  0.00  0.00    +0.000 A 
ATOM      3  N   UNL     1       2.370   4.879  17.895  0.00  0.00    +0.000 NA
ATOM      4  C   UNL     1       2.072   4.149  19.012  0.00  0.00    +0.000 A 
ATOM      5  C   UNL     1       1.308   2.980  19.134  0.00  0.00    +0.000 A 
ATOM      6  C   UNL     1       1.085   2.455  20.411  0.00  0.00    +0.000 A 
ATOM      7  C   UNL     1       1.634   3.072  21.538  0.00  0.00    +0.000 A 
ATOM      8  C   UNL     1       2.422   4.227  21.431  0.00  0.00    +0.000 A 
ATOM      9  C   UNL     1       2.609   4.744  20.145  0.00  0.00    +0.000 A 
ATOM     10  N   UNL     1       3.260   5.861  19.670  0.00  0.00    +0.000 N 
ATOM     11  H   UNL     1       3.744   6.539  20.243  0.00  0.00    +0.000 HD
ENDBRANCH   1   2
BRANCH   1  13
ATOM     12  N   UNL     1       1.879   9.450  18.065  0.00  0.00    +0.000 NA
ATOM     13  C   UNL     1       2.521   8.401  17.784  0.00  0.00    +0.000 C 
ENDBRANCH   1  13
BRANCH   1  14
ATOM     14  C   UNL     1       4.811   7.415  17.323  0.00  0.00    +0.000 C 
BRANCH  14  15
ATOM     15  C   UNL     1       5.565   6.312  16.597  0.00  0.00    +0.000 A 
ATOM     16  C   UNL     1       5.009   5.817  15.404  0.00  0.00    +0.000 A 
ATOM     17  C   UNL     1       5.569   4.722  14.751  0.00  0.00    +0.000 A 
ATOM     18  C   UNL     1       6.708   4.124  15.268  0.00  0.00    +0.000 A 
ATOM     19  C   UNL     1       7.295   4.620  16.434  0.00  0.00    +0.000 A 
ATOM     20  C   UNL     1       6.741   5.721  17.102  0.00  0.00    +0.000 A 
BRANCH  20  21
ATOM     21  O   UNL     1       7.250   6.240  18.263  0.00  0.00    +0.000 OA
BRANCH  21  22
ATOM     22  C   UNL     1       7.793   7.555  18.164  0.00  0.00    +0.000 C 
ATOM     23  F   UNL     1       8.862   7.622  18.997  0.00  0.00    +0.000 F 
ATOM     24  F   UNL     1       8.276   7.747  16.910  0.00  0.00    +0.000 F 
ENDBRANCH  21  22
ENDBRANCH  20  21
ENDBRANCH  14  15
ENDBRANCH   1  14
TORSDOF 6
ENDMDL
MODEL 9
REMARK VINA RESULT:      -7.3      3.327      6.498
REMARK  Name = 
REMARK  6 active torsions:
REMARK  status: ('A' for Active; 'I' for Inactive)
REMARK    1  A    between atoms: C_2  and  C_3
REMARK    2  A    between atoms: C_3  and  C_4
REMARK    3  A    between atoms: C_3  and  C_15
REMARK    4  A    between atoms: C_4  and  C_5
REMARK    5  A    between atoms: C_10  and  O_11
REMARK    6  A    between atoms: O_11  and  C_12
REMARK                            x       y       z     vdW  Elec       q    Type
REMARK                         _______ _______ _______ _____ _____    ______ ____
ROOT
ATOM      1  C   UNL     1       6.384   5.204  17.716  0.00  0.00    +0.000 C 
ENDROOT
BRANCH   1   2
ATOM      2  C   UNL     1       6.615   4.756  16.305  0.00  0.00    +0.000 A 
ATOM      3  N   UNL     1       7.503   5.315  15.504  0.00  0.00    +0.000 NA
ATOM      4  C   UNL     1       7.237   4.845  14.248  0.00  0.00    +0.000 A 
ATOM      5  C   UNL     1       7.819   5.197  13.023  0.00  0.00    +0.000 A 
ATOM      6  C   UNL     1       7.318   4.619  11.852  0.00  0.00    +0.000 A 
ATOM      7  C   UNL     1       6.275   3.691  11.908  0.00  0.00    +0.000 A 
ATOM      8  C   UNL     1       5.699   3.309  13.128  0.00  0.00    +0.000 A 
ATOM      9  C   UNL     1       6.202   3.919  14.280  0.00  0.00    +0.000 A 
ATOM     10  N   UNL     1       5.859   3.834  15.612  0.00  0.00    +0.000 N 
ATOM     11  H   UNL     1       5.114   3.261  15.985  0.00  0.00    +0.000 HD
ENDBRANCH   1   2
BRANCH   1  13
ATOM     12  N   UNL     1       8.174   7.092  18.700  0.00  0.00    +0.000 NA
ATOM     13  C   UNL     1       7.362   6.236  18.254  0.00  0.00    +0.000 C 
ENDBRANCH   1  13
BRANCH   1  14
ATOM     14  C   UNL     1       4.918   5.639  17.943  0.00  0.00    +0.000 C 
BRANCH  14  15
ATOM     15  C   UNL     1       4.154   4.707  18.871  0.00  0.00    +0.000 A 
ATOM     16  C   UNL     1       4.782   3.509  19.255  0.00  0.00    +0.000 A 
ATOM     17  C   UNL     1       4.100   2.546  19.995  0.00  0.00    +0.000 A 
ATOM     18  C   UNL     1       2.790   2.780  20.383  0.00  0.00    +0.000 A 
ATOM     19  C   UNL     1       2.158   3.977  20.040  0.00  0.00    +0.000 A 
ATOM     20  C   UNL     1       2.832   4.954  19.295  0.00  0.00    +0.000 A 
BRANCH  20  21
ATOM     21  O   UNL     1       2.264   6.137  18.901  0.00  0.00    +0.000 OA
BRANCH  21  22
ATOM     22  C   UNL     1       2.295   7.188  19.866  0.00  0.00    +0.000 C 
ATOM     23  F   UNL     1       1.989   8.343  19.226  0.00  0.00    +0.000 F 
ATOM     24  F   UNL     1       1.311   6.986  20.779  0.00  0.00    +0.000 F 
ENDBRANCH  21  22
ENDBRANCH  20  21
ENDBRANCH  14  15
ENDBRANCH   1  14
TORSDOF 6
ENDMDL
