MODEL 1
REMARK VINA RESULT:      -8.0      0.000      0.000
REMARK  Name = 
REMARK  6 active torsions:
REMARK  status: ('A' for Active; 'I' for Inactive)
REMARK    1  A    between atoms: C_1  and  N_2
REMARK    2  A    between atoms: C_3  and  C_5
REMARK    3  A    between atoms: C_8  and  C_9
REMARK    4  A    between atoms: N_15  and  C_16
REMARK    5  A    between atoms: C_16  and  C_17
REMARK    6  A    between atoms: C_21  and  C_22
REMARK                            x       y       z     vdW  Elec       q    Type
REMARK                         _______ _______ _______ _____ _____    ______ ____
ROOT
ATOM      1  C   UNL     1       4.139   3.738  18.368  0.00  0.00    +0.000 A 
ATOM      2  C   UNL     1       3.800   2.402  18.461  0.00  0.00    +0.000 A 
ATOM      3  S   UNL     1       2.331   2.168  19.298  0.00  0.00    +0.000 S 
ATOM      4  C   UNL     1       2.139   3.843  19.544  0.00  0.00    +0.000 A 
ATOM      5  N   UNL     1       1.029   4.324  20.151  0.00  0.00    +0.000 NA
ATOM      6  C   UNL     1       1.028   5.610  20.311  0.00  0.00    +0.000 A 
ATOM      7  N   UNL     1       2.038   6.480  19.941  0.00  0.00    +0.000 N 
ATOM      8  C   UNL     1       3.219   6.009  19.361  0.00  0.00    +0.000 A 
ATOM      9  O   UNL     1       4.194   6.729  19.168  0.00  0.00    +0.000 OA
ATOM     10  C   UNL     1       3.211   4.576  19.073  0.00  0.00    +0.000 A 
ENDROOT
BRANCH   1  14
ATOM     11  C   UNL     1       6.499   4.531  15.719  0.00  0.00    +0.000 A 
ATOM     12  C   UNL     1       7.331   4.756  16.795  0.00  0.00    +0.000 A 
ATOM     13  C   UNL     1       6.554   4.537  17.960  0.00  0.00    +0.000 A 
ATOM     14  C   UNL     1       5.286   4.189  17.531  0.00  0.00    +0.000 A 
ATOM     15  O   UNL     1       5.247   4.220  16.172  0.00  0.00    +0.000 OA
BRANCH  11  18
ATOM     16  C   UNL     1       6.290   3.291  12.225  0.00  0.00    +0.000 C 
ATOM     17  N   UNL     1       6.090   3.541  13.622  0.00  0.00    +0.000 N 
ATOM     18  C   UNL     1       6.736   4.551  14.292  0.00  0.00    +0.000 C 
ATOM     19  O   UNL     1       7.451   5.377  13.730  0.00  0.00    +0.000 OA
ATOM     20  H   UNL     1       5.605   2.863  14.199  0.00  0.00    +0.000 HD
ENDBRANCH  11  18
ENDBRANCH   1  14
BRANCH   7  21
ATOM     21  C   UNL     1       1.940   7.873  20.366  0.00  0.00    +0.000 C 
BRANCH  21  22
ATOM     22  C   UNL     1       0.718   8.694  19.890  0.00  0.00    +0.000 C 
ATOM     23  C   UNL     1       0.843   9.320  18.503  0.00  0.00    +0.000 C 
ATOM     24  C   UNL     1       1.693  10.582  18.483  0.00  0.00    +0.000 C 
ATOM     25  N   UNL     1       1.339  11.562  19.498  0.00  0.00    +0.000 N 
ATOM     26  C   UNL     1       1.893  12.848  19.495  0.00  0.00    +0.000 C 
ATOM     27  C   UNL     1       2.770  13.245  18.329  0.00  0.00    +0.000 C 
ATOM     28  O   UNL     1       1.686  13.652  20.405  0.00  0.00    +0.000 OA
ATOM     29  C   UNL     1       0.867  11.106  20.801  0.00  0.00    +0.000 C 
ATOM     30  C   UNL     1       0.186   9.747  20.863  0.00  0.00    +0.000 C 
ENDBRANCH  21  22
ENDBRANCH   7  21
TORSDOF 4
ENDMDL
MODEL 2
REMARK VINA RESULT:      -7.8      2.360      8.555
REMARK  Name = 
REMARK  6 active torsions:
REMARK  status: ('A' for Active; 'I' for Inactive)
REMARK    1  A    between atoms: C_1  and  N_2
REMARK    2  A    between atoms: C_3  and  C_5
REMARK    3  A    between atoms: C_8  and  C_9
REMARK    4  A    between atoms: N_15  and  C_16
REMARK    5  A    between atoms: C_16  and  C_17
REMARK    6  A    between atoms: C_21  and  C_22
REMARK                            x       y       z     vdW  Elec       q    Type
REMARK                         _______ _______ _______ _____ _____    ______ ____
ROOT
ATOM      1  C   UNL     1       0.429  10.285  19.952  0.00  0.00    +0.000 A 
ATOM      2  C   UNL     1      -0.371  10.163  21.071  0.00  0.00    +0.000 A 
ATOM      3  S   UNL     1      -0.158   8.660  21.852  0.00  0.00    +0.000 S 
ATOM      4  C   UNL     1       0.996   8.162  20.702  0.00  0.00    +0.000 A 
ATOM      5  N   UNL     1       1.629   6.973  20.835  0.00  0.00    +0.000 NA
ATOM      6  C   UNL     1       2.451   6.700  19.872  0.00  0.00    +0.000 A 
ATOM      7  N   UNL     1       2.702   7.488  18.764  0.00  0.00    +0.000 N 
ATOM      8  C   UNL     1       2.027   8.696  18.570  0.00  0.00    +0.000 A 
ATOM      9  O   UNL     1       2.107   9.338  17.527  0.00  0.00    +0.000 OA
ATOM     10  C   UNL     1       1.167   9.084  19.687  0.00  0.00    +0.000 A 
ENDROOT
BRANCH   1  14
ATOM     11  C   UNL     1       1.416  13.481  18.527  0.00  0.00    +0.000 A 
ATOM     12  C   UNL     1       0.085  13.513  18.173  0.00  0.00    +0.000 A 
ATOM     13  C   UNL     1      -0.481  12.291  18.615  0.00  0.00    +0.000 A 
ATOM     14  C   UNL     1       0.539  11.577  19.217  0.00  0.00    +0.000 A 
ATOM     15  O   UNL     1       1.696  12.287  19.130  0.00  0.00    +0.000 OA
BRANCH  11  18
ATOM     16  C   UNL     1       4.891  14.652  17.943  0.00  0.00    +0.000 C 
ATOM     17  N   UNL     1       3.676  13.895  18.011  0.00  0.00    +0.000 N 
ATOM     18  C   UNL     1       2.478  14.453  18.387  0.00  0.00    +0.000 C 
ATOM     19  O   UNL     1       2.335  15.655  18.592  0.00  0.00    +0.000 OA
ATOM     20  H   UNL     1       3.701  12.883  17.962  0.00  0.00    +0.000 HD
ENDBRANCH  11  18
ENDBRANCH   1  14
BRANCH   7  21
ATOM     21  C   UNL     1       3.524   6.933  17.692  0.00  0.00    +0.000 C 
BRANCH  21  22
ATOM     22  C   UNL     1       4.491   5.777  18.043  0.00  0.00    +0.000 C 
ATOM     23  C   UNL     1       5.975   6.071  17.832  0.00  0.00    +0.000 C 
ATOM     24  C   UNL     1       6.406   5.985  16.375  0.00  0.00    +0.000 C 
ATOM     25  N   UNL     1       5.984   4.772  15.693  0.00  0.00    +0.000 N 
ATOM     26  C   UNL     1       6.458   4.451  14.415  0.00  0.00    +0.000 C 
ATOM     27  C   UNL     1       7.529   5.329  13.809  0.00  0.00    +0.000 C 
ATOM     28  O   UNL     1       6.030   3.485  13.781  0.00  0.00    +0.000 OA
ATOM     29  C   UNL     1       4.703   4.165  16.036  0.00  0.00    +0.000 C 
ATOM     30  C   UNL     1       4.166   4.411  17.438  0.00  0.00    +0.000 C 
ENDBRANCH  21  22
ENDBRANCH   7  21
TORSDOF 4
ENDMDL
MODEL 3
REMARK VINA RESULT:      -7.7      7.134     11.060
REMARK  Name = 
REMARK  6 active torsions:
REMARK  status: ('A' for Active; 'I' for Inactive)
REMARK    1  A    between atoms: C_1  and  N_2
REMARK    2  A    between atoms: C_3  and  C_5
REMARK    3  A    between atoms: C_8  and  C_9
REMARK    4  A    between atoms: N_15  and  C_16
REMARK    5  A    between atoms: C_16  and  C_17
REMARK    6  A    between atoms: C_21  and  C_22
REMARK                            x       y       z     vdW  Elec       q    Type
REMARK                         _______ _______ _______ _____ _____    ______ ____
ROOT
ATOM      1  C   UNL     1      -1.141  11.060  22.456  0.00  0.00    +0.000 A 
ATOM      2  C   UNL     1      -0.369  10.197  23.210  0.00  0.00    +0.000 A 
ATOM      3  S   UNL     1       0.705   9.286  22.245  0.00  0.00    +0.000 S 
ATOM      4  C   UNL     1       0.145  10.032  20.819  0.00  0.00    +0.000 A 
ATOM      5  N   UNL     1       0.712   9.740  19.625  0.00  0.00    +0.000 NA
ATOM      6  C   UNL     1       0.166  10.346  18.618  0.00  0.00    +0.000 A 
ATOM      7  N   UNL     1      -0.913  11.210  18.671  0.00  0.00    +0.000 N 
ATOM      8  C   UNL     1      -1.553  11.490  19.881  0.00  0.00    +0.000 A 
ATOM      9  O   UNL     1      -2.604  12.122  19.942  0.00  0.00    +0.000 OA
ATOM     10  C   UNL     1      -0.901  10.905  21.051  0.00  0.00    +0.000 A 
ENDROOT
BRANCH   1  14
ATOM     11  C   UNL     1      -3.880  13.047  23.785  0.00  0.00    +0.000 A 
ATOM     12  C   UNL     1      -2.880  13.986  23.909  0.00  0.00    +0.000 A 
ATOM     13  C   UNL     1      -1.684  13.365  23.472  0.00  0.00    +0.000 A 
ATOM     14  C   UNL     1      -2.020  12.075  23.102  0.00  0.00    +0.000 A 
ATOM     15  O   UNL     1      -3.346  11.875  23.326  0.00  0.00    +0.000 OA
BRANCH  11  18
ATOM     16  C   UNL     1      -7.196  14.687  24.107  0.00  0.00    +0.000 C 
ATOM     17  N   UNL     1      -5.834  14.361  23.803  0.00  0.00    +0.000 N 
ATOM     18  C   UNL     1      -5.305  13.113  24.027  0.00  0.00    +0.000 C 
ATOM     19  O   UNL     1      -5.979  12.159  24.405  0.00  0.00    +0.000 OA
ATOM     20  H   UNL     1      -5.169  15.095  23.585  0.00  0.00    +0.000 HD
ENDBRANCH  11  18
ENDBRANCH   1  14
BRANCH   7  21
ATOM     21  C   UNL     1      -1.506  11.654  17.413  0.00  0.00    +0.000 C 
BRANCH  21  22
ATOM     22  C   UNL     1      -2.437  10.673  16.662  0.00  0.00    +0.000 C 
ATOM     23  C   UNL     1      -3.514  11.319  15.793  0.00  0.00    +0.000 C 
ATOM     24  C   UNL     1      -4.704  11.833  16.590  0.00  0.00    +0.000 C 
ATOM     25  N   UNL     1      -5.260  10.872  17.530  0.00  0.00    +0.000 N 
ATOM     26  C   UNL     1      -6.466  11.118  18.197  0.00  0.00    +0.000 C 
ATOM     27  C   UNL     1      -7.254  12.351  17.817  0.00  0.00    +0.000 C 
ATOM     28  O   UNL     1      -6.895  10.365  19.073  0.00  0.00    +0.000 OA
ATOM     29  C   UNL     1      -4.370   9.935  18.207  0.00  0.00    +0.000 C 
ATOM     30  C   UNL     1      -3.075   9.565  17.501  0.00  0.00    +0.000 C 
ENDBRANCH  21  22
ENDBRANCH   7  21
TORSDOF 4
ENDMDL
MODEL 4
REMARK VINA RESULT:      -7.7      2.971      4.799
REMARK  Name = 
REMARK  6 active torsions:
REMARK  status: ('A' for Active; 'I' for Inactive)
REMARK    1  A    between atoms: C_1  and  N_2
REMARK    2  A    between atoms: C_3  and  C_5
REMARK    3  A    between atoms: C_8  and  C_9
REMARK    4  A    between atoms: N_15  and  C_16
REMARK    5  A    between atoms: C_16  and  C_17
REMARK    6  A    between atoms: C_21  and  C_22
REMARK                            x       y       z     vdW  Elec       q    Type
REMARK                         _______ _______ _______ _____ _____    ______ ____
ROOT
ATOM      1  C   UNL     1       6.644   5.338  16.147  0.00  0.00    +0.000 A 
ATOM      2  C   UNL     1       7.458   6.321  16.676  0.00  0.00    +0.000 A 
ATOM      3  S   UNL     1       7.347   6.399  18.377  0.00  0.00    +0.000 S 
ATOM      4  C   UNL     1       6.214   5.128  18.419  0.00  0.00    +0.000 A 
ATOM      5  N   UNL     1       5.758   4.654  19.602  0.00  0.00    +0.000 NA
ATOM      6  C   UNL     1       4.871   3.715  19.490  0.00  0.00    +0.000 A 
ATOM      7  N   UNL     1       4.369   3.202  18.307  0.00  0.00    +0.000 N 
ATOM      8  C   UNL     1       4.781   3.707  17.070  0.00  0.00    +0.000 A 
ATOM      9  O   UNL     1       4.242   3.388  16.015  0.00  0.00    +0.000 OA
ATOM     10  C   UNL     1       5.854   4.695  17.157  0.00  0.00    +0.000 A 
ENDROOT
BRANCH   1  14
ATOM     11  C   UNL     1       6.293   3.862  12.843  0.00  0.00    +0.000 A 
ATOM     12  C   UNL     1       7.384   4.663  12.583  0.00  0.00    +0.000 A 
ATOM     13  C   UNL     1       7.653   5.379  13.776  0.00  0.00    +0.000 A 
ATOM     14  C   UNL     1       6.711   4.973  14.704  0.00  0.00    +0.000 A 
ATOM     15  O   UNL     1       5.866   4.079  14.123  0.00  0.00    +0.000 OA
BRANCH  11  18
ATOM     16  C   UNL     1       5.923   0.750  10.850  0.00  0.00    +0.000 C 
ATOM     17  N   UNL     1       6.363   1.779  11.745  0.00  0.00    +0.000 N 
ATOM     18  C   UNL     1       5.598   2.883  12.036  0.00  0.00    +0.000 C 
ATOM     19  O   UNL     1       4.445   3.022  11.636  0.00  0.00    +0.000 OA
ATOM     20  H   UNL     1       7.330   1.816  12.047  0.00  0.00    +0.000 HD
ENDBRANCH  11  18
ENDBRANCH   1  14
BRANCH   7  21
ATOM     21  C   UNL     1       3.243   2.276  18.379  0.00  0.00    +0.000 C 
BRANCH  21  22
ATOM     22  C   UNL     1       1.832   2.865  18.621  0.00  0.00    +0.000 C 
ATOM     23  C   UNL     1       1.359   3.890  17.593  0.00  0.00    +0.000 C 
ATOM     24  C   UNL     1       1.965   5.271  17.795  0.00  0.00    +0.000 C 
ATOM     25  N   UNL     1       1.875   5.775  19.157  0.00  0.00    +0.000 N 
ATOM     26  C   UNL     1       2.210   7.099  19.468  0.00  0.00    +0.000 C 
ATOM     27  C   UNL     1       2.542   8.038  18.331  0.00  0.00    +0.000 C 
ATOM     28  O   UNL     1       2.241   7.510  20.629  0.00  0.00    +0.000 OA
ATOM     29  C   UNL     1       1.974   4.844  20.274  0.00  0.00    +0.000 C 
ATOM     30  C   UNL     1       1.553   3.403  20.024  0.00  0.00    +0.000 C 
ENDBRANCH  21  22
ENDBRANCH   7  21
TORSDOF 4
ENDMDL
MODEL 5
REMARK VINA RESULT:      -7.6      2.777      8.524
REMARK  Name = 
REMARK  6 active torsions:
REMARK  status: ('A' for Active; 'I' for Inactive)
REMARK    1  A    between atoms: C_1  and  N_2
REMARK    2  A    between atoms: C_3  and  C_5
REMARK    3  A    between atoms: C_8  and  C_9
REMARK    4  A    between atoms: N_15  and  C_16
REMARK    5  A    between atoms: C_16  and  C_17
REMARK    6  A    between atoms: C_21  and  C_22
REMARK                            x       y       z     vdW  Elec       q    Type
REMARK                         _______ _______ _______ _____ _____    ______ ____
ROOT
ATOM      1  C   UNL     1       0.371  10.780  20.354  0.00  0.00    +0.000 A 
ATOM      2  C   UNL     1      -0.348  10.827  21.533  0.00  0.00    +0.000 A 
ATOM      3  S   UNL     1      -0.277   9.351  22.388  0.00  0.00    +0.000 S 
ATOM      4  C   UNL     1       0.706   8.641  21.192  0.00  0.00    +0.000 A 
ATOM      5  N   UNL     1       1.182   7.384  21.353  0.00  0.00    +0.000 NA
ATOM      6  C   UNL     1       1.883   6.950  20.353  0.00  0.00    +0.000 A 
ATOM      7  N   UNL     1       2.149   7.638  19.183  0.00  0.00    +0.000 N 
ATOM      8  C   UNL     1       1.628   8.916  18.964  0.00  0.00    +0.000 A 
ATOM      9  O   UNL     1       1.711   9.486  17.880  0.00  0.00    +0.000 OA
ATOM     10  C   UNL     1       0.919   9.476  20.112  0.00  0.00    +0.000 A 
ENDROOT
BRANCH   1  14
ATOM     11  C   UNL     1       1.609  13.810  18.773  0.00  0.00    +0.000 A 
ATOM     12  C   UNL     1       0.309  13.871  18.318  0.00  0.00    +0.000 A 
ATOM     13  C   UNL     1      -0.344  12.712  18.806  0.00  0.00    +0.000 A 
ATOM     14  C   UNL     1       0.595  12.004  19.535  0.00  0.00    +0.000 A 
ATOM     15  O   UNL     1       1.787  12.656  19.483  0.00  0.00    +0.000 OA
BRANCH  11  18
ATOM     16  C   UNL     1       5.036  14.868  17.808  0.00  0.00    +0.000 C 
ATOM     17  N   UNL     1       3.780  14.190  17.943  0.00  0.00    +0.000 N 
ATOM     18  C   UNL     1       2.723  14.724  18.640  0.00  0.00    +0.000 C 
ATOM     19  O   UNL     1       2.736  15.858  19.110  0.00  0.00    +0.000 OA
ATOM     20  H   UNL     1       3.696  13.213  17.685  0.00  0.00    +0.000 HD
ENDBRANCH  11  18
ENDBRANCH   1  14
BRANCH   7  21
ATOM     21  C   UNL     1       2.802   6.920  18.093  0.00  0.00    +0.000 C 
BRANCH  21  22
ATOM     22  C   UNL     1       3.116   5.419  18.296  0.00  0.00    +0.000 C 
ATOM     23  C   UNL     1       3.959   5.081  19.524  0.00  0.00    +0.000 C 
ATOM     24  C   UNL     1       5.442   5.361  19.334  0.00  0.00    +0.000 C 
ATOM     25  N   UNL     1       6.007   4.811  18.111  0.00  0.00    +0.000 N 
ATOM     26  C   UNL     1       7.388   4.815  17.880  0.00  0.00    +0.000 C 
ATOM     27  C   UNL     1       8.298   5.284  18.993  0.00  0.00    +0.000 C 
ATOM     28  O   UNL     1       7.873   4.451  16.807  0.00  0.00    +0.000 OA
ATOM     29  C   UNL     1       5.188   4.755  16.906  0.00  0.00    +0.000 C 
ATOM     30  C   UNL     1       3.680   4.672  17.087  0.00  0.00    +0.000 C 
ENDBRANCH  21  22
ENDBRANCH   7  21
TORSDOF 4
ENDMDL
MODEL 6
REMARK VINA RESULT:      -7.6      0.991      1.002
REMARK  Name = 
REMARK  6 active torsions:
REMARK  status: ('A' for Active; 'I' for Inactive)
REMARK    1  A    between atoms: C_1  and  N_2
REMARK    2  A    between atoms: C_3  and  C_5
REMARK    3  A    between atoms: C_8  and  C_9
REMARK    4  A    between atoms: N_15  and  C_16
REMARK    5  A    between atoms: C_16  and  C_17
REMARK    6  A    between atoms: C_21  and  C_22
REMARK                            x       y       z     vdW  Elec       q    Type
REMARK                         _______ _______ _______ _____ _____    ______ ____
ROOT
ATOM      1  C   UNL     1       4.432   3.943  18.880  0.00  0.00    +0.000 A 
ATOM      2  C   UNL     1       4.247   2.628  19.263  0.00  0.00    +0.000 A 
ATOM      3  S   UNL     1       2.838   2.427  20.206  0.00  0.00    +0.000 S 
ATOM      4  C   UNL     1       2.470   4.087  20.112  0.00  0.00    +0.000 A 
ATOM      5  N   UNL     1       1.332   4.569  20.665  0.00  0.00    +0.000 NA
ATOM      6  C   UNL     1       1.193   5.854  20.557  0.00  0.00    +0.000 A 
ATOM      7  N   UNL     1       2.089   6.724  19.963  0.00  0.00    +0.000 N 
ATOM      8  C   UNL     1       3.297   6.265  19.431  0.00  0.00    +0.000 A 
ATOM      9  O   UNL     1       4.180   7.025  19.044  0.00  0.00    +0.000 OA
ATOM     10  C   UNL     1       3.440   4.810  19.445  0.00  0.00    +0.000 A 
ENDROOT
BRANCH   1  14
ATOM     11  C   UNL     1       6.534   4.526  15.971  0.00  0.00    +0.000 A 
ATOM     12  C   UNL     1       7.465   4.815  16.946  0.00  0.00    +0.000 A 
ATOM     13  C   UNL     1       6.801   4.686  18.191  0.00  0.00    +0.000 A 
ATOM     14  C   UNL     1       5.497   4.322  17.909  0.00  0.00    +0.000 A 
ATOM     15  O   UNL     1       5.330   4.260  16.560  0.00  0.00    +0.000 OA
BRANCH  11  18
ATOM     16  C   UNL     1       7.855   5.380  12.608  0.00  0.00    +0.000 C 
ATOM     17  N   UNL     1       7.657   5.207  14.017  0.00  0.00    +0.000 N 
ATOM     18  C   UNL     1       6.636   4.445  14.531  0.00  0.00    +0.000 C 
ATOM     19  O   UNL     1       5.883   3.775  13.829  0.00  0.00    +0.000 OA
ATOM     20  H   UNL     1       8.153   5.792  14.679  0.00  0.00    +0.000 HD
ENDBRANCH  11  18
ENDBRANCH   1  14
BRANCH   7  21
ATOM     21  C   UNL     1       1.851   8.159  20.098  0.00  0.00    +0.000 C 
BRANCH  21  22
ATOM     22  C   UNL     1       0.912   8.839  19.072  0.00  0.00    +0.000 C 
ATOM     23  C   UNL     1       1.600   9.459  17.858  0.00  0.00    +0.000 C 
ATOM     24  C   UNL     1       2.247  10.804  18.152  0.00  0.00    +0.000 C 
ATOM     25  N   UNL     1       1.382  11.752  18.837  0.00  0.00    +0.000 N 
ATOM     26  C   UNL     1       1.757  13.090  19.009  0.00  0.00    +0.000 C 
ATOM     27  C   UNL     1       3.030  13.565  18.347  0.00  0.00    +0.000 C 
ATOM     28  O   UNL     1       1.085  13.877  19.678  0.00  0.00    +0.000 OA
ATOM     29  C   UNL     1       0.410  11.262  19.808  0.00  0.00    +0.000 C 
ATOM     30  C   UNL     1      -0.098   9.839  19.635  0.00  0.00    +0.000 C 
ENDBRANCH  21  22
ENDBRANCH   7  21
TORSDOF 4
ENDMDL
MODEL 7
REMARK VINA RESULT:      -7.5      1.152      1.252
REMARK  Name = 
REMARK  6 active torsions:
REMARK  status: ('A' for Active; 'I' for Inactive)
REMARK    1  A    between atoms: C_1  and  N_2
REMARK    2  A    between atoms: C_3  and  C_5
REMARK    3  A    between atoms: C_8  and  C_9
REMARK    4  A    between atoms: N_15  and  C_16
REMARK    5  A    between atoms: C_16  and  C_17
REMARK    6  A    between atoms: C_21  and  C_22
REMARK                            x       y       z     vdW  Elec       q    Type
REMARK                         _______ _______ _______ _____ _____    ______ ____
ROOT
ATOM      1  C   UNL     1       4.568   4.083  18.878  0.00  0.00    +0.000 A 
ATOM      2  C   UNL     1       4.410   2.805  19.379  0.00  0.00    +0.000 A 
ATOM      3  S   UNL     1       2.986   2.650  20.307  0.00  0.00    +0.000 S 
ATOM      4  C   UNL     1       2.574   4.283  20.051  0.00  0.00    +0.000 A 
ATOM      5  N   UNL     1       1.410   4.780  20.532  0.00  0.00    +0.000 NA
ATOM      6  C   UNL     1       1.238   6.043  20.302  0.00  0.00    +0.000 A 
ATOM      7  N   UNL     1       2.123   6.882  19.648  0.00  0.00    +0.000 N 
ATOM      8  C   UNL     1       3.355   6.412  19.186  0.00  0.00    +0.000 A 
ATOM      9  O   UNL     1       4.225   7.158  18.748  0.00  0.00    +0.000 OA
ATOM     10  C   UNL     1       3.538   4.969  19.339  0.00  0.00    +0.000 A 
ENDROOT
BRANCH   1  14
ATOM     11  C   UNL     1       6.651   4.604  15.945  0.00  0.00    +0.000 A 
ATOM     12  C   UNL     1       7.630   4.740  16.905  0.00  0.00    +0.000 A 
ATOM     13  C   UNL     1       6.985   4.612  18.161  0.00  0.00    +0.000 A 
ATOM     14  C   UNL     1       5.643   4.403  17.898  0.00  0.00    +0.000 A 
ATOM     15  O   UNL     1       5.440   4.433  16.553  0.00  0.00    +0.000 OA
BRANCH  11  18
ATOM     16  C   UNL     1       6.016   3.285  12.532  0.00  0.00    +0.000 C 
ATOM     17  N   UNL     1       5.989   3.566  13.937  0.00  0.00    +0.000 N 
ATOM     18  C   UNL     1       6.710   4.592  14.499  0.00  0.00    +0.000 C 
ATOM     19  O   UNL     1       7.346   5.405  13.835  0.00  0.00    +0.000 OA
ATOM     20  H   UNL     1       5.583   2.900  14.584  0.00  0.00    +0.000 HD
ENDBRANCH  11  18
ENDBRANCH   1  14
BRANCH   7  21
ATOM     21  C   UNL     1       1.841   8.315  19.643  0.00  0.00    +0.000 C 
BRANCH  21  22
ATOM     22  C   UNL     1       1.396   8.963  18.310  0.00  0.00    +0.000 C 
ATOM     23  C   UNL     1       2.265  10.117  17.815  0.00  0.00    +0.000 C 
ATOM     24  C   UNL     1       1.997  11.429  18.539  0.00  0.00    +0.000 C 
ATOM     25  N   UNL     1       0.592  11.795  18.620  0.00  0.00    +0.000 N 
ATOM     26  C   UNL     1       0.192  13.055  19.081  0.00  0.00    +0.000 C 
ATOM     27  C   UNL     1       1.262  14.083  19.368  0.00  0.00    +0.000 C 
ATOM     28  O   UNL     1      -0.994  13.342  19.256  0.00  0.00    +0.000 OA
ATOM     29  C   UNL     1      -0.414  10.748  18.760  0.00  0.00    +0.000 C 
ATOM     30  C   UNL     1      -0.073   9.371  18.211  0.00  0.00    +0.000 C 
ENDBRANCH  21  22
ENDBRANCH   7  21
TORSDOF 4
ENDMDL
MODEL 8
REMARK VINA RESULT:      -7.4      1.400      1.671
REMARK  Name = 
REMARK  6 active torsions:
REMARK  status: ('A' for Active; 'I' for Inactive)
REMARK    1  A    between atoms: C_1  and  N_2
REMARK    2  A    between atoms: C_3  and  C_5
REMARK    3  A    between atoms: C_8  and  C_9
REMARK    4  A    between atoms: N_15  and  C_16
REMARK    5  A    between atoms: C_16  and  C_17
REMARK    6  A    between atoms: C_21  and  C_22
REMARK                            x       y       z     vdW  Elec       q    Type
REMARK                         _______ _______ _______ _____ _____    ______ ____
ROOT
ATOM      1  C   UNL     1       4.921   4.375  17.568  0.00  0.00    +0.000 A 
ATOM      2  C   UNL     1       5.034   3.197  18.281  0.00  0.00    +0.000 A 
ATOM      3  S   UNL     1       3.989   3.161  19.631  0.00  0.00    +0.000 S 
ATOM      4  C   UNL     1       3.384   4.713  19.275  0.00  0.00    +0.000 A 
ATOM      5  N   UNL     1       2.393   5.251  20.024  0.00  0.00    +0.000 NA
ATOM      6  C   UNL     1       2.054   6.451  19.672  0.00  0.00    +0.000 A 
ATOM      7  N   UNL     1       2.618   7.191  18.649  0.00  0.00    +0.000 N 
ATOM      8  C   UNL     1       3.679   6.685  17.892  0.00  0.00    +0.000 A 
ATOM      9  O   UNL     1       4.303   7.371  17.088  0.00  0.00    +0.000 OA
ATOM     10  C   UNL     1       4.018   5.296  18.195  0.00  0.00    +0.000 A 
ENDROOT
BRANCH   1  14
ATOM     11  C   UNL     1       6.097   4.219  14.132  0.00  0.00    +0.000 A 
ATOM     12  C   UNL     1       7.113   4.993  14.650  0.00  0.00    +0.000 A 
ATOM     13  C   UNL     1       6.799   5.210  16.015  0.00  0.00    +0.000 A 
ATOM     14  C   UNL     1       5.606   4.554  16.257  0.00  0.00    +0.000 A 
ATOM     15  O   UNL     1       5.166   3.983  15.104  0.00  0.00    +0.000 OA
BRANCH  11  18
ATOM     16  C   UNL     1       4.132   3.056  11.203  0.00  0.00    +0.000 C 
ATOM     17  N   UNL     1       4.583   3.688  12.408  0.00  0.00    +0.000 N 
ATOM     18  C   UNL     1       5.893   3.643  12.820  0.00  0.00    +0.000 C 
ATOM     19  O   UNL     1       6.791   3.152  12.142  0.00  0.00    +0.000 OA
ATOM     20  H   UNL     1       3.913   4.029  13.088  0.00  0.00    +0.000 HD
ENDBRANCH  11  18
ENDBRANCH   1  14
BRANCH   7  21
ATOM     21  C   UNL     1       2.232   8.593  18.516  0.00  0.00    +0.000 C 
BRANCH  21  22
ATOM     22  C   UNL     1       0.830   9.012  19.019  0.00  0.00    +0.000 C 
ATOM     23  C   UNL     1       0.152  10.129  18.230  0.00  0.00    +0.000 C 
ATOM     24  C   UNL     1       0.682  11.515  18.569  0.00  0.00    +0.000 C 
ATOM     25  N   UNL     1       0.742  11.806  19.993  0.00  0.00    +0.000 N 
ATOM     26  C   UNL     1       1.024  13.094  20.463  0.00  0.00    +0.000 C 
ATOM     27  C   UNL     1       1.132  14.215  19.454  0.00  0.00    +0.000 C 
ATOM     28  O   UNL     1       1.182  13.333  21.662  0.00  0.00    +0.000 OA
ATOM     29  C   UNL     1       1.056  10.734  20.930  0.00  0.00    +0.000 C 
ATOM     30  C   UNL     1       0.706   9.313  20.513  0.00  0.00    +0.000 C 
ENDBRANCH  21  22
ENDBRANCH   7  21
TORSDOF 4
ENDMDL
MODEL 9
REMARK VINA RESULT:      -7.4      4.431     10.420
REMARK  Name = 
REMARK  6 active torsions:
REMARK  status: ('A' for Active; 'I' for Inactive)
REMARK    1  A    between atoms: C_1  and  N_2
REMARK    2  A    between atoms: C_3  and  C_5
REMARK    3  A    between atoms: C_8  and  C_9
REMARK    4  A    between atoms: N_15  and  C_16
REMARK    5  A    between atoms: C_16  and  C_17
REMARK    6  A    between atoms: C_21  and  C_22
REMARK                            x       y       z     vdW  Elec       q    Type
REMARK                         _______ _______ _______ _____ _____    ______ ____
ROOT
ATOM      1  C   UNL     1       0.199  12.519  20.781  0.00  0.00    +0.000 A 
ATOM      2  C   UNL     1       0.764  13.778  20.725  0.00  0.00    +0.000 A 
ATOM      3  S   UNL     1       1.967  13.888  19.518  0.00  0.00    +0.000 S 
ATOM      4  C   UNL     1       1.743  12.261  19.067  0.00  0.00    +0.000 A 
ATOM      5  N   UNL     1       2.433  11.736  18.027  0.00  0.00    +0.000 NA
ATOM      6  C   UNL     1       2.199  10.479  17.816  0.00  0.00    +0.000 A 
ATOM      7  N   UNL     1       1.351   9.672  18.552  0.00  0.00    +0.000 N 
ATOM      8  C   UNL     1       0.666  10.169  19.664  0.00  0.00    +0.000 A 
ATOM      9  O   UNL     1       0.035   9.446  20.429  0.00  0.00    +0.000 OA
ATOM     10  C   UNL     1       0.827  11.608  19.869  0.00  0.00    +0.000 A 
ENDROOT
BRANCH   1  14
ATOM     11  C   UNL     1      -3.055  12.400  22.400  0.00  0.00    +0.000 A 
ATOM     12  C   UNL     1      -2.339  11.703  23.350  0.00  0.00    +0.000 A 
ATOM     13  C   UNL     1      -1.013  11.600  22.862  0.00  0.00    +0.000 A 
ATOM     14  C   UNL     1      -0.989  12.243  21.637  0.00  0.00    +0.000 A 
ATOM     15  O   UNL     1      -2.238  12.696  21.345  0.00  0.00    +0.000 OA
BRANCH  11  18
ATOM     16  C   UNL     1      -6.527  12.814  23.650  0.00  0.00    +0.000 C 
ATOM     17  N   UNL     1      -5.120  12.576  23.518  0.00  0.00    +0.000 N 
ATOM     18  C   UNL     1      -4.429  12.851  22.363  0.00  0.00    +0.000 C 
ATOM     19  O   UNL     1      -4.937  13.413  21.397  0.00  0.00    +0.000 OA
ATOM     20  H   UNL     1      -4.627  12.025  24.212  0.00  0.00    +0.000 HD
ENDBRANCH  11  18
ENDBRANCH   1  14
BRANCH   7  21
ATOM     21  C   UNL     1       1.354   8.237  18.280  0.00  0.00    +0.000 C 
BRANCH  21  22
ATOM     22  C   UNL     1       2.560   7.405  18.777  0.00  0.00    +0.000 C 
ATOM     23  C   UNL     1       2.949   6.218  17.899  0.00  0.00    +0.000 C 
ATOM     24  C   UNL     1       2.044   5.008  18.083  0.00  0.00    +0.000 C 
ATOM     25  N   UNL     1       1.830   4.621  19.468  0.00  0.00    +0.000 N 
ATOM     26  C   UNL     1       1.183   3.424  19.799  0.00  0.00    +0.000 C 
ATOM     27  C   UNL     1       0.828   2.471  18.681  0.00  0.00    +0.000 C 
ATOM     28  O   UNL     1       0.901   3.133  20.963  0.00  0.00    +0.000 OA
ATOM     29  C   UNL     1       1.770   5.650  20.499  0.00  0.00    +0.000 C 
ATOM     30  C   UNL     1       2.515   6.950  20.236  0.00  0.00    +0.000 C 
ENDBRANCH  21  22
ENDBRANCH   7  21
TORSDOF 4
ENDMDL
