MODEL 1
REMARK VINA RESULT:      -7.3      0.000      0.000
REMARK  Name = 
REMARK  5 active torsions:
REMARK  status: ('A' for Active; 'I' for Inactive)
REMARK    1  A    between atoms: C_1  and  C_2
REMARK    2  A    between atoms: C_6  and  N_7
REMARK    3  A    between atoms: C_8  and  C_10
REMARK    4  A    between atoms: C_13  and  C_14
REMARK    5  A    between atoms: C_14  and  O_16
REMARK                            x       y       z     vdW  Elec       q    Type
REMARK                         _______ _______ _______ _____ _____    ______ ____
ROOT
ATOM      1  N   UNL     1       2.501   7.731  18.684  0.00  0.00    +0.000 N 
ATOM      2  C   UNL     1       2.669   6.356  18.600  0.00  0.00    +0.000 C 
ATOM      3  O   UNL     1       2.042   5.510  19.227  0.00  0.00    +0.000 OA
ATOM      4  H   UNL     1       3.106   8.323  18.134  0.00  0.00    +0.000 HD
ENDROOT
BRANCH   1  10
ATOM      5  C   UNL     1      -0.630  11.482  19.318  0.00  0.00    +0.000 C 
ATOM      6  C   UNL     1       0.054  10.263  19.863  0.00  0.00    +0.000 A 
ATOM      7  C   UNL     1      -0.063   9.931  21.216  0.00  0.00    +0.000 A 
ATOM      8  C   UNL     1       0.628   8.838  21.731  0.00  0.00    +0.000 A 
ATOM      9  C   UNL     1       1.470   8.088  20.906  0.00  0.00    +0.000 A 
ATOM     10  C   UNL     1       1.615   8.409  19.556  0.00  0.00    +0.000 A 
ATOM     11  C   UNL     1       0.872   9.478  19.033  0.00  0.00    +0.000 A 
ENDBRANCH   1  10
BRANCH   2  12
ATOM     12  C   UNL     1       3.731   5.866  17.670  0.00  0.00    +0.000 A 
ATOM     13  C   UNL     1       3.853   4.524  17.293  0.00  0.00    +0.000 A 
ATOM     14  C   UNL     1       4.825   4.145  16.356  0.00  0.00    +0.000 A 
ATOM     15  C   UNL     1       5.677   5.097  15.781  0.00  0.00    +0.000 A 
ATOM     16  C   UNL     1       5.547   6.443  16.140  0.00  0.00    +0.000 A 
ATOM     17  C   UNL     1       4.582   6.819  17.084  0.00  0.00    +0.000 A 
BRANCH  15  18
ATOM     18  C   UNL     1       6.637   4.635  14.740  0.00  0.00    +0.000 C 
ATOM     19  O   UNL     1       7.597   5.302  14.397  0.00  0.00    +0.000 OA
BRANCH  18  20
ATOM     20  O   UNL     1       6.335   3.447  14.183  0.00  0.00    +0.000 OA
ATOM     21  H   UNL     1       6.597   3.332  13.252  0.00  0.00    +0.000 HD
ENDBRANCH  18  20
ENDBRANCH  15  18
ENDBRANCH   2  12
TORSDOF 4
ENDMDL
MODEL 2
REMARK VINA RESULT:      -7.3      3.778      8.146
REMARK  Name = 
REMARK  5 active torsions:
REMARK  status: ('A' for Active; 'I' for Inactive)
REMARK    1  A    between atoms: C_1  and  C_2
REMARK    2  A    between atoms: C_6  and  N_7
REMARK    3  A    between atoms: C_8  and  C_10
REMARK    4  A    between atoms: C_13  and  C_14
REMARK    5  A    between atoms: C_14  and  O_16
REMARK                            x       y       z     vdW  Elec       q    Type
REMARK                         _______ _______ _______ _____ _____    ______ ____
ROOT
ATOM      1  N   UNL     1       5.105   4.075  15.703  0.00  0.00    +0.000 N 
ATOM      2  C   UNL     1       4.689   5.113  16.524  0.00  0.00    +0.000 C 
ATOM      3  O   UNL     1       4.862   6.310  16.323  0.00  0.00    +0.000 OA
ATOM      4  H   UNL     1       4.927   3.127  16.000  0.00  0.00    +0.000 HD
ENDROOT
BRANCH   1  10
ATOM      5  C   UNL     1       5.978   2.426  11.143  0.00  0.00    +0.000 C 
ATOM      6  C   UNL     1       6.282   3.396  12.247  0.00  0.00    +0.000 A 
ATOM      7  C   UNL     1       7.372   4.265  12.146  0.00  0.00    +0.000 A 
ATOM      8  C   UNL     1       7.690   5.114  13.202  0.00  0.00    +0.000 A 
ATOM      9  C   UNL     1       6.943   5.078  14.381  0.00  0.00    +0.000 A 
ATOM     10  C   UNL     1       5.860   4.207  14.512  0.00  0.00    +0.000 A 
ATOM     11  C   UNL     1       5.512   3.394  13.423  0.00  0.00    +0.000 A 
ENDBRANCH   1  10
BRANCH   2  12
ATOM     12  C   UNL     1       3.981   4.730  17.783  0.00  0.00    +0.000 A 
ATOM     13  C   UNL     1       2.762   5.295  18.174  0.00  0.00    +0.000 A 
ATOM     14  C   UNL     1       2.113   4.833  19.327  0.00  0.00    +0.000 A 
ATOM     15  C   UNL     1       2.667   3.803  20.098  0.00  0.00    +0.000 A 
ATOM     16  C   UNL     1       3.876   3.221  19.701  0.00  0.00    +0.000 A 
ATOM     17  C   UNL     1       4.528   3.690  18.553  0.00  0.00    +0.000 A 
BRANCH  15  18
ATOM     18  C   UNL     1       1.889   3.313  21.271  0.00  0.00    +0.000 C 
ATOM     19  O   UNL     1       2.384   3.197  22.377  0.00  0.00    +0.000 OA
BRANCH  18  20
ATOM     20  O   UNL     1       0.616   2.972  20.998  0.00  0.00    +0.000 OA
ATOM     21  H   UNL     1       0.175   2.403  21.655  0.00  0.00    +0.000 HD
ENDBRANCH  18  20
ENDBRANCH  15  18
ENDBRANCH   2  12
TORSDOF 4
ENDMDL
MODEL 3
REMARK VINA RESULT:      -7.2      1.445      2.269
REMARK  Name = 
REMARK  5 active torsions:
REMARK  status: ('A' for Active; 'I' for Inactive)
REMARK    1  A    between atoms: C_1  and  C_2
REMARK    2  A    between atoms: C_6  and  N_7
REMARK    3  A    between atoms: C_8  and  C_10
REMARK    4  A    between atoms: C_13  and  C_14
REMARK    5  A    between atoms: C_14  and  O_16
REMARK                            x       y       z     vdW  Elec       q    Type
REMARK                         _______ _______ _______ _____ _____    ______ ____
ROOT
ATOM      1  N   UNL     1       2.316   8.214  18.894  0.00  0.00    +0.000 N 
ATOM      2  C   UNL     1       2.568   6.881  19.184  0.00  0.00    +0.000 C 
ATOM      3  O   UNL     1       1.928   6.173  19.954  0.00  0.00    +0.000 OA
ATOM      4  H   UNL     1       2.941   8.695  18.264  0.00  0.00    +0.000 HD
ENDROOT
BRANCH   1  10
ATOM      5  C   UNL     1      -0.107   9.485  22.991  0.00  0.00    +0.000 C 
ATOM      6  C   UNL     1       0.117   9.654  21.517  0.00  0.00    +0.000 A 
ATOM      7  C   UNL     1      -0.749  10.444  20.755  0.00  0.00    +0.000 A 
ATOM      8  C   UNL     1      -0.577  10.542  19.378  0.00  0.00    +0.000 A 
ATOM      9  C   UNL     1       0.441   9.824  18.744  0.00  0.00    +0.000 A 
ATOM     10  C   UNL     1       1.308   9.017  19.481  0.00  0.00    +0.000 A 
ATOM     11  C   UNL     1       1.162   8.967  20.876  0.00  0.00    +0.000 A 
ENDBRANCH   1  10
BRANCH   2  12
ATOM     12  C   UNL     1       3.746   6.259  18.508  0.00  0.00    +0.000 A 
ATOM     13  C   UNL     1       4.178   6.635  17.231  0.00  0.00    +0.000 A 
ATOM     14  C   UNL     1       5.339   6.065  16.689  0.00  0.00    +0.000 A 
ATOM     15  C   UNL     1       6.082   5.123  17.412  0.00  0.00    +0.000 A 
ATOM     16  C   UNL     1       5.666   4.758  18.697  0.00  0.00    +0.000 A 
ATOM     17  C   UNL     1       4.501   5.321  19.234  0.00  0.00    +0.000 A 
BRANCH  15  18
ATOM     18  C   UNL     1       7.343   4.614  16.803  0.00  0.00    +0.000 C 
ATOM     19  O   UNL     1       7.558   4.673  15.606  0.00  0.00    +0.000 OA
BRANCH  18  20
ATOM     20  O   UNL     1       8.200   4.048  17.674  0.00  0.00    +0.000 OA
ATOM     21  H   UNL     1       9.143   4.091  17.435  0.00  0.00    +0.000 HD
ENDBRANCH  18  20
ENDBRANCH  15  18
ENDBRANCH   2  12
TORSDOF 4
ENDMDL
MODEL 4
REMARK VINA RESULT:      -7.2      0.363      1.165
REMARK  Name = 
REMARK  5 active torsions:
REMARK  status: ('A' for Active; 'I' for Inactive)
REMARK    1  A    between atoms: C_1  and  C_2
REMARK    2  A    between atoms: C_6  and  N_7
REMARK    3  A    between atoms: C_8  and  C_10
REMARK    4  A    between atoms: C_13  and  C_14
REMARK    5  A    between atoms: C_14  and  O_16
REMARK                            x       y       z     vdW  Elec       q    Type
REMARK                         _______ _______ _______ _____ _____    ______ ____
ROOT
ATOM      1  N   UNL     1       2.281   7.910  18.854  0.00  0.00    +0.000 N 
ATOM      2  C   UNL     1       2.538   6.549  18.781  0.00  0.00    +0.000 C 
ATOM      3  O   UNL     1       2.043   5.679  19.489  0.00  0.00    +0.000 OA
ATOM      4  H   UNL     1       2.781   8.528  18.232  0.00  0.00    +0.000 HD
ENDROOT
BRANCH   1  10
ATOM      5  C   UNL     1      -1.075  11.410  19.728  0.00  0.00    +0.000 C 
ATOM      6  C   UNL     1      -0.228  10.277  20.229  0.00  0.00    +0.000 A 
ATOM      7  C   UNL     1      -0.159   9.997  21.597  0.00  0.00    +0.000 A 
ATOM      8  C   UNL     1       0.681   8.989  22.063  0.00  0.00    +0.000 A 
ATOM      9  C   UNL     1       1.485   8.277  21.170  0.00  0.00    +0.000 A 
ATOM     10  C   UNL     1       1.445   8.549  19.802  0.00  0.00    +0.000 A 
ATOM     11  C   UNL     1       0.555   9.528  19.335  0.00  0.00    +0.000 A 
ENDBRANCH   1  10
BRANCH   2  12
ATOM     12  C   UNL     1       3.529   6.107  17.754  0.00  0.00    +0.000 A 
ATOM     13  C   UNL     1       4.383   6.995  17.089  0.00  0.00    +0.000 A 
ATOM     14  C   UNL     1       5.344   6.503  16.194  0.00  0.00    +0.000 A 
ATOM     15  C   UNL     1       5.467   5.128  15.956  0.00  0.00    +0.000 A 
ATOM     16  C   UNL     1       4.629   4.236  16.633  0.00  0.00    +0.000 A 
ATOM     17  C   UNL     1       3.663   4.728  17.520  0.00  0.00    +0.000 A 
BRANCH  15  18
ATOM     18  C   UNL     1       6.557   4.673  15.047  0.00  0.00    +0.000 C 
ATOM     19  O   UNL     1       7.553   5.341  14.840  0.00  0.00    +0.000 OA
BRANCH  18  20
ATOM     20  O   UNL     1       6.330   3.490  14.447  0.00  0.00    +0.000 OA
ATOM     21  H   UNL     1       6.435   2.699  15.006  0.00  0.00    +0.000 HD
ENDBRANCH  18  20
ENDBRANCH  15  18
ENDBRANCH   2  12
TORSDOF 4
ENDMDL
MODEL 5
REMARK VINA RESULT:      -7.1      3.997      8.277
REMARK  Name = 
REMARK  5 active torsions:
REMARK  status: ('A' for Active; 'I' for Inactive)
REMARK    1  A    between atoms: C_1  and  C_2
REMARK    2  A    between atoms: C_6  and  N_7
REMARK    3  A    between atoms: C_8  and  C_10
REMARK    4  A    between atoms: C_13  and  C_14
REMARK    5  A    between atoms: C_14  and  O_16
REMARK                            x       y       z     vdW  Elec       q    Type
REMARK                         _______ _______ _______ _____ _____    ______ ____
ROOT
ATOM      1  N   UNL     1       5.190   4.237  15.594  0.00  0.00    +0.000 N 
ATOM      2  C   UNL     1       5.734   4.273  16.870  0.00  0.00    +0.000 C 
ATOM      3  O   UNL     1       6.920   4.407  17.149  0.00  0.00    +0.000 OA
ATOM      4  H   UNL     1       4.196   4.088  15.499  0.00  0.00    +0.000 HD
ENDROOT
BRANCH   1  10
ATOM      5  C   UNL     1       6.016   2.234  11.169  0.00  0.00    +0.000 C 
ATOM      6  C   UNL     1       6.313   3.302  12.180  0.00  0.00    +0.000 A 
ATOM      7  C   UNL     1       7.374   4.191  11.980  0.00  0.00    +0.000 A 
ATOM      8  C   UNL     1       7.688   5.136  12.953  0.00  0.00    +0.000 A 
ATOM      9  C   UNL     1       6.967   5.178  14.149  0.00  0.00    +0.000 A 
ATOM     10  C   UNL     1       5.915   4.291  14.379  0.00  0.00    +0.000 A 
ATOM     11  C   UNL     1       5.569   3.378  13.370  0.00  0.00    +0.000 A 
ENDBRANCH   1  10
BRANCH   2  12
ATOM     12  C   UNL     1       4.781   4.108  18.009  0.00  0.00    +0.000 A 
ATOM     13  C   UNL     1       4.458   5.148  18.888  0.00  0.00    +0.000 A 
ATOM     14  C   UNL     1       3.497   4.946  19.889  0.00  0.00    +0.000 A 
ATOM     15  C   UNL     1       2.845   3.713  20.020  0.00  0.00    +0.000 A 
ATOM     16  C   UNL     1       3.151   2.675  19.132  0.00  0.00    +0.000 A 
ATOM     17  C   UNL     1       4.118   2.876  18.138  0.00  0.00    +0.000 A 
BRANCH  15  18
ATOM     18  C   UNL     1       1.784   3.591  21.059  0.00  0.00    +0.000 C 
ATOM     19  O   UNL     1       2.036   3.301  22.215  0.00  0.00    +0.000 OA
BRANCH  18  20
ATOM     20  O   UNL     1       0.531   3.787  20.609  0.00  0.00    +0.000 OA
ATOM     21  H   UNL     1      -0.185   3.616  21.248  0.00  0.00    +0.000 HD
ENDBRANCH  18  20
ENDBRANCH  15  18
ENDBRANCH   2  12
TORSDOF 4
ENDMDL
MODEL 6
REMARK VINA RESULT:      -7.0      0.600      1.553
REMARK  Name = 
REMARK  5 active torsions:
REMARK  status: ('A' for Active; 'I' for Inactive)
REMARK    1  A    between atoms: C_1  and  C_2
REMARK    2  A    between atoms: C_6  and  N_7
REMARK    3  A    between atoms: C_8  and  C_10
REMARK    4  A    between atoms: C_13  and  C_14
REMARK    5  A    between atoms: C_14  and  O_16
REMARK                            x       y       z     vdW  Elec       q    Type
REMARK                         _______ _______ _______ _____ _____    ______ ____
ROOT
ATOM      1  N   UNL     1       2.318   8.149  18.287  0.00  0.00    +0.000 N 
ATOM      2  C   UNL     1       2.600   6.809  18.513  0.00  0.00    +0.000 C 
ATOM      3  O   UNL     1       2.059   6.083  19.340  0.00  0.00    +0.000 OA
ATOM      4  H   UNL     1       2.861   8.644  17.596  0.00  0.00    +0.000 HD
ENDROOT
BRANCH   1  10
ATOM      5  C   UNL     1       0.396   9.293  22.677  0.00  0.00    +0.000 C 
ATOM      6  C   UNL     1       0.452   9.512  21.194  0.00  0.00    +0.000 A 
ATOM      7  C   UNL     1      -0.486  10.335  20.564  0.00  0.00    +0.000 A 
ATOM      8  C   UNL     1      -0.472  10.480  19.180  0.00  0.00    +0.000 A 
ATOM      9  C   UNL     1       0.458   9.778  18.409  0.00  0.00    +0.000 A 
ATOM     10  C   UNL     1       1.394   8.938  19.014  0.00  0.00    +0.000 A 
ATOM     11  C   UNL     1       1.408   8.840  20.414  0.00  0.00    +0.000 A 
ENDBRANCH   1  10
BRANCH   2  12
ATOM     12  C   UNL     1       3.683   6.202  17.682  0.00  0.00    +0.000 A 
ATOM     13  C   UNL     1       3.762   4.830  17.417  0.00  0.00    +0.000 A 
ATOM     14  C   UNL     1       4.761   4.338  16.564  0.00  0.00    +0.000 A 
ATOM     15  C   UNL     1       5.683   5.205  15.964  0.00  0.00    +0.000 A 
ATOM     16  C   UNL     1       5.597   6.579  16.210  0.00  0.00    +0.000 A 
ATOM     17  C   UNL     1       4.605   7.069  17.070  0.00  0.00    +0.000 A 
BRANCH  15  18
ATOM     18  C   UNL     1       6.672   4.621  15.013  0.00  0.00    +0.000 C 
ATOM     19  O   UNL     1       7.706   5.192  14.719  0.00  0.00    +0.000 OA
BRANCH  18  20
ATOM     20  O   UNL     1       6.309   3.440  14.479  0.00  0.00    +0.000 OA
ATOM     21  H   UNL     1       6.997   2.969  13.975  0.00  0.00    +0.000 HD
ENDBRANCH  18  20
ENDBRANCH  15  18
ENDBRANCH   2  12
TORSDOF 4
ENDMDL
MODEL 7
REMARK VINA RESULT:      -7.0      1.762      2.328
REMARK  Name = 
REMARK  5 active torsions:
REMARK  status: ('A' for Active; 'I' for Inactive)
REMARK    1  A    between atoms: C_1  and  C_2
REMARK    2  A    between atoms: C_6  and  N_7
REMARK    3  A    between atoms: C_8  and  C_10
REMARK    4  A    between atoms: C_13  and  C_14
REMARK    5  A    between atoms: C_14  and  O_16
REMARK                            x       y       z     vdW  Elec       q    Type
REMARK                         _______ _______ _______ _____ _____    ______ ____
ROOT
ATOM      1  N   UNL     1       1.993   8.732  17.669  0.00  0.00    +0.000 N 
ATOM      2  C   UNL     1       2.484   7.690  18.442  0.00  0.00    +0.000 C 
ATOM      3  O   UNL     1       2.170   7.434  19.599  0.00  0.00    +0.000 OA
ATOM      4  H   UNL     1       2.361   8.853  16.736  0.00  0.00    +0.000 HD
ENDROOT
BRANCH   1  10
ATOM      5  C   UNL     1      -2.671  10.313  17.780  0.00  0.00    +0.000 C 
ATOM      6  C   UNL     1      -1.233  10.503  18.162  0.00  0.00    +0.000 A 
ATOM      7  C   UNL     1      -0.811  11.693  18.764  0.00  0.00    +0.000 A 
ATOM      8  C   UNL     1       0.536  11.891  19.053  0.00  0.00    +0.000 A 
ATOM      9  C   UNL     1       1.478  10.917  18.713  0.00  0.00    +0.000 A 
ATOM     10  C   UNL     1       1.083   9.729  18.098  0.00  0.00    +0.000 A 
ATOM     11  C   UNL     1      -0.283   9.513  17.860  0.00  0.00    +0.000 A 
ENDBRANCH   1  10
BRANCH   2  12
ATOM     12  C   UNL     1       3.510   6.809  17.806  0.00  0.00    +0.000 A 
ATOM     13  C   UNL     1       4.506   7.295  16.951  0.00  0.00    +0.000 A 
ATOM     14  C   UNL     1       5.486   6.425  16.451  0.00  0.00    +0.000 A 
ATOM     15  C   UNL     1       5.487   5.068  16.801  0.00  0.00    +0.000 A 
ATOM     16  C   UNL     1       4.505   4.581  17.671  0.00  0.00    +0.000 A 
ATOM     17  C   UNL     1       3.521   5.450  18.162  0.00  0.00    +0.000 A 
BRANCH  15  18
ATOM     18  C   UNL     1       6.599   4.217  16.291  0.00  0.00    +0.000 C 
ATOM     19  O   UNL     1       7.768   4.475  16.509  0.00  0.00    +0.000 OA
BRANCH  18  20
ATOM     20  O   UNL     1       6.207   3.172  15.538  0.00  0.00    +0.000 OA
ATOM     21  H   UNL     1       6.140   3.335  14.580  0.00  0.00    +0.000 HD
ENDBRANCH  18  20
ENDBRANCH  15  18
ENDBRANCH   2  12
TORSDOF 4
ENDMDL
MODEL 8
REMARK VINA RESULT:      -6.9      2.475      7.709
REMARK  Name = 
REMARK  5 active torsions:
REMARK  status: ('A' for Active; 'I' for Inactive)
REMARK    1  A    between atoms: C_1  and  C_2
REMARK    2  A    between atoms: C_6  and  N_7
REMARK    3  A    between atoms: C_8  and  C_10
REMARK    4  A    between atoms: C_13  and  C_14
REMARK    5  A    between atoms: C_14  and  O_16
REMARK                            x       y       z     vdW  Elec       q    Type
REMARK                         _______ _______ _______ _____ _____    ______ ____
ROOT
ATOM      1  N   UNL     1       4.457   6.985  17.696  0.00  0.00    +0.000 N 
ATOM      2  C   UNL     1       3.190   6.645  18.148  0.00  0.00    +0.000 C 
ATOM      3  O   UNL     1       2.710   5.518  18.180  0.00  0.00    +0.000 OA
ATOM      4  H   UNL     1       4.719   7.960  17.692  0.00  0.00    +0.000 HD
ENDROOT
BRANCH   1  10
ATOM      5  C   UNL     1       5.714   4.147  13.870  0.00  0.00    +0.000 C 
ATOM      6  C   UNL     1       6.031   4.701  15.228  0.00  0.00    +0.000 A 
ATOM      7  C   UNL     1       7.127   4.220  15.950  0.00  0.00    +0.000 A 
ATOM      8  C   UNL     1       7.377   4.687  17.237  0.00  0.00    +0.000 A 
ATOM      9  C   UNL     1       6.514   5.614  17.827  0.00  0.00    +0.000 A 
ATOM     10  C   UNL     1       5.405   6.097  17.132  0.00  0.00    +0.000 A 
ATOM     11  C   UNL     1       5.191   5.662  15.815  0.00  0.00    +0.000 A 
ENDBRANCH   1  10
BRANCH   2  12
ATOM     12  C   UNL     1       2.322   7.767  18.619  0.00  0.00    +0.000 A 
ATOM     13  C   UNL     1       1.801   8.740  17.759  0.00  0.00    +0.000 A 
ATOM     14  C   UNL     1       0.930   9.720  18.256  0.00  0.00    +0.000 A 
ATOM     15  C   UNL     1       0.566   9.737  19.609  0.00  0.00    +0.000 A 
ATOM     16  C   UNL     1       1.069   8.755  20.469  0.00  0.00    +0.000 A 
ATOM     17  C   UNL     1       1.946   7.782  19.974  0.00  0.00    +0.000 A 
BRANCH  15  18
ATOM     18  C   UNL     1      -0.419  10.763  20.053  0.00  0.00    +0.000 C 
ATOM     19  O   UNL     1      -0.534  11.093  21.220  0.00  0.00    +0.000 OA
BRANCH  18  20
ATOM     20  O   UNL     1      -1.194  11.261  19.071  0.00  0.00    +0.000 OA
ATOM     21  H   UNL     1      -0.934  11.030  18.161  0.00  0.00    +0.000 HD
ENDBRANCH  18  20
ENDBRANCH  15  18
ENDBRANCH   2  12
TORSDOF 4
ENDMDL
MODEL 9
REMARK VINA RESULT:      -6.9      2.491      7.631
REMARK  Name = 
REMARK  5 active torsions:
REMARK  status: ('A' for Active; 'I' for Inactive)
REMARK    1  A    between atoms: C_1  and  C_2
REMARK    2  A    between atoms: C_6  and  N_7
REMARK    3  A    between atoms: C_8  and  C_10
REMARK    4  A    between atoms: C_13  and  C_14
REMARK    5  A    between atoms: C_14  and  O_16
REMARK                            x       y       z     vdW  Elec       q    Type
REMARK                         _______ _______ _______ _____ _____    ______ ____
ROOT
ATOM      1  N   UNL     1       4.449   6.876  17.772  0.00  0.00    +0.000 N 
ATOM      2  C   UNL     1       3.194   6.495  18.226  0.00  0.00    +0.000 C 
ATOM      3  O   UNL     1       2.744   5.355  18.242  0.00  0.00    +0.000 OA
ATOM      4  H   UNL     1       4.686   7.857  17.782  0.00  0.00    +0.000 HD
ENDROOT
BRANCH   1  10
ATOM      5  C   UNL     1       5.771   4.158  13.881  0.00  0.00    +0.000 C 
ATOM      6  C   UNL     1       6.075   4.686  15.252  0.00  0.00    +0.000 A 
ATOM      7  C   UNL     1       7.181   4.212  15.964  0.00  0.00    +0.000 A 
ATOM      8  C   UNL     1       7.419   4.654  17.262  0.00  0.00    +0.000 A 
ATOM      9  C   UNL     1       6.536   5.547  17.873  0.00  0.00    +0.000 A 
ATOM     10  C   UNL     1       5.417   6.022  17.188  0.00  0.00    +0.000 A 
ATOM     11  C   UNL     1       5.214   5.615  15.861  0.00  0.00    +0.000 A 
ENDBRANCH   1  10
BRANCH   2  12
ATOM     12  C   UNL     1       2.301   7.585  18.721  0.00  0.00    +0.000 A 
ATOM     13  C   UNL     1       1.911   7.702  20.059  0.00  0.00    +0.000 A 
ATOM     14  C   UNL     1       1.134   8.795  20.470  0.00  0.00    +0.000 A 
ATOM     15  C   UNL     1       0.745   9.783  19.556  0.00  0.00    +0.000 A 
ATOM     16  C   UNL     1       1.148   9.681  18.220  0.00  0.00    +0.000 A 
ATOM     17  C   UNL     1       1.916   8.584  17.809  0.00  0.00    +0.000 A 
BRANCH  15  18
ATOM     18  C   UNL     1      -0.019  10.952  20.076  0.00  0.00    +0.000 C 
ATOM     19  O   UNL     1       0.144  11.387  21.201  0.00  0.00    +0.000 OA
BRANCH  18  20
ATOM     20  O   UNL     1      -0.926  11.458  19.219  0.00  0.00    +0.000 OA
ATOM     21  H   UNL     1      -1.850  11.457  19.525  0.00  0.00    +0.000 HD
ENDBRANCH  18  20
ENDBRANCH  15  18
ENDBRANCH   2  12
TORSDOF 4
ENDMDL
