MODEL 1
REMARK VINA RESULT:      -7.4      0.000      0.000
REMARK  Name = 
REMARK  7 active torsions:
REMARK  status: ('A' for Active; 'I' for Inactive)
REMARK    1  A    between atoms: C_1  and  C_2
REMARK    2  A    between atoms: C_3  and  S_4
REMARK    3  A    between atoms: S_4  and  C_7
REMARK    4  A    between atoms: C_16  and  C_17
REMARK    5  A    between atoms: N_19  and  C_20
REMARK    6  A    between atoms: N_19  and  S_26
REMARK    7  A    between atoms: S_26  and  C_27
REMARK                            x       y       z     vdW  Elec       q    Type
REMARK                         _______ _______ _______ _____ _____    ______ ____
ROOT
ATOM      1  C   UNL     1       4.650   7.445  17.687  0.00  0.00    +0.000 C 
ATOM      2  C   UNL     1       3.773   6.713  18.652  0.00  0.00    +0.000 A 
ATOM      3  C   UNL     1       4.104   5.444  19.287  0.00  0.00    +0.000 A 
ATOM      4  C   UNL     1       3.097   4.990  20.114  0.00  0.00    +0.000 A 
ATOM      5  S   UNL     1       1.763   6.037  20.147  0.00  0.00    +0.000 S 
ATOM      6  C   UNL     1       2.493   7.142  19.044  0.00  0.00    +0.000 A 
ENDROOT
BRANCH   3   7
ATOM      7  S   UNL     1       5.564   4.490  19.084  0.00  0.00    +0.000 S 
ATOM      8  O   UNL     1       6.626   5.258  19.704  0.00  0.00    +0.000 OA
ATOM      9  O   UNL     1       5.220   3.158  19.545  0.00  0.00    +0.000 OA
BRANCH   7  10
ATOM     10  C   UNL     1       5.864   4.382  17.340  0.00  0.00    +0.000 A 
ATOM     11  C   UNL     1       4.851   3.947  16.478  0.00  0.00    +0.000 A 
ATOM     12  C   UNL     1       5.094   3.878  15.104  0.00  0.00    +0.000 A 
ATOM     13  C   UNL     1       6.337   4.256  14.597  0.00  0.00    +0.000 A 
ATOM     14 CL   UNL     1       6.646   4.133  12.909  0.00  0.00    +0.000 Cl
ATOM     15  C   UNL     1       7.333   4.734  15.450  0.00  0.00    +0.000 A 
ATOM     16  C   UNL     1       7.096   4.806  16.826  0.00  0.00    +0.000 A 
ENDBRANCH   7  10
ENDBRANCH   3   7
BRANCH   6  17
ATOM     17  C   UNL     1       1.636   8.268  18.608  0.00  0.00    +0.000 C 
ATOM     18  O   UNL     1       1.335   8.315  17.410  0.00  0.00    +0.000 OA
ATOM     19  N   UNL     1       1.225   9.292  19.503  0.00  0.00    +0.000 N 
BRANCH  19  20
ATOM     20  C   UNL     1       0.644  10.548  19.051  0.00  0.00    +0.000 A 
ATOM     21  C   UNL     1      -0.738  10.766  18.931  0.00  0.00    +0.000 A 
ATOM     22  C   UNL     1      -1.255  12.042  18.659  0.00  0.00    +0.000 A 
ATOM     23  C   UNL     1      -0.406  13.127  18.477  0.00  0.00    +0.000 A 
ATOM     24  C   UNL     1       0.968  12.930  18.518  0.00  0.00    +0.000 A 
ATOM     25  C   UNL     1       1.485  11.656  18.790  0.00  0.00    +0.000 A 
ENDBRANCH  19  20
BRANCH  19  26
ATOM     26  S   UNL     1       0.895   8.912  21.136  0.00  0.00    +0.000 S 
ATOM     27  C   UNL     1       0.961  10.609  21.792  0.00  0.00    +0.000 C 
ATOM     28  O   UNL     1      -0.548   8.377  21.409  0.00  0.00    +0.000 OA
ENDBRANCH  19  26
ENDBRANCH   6  17
TORSDOF 5
ENDMDL
MODEL 2
REMARK VINA RESULT:      -7.3      0.213      1.304
REMARK  Name = 
REMARK  7 active torsions:
REMARK  status: ('A' for Active; 'I' for Inactive)
REMARK    1  A    between atoms: C_1  and  C_2
REMARK    2  A    between atoms: C_3  and  S_4
REMARK    3  A    between atoms: S_4  and  C_7
REMARK    4  A    between atoms: C_16  and  C_17
REMARK    5  A    between atoms: N_19  and  C_20
REMARK    6  A    between atoms: N_19  and  S_26
REMARK    7  A    between atoms: S_26  and  C_27
REMARK                            x       y       z     vdW  Elec       q    Type
REMARK                         _______ _______ _______ _____ _____    ______ ____
ROOT
ATOM      1  C   UNL     1       4.637   7.407  17.735  0.00  0.00    +0.000 C 
ATOM      2  C   UNL     1       3.783   6.667  18.715  0.00  0.00    +0.000 A 
ATOM      3  C   UNL     1       4.125   5.390  19.326  0.00  0.00    +0.000 A 
ATOM      4  C   UNL     1       3.139   4.931  20.174  0.00  0.00    +0.000 A 
ATOM      5  S   UNL     1       1.810   5.982  20.255  0.00  0.00    +0.000 S 
ATOM      6  C   UNL     1       2.515   7.097  19.145  0.00  0.00    +0.000 A 
ENDROOT
BRANCH   3   7
ATOM      7  S   UNL     1       5.575   4.432  19.073  0.00  0.00    +0.000 S 
ATOM      8  O   UNL     1       6.652   5.177  19.695  0.00  0.00    +0.000 OA
ATOM      9  O   UNL     1       5.230   3.091  19.505  0.00  0.00    +0.000 OA
BRANCH   7  10
ATOM     10  C   UNL     1       5.845   4.368  17.322  0.00  0.00    +0.000 A 
ATOM     11  C   UNL     1       7.089   4.727  16.790  0.00  0.00    +0.000 A 
ATOM     12  C   UNL     1       7.296   4.661  15.409  0.00  0.00    +0.000 A 
ATOM     13  C   UNL     1       6.269   4.225  14.571  0.00  0.00    +0.000 A 
ATOM     14 CL   UNL     1       6.514   4.183  12.869  0.00  0.00    +0.000 Cl
ATOM     15  C   UNL     1       5.043   3.824  15.105  0.00  0.00    +0.000 A 
ATOM     16  C   UNL     1       4.831   3.887  16.486  0.00  0.00    +0.000 A 
ENDBRANCH   7  10
ENDBRANCH   3   7
BRANCH   6  17
ATOM     17  C   UNL     1       1.653   8.232  18.745  0.00  0.00    +0.000 C 
ATOM     18  O   UNL     1       1.408   8.355  17.540  0.00  0.00    +0.000 OA
ATOM     19  N   UNL     1       1.173   9.181  19.686  0.00  0.00    +0.000 N 
BRANCH  19  20
ATOM     20  C   UNL     1       0.582  10.453  19.293  0.00  0.00    +0.000 A 
ATOM     21  C   UNL     1       1.327  11.626  19.091  0.00  0.00    +0.000 A 
ATOM     22  C   UNL     1       0.740  12.778  18.547  0.00  0.00    +0.000 A 
ATOM     23  C   UNL     1      -0.609  12.797  18.212  0.00  0.00    +0.000 A 
ATOM     24  C   UNL     1      -1.388  11.677  18.467  0.00  0.00    +0.000 A 
ATOM     25  C   UNL     1      -0.803  10.525  19.010  0.00  0.00    +0.000 A 
ENDBRANCH  19  20
BRANCH  19  26
ATOM     26  S   UNL     1       0.775   8.682  21.272  0.00  0.00    +0.000 S 
ATOM     27  C   UNL     1       0.916  10.309  22.075  0.00  0.00    +0.000 C 
ATOM     28  O   UNL     1      -0.703   8.210  21.461  0.00  0.00    +0.000 OA
ENDBRANCH  19  26
ENDBRANCH   6  17
TORSDOF 5
ENDMDL
MODEL 3
REMARK VINA RESULT:      -6.5      8.064     11.301
REMARK  Name = 
REMARK  7 active torsions:
REMARK  status: ('A' for Active; 'I' for Inactive)
REMARK    1  A    between atoms: C_1  and  C_2
REMARK    2  A    between atoms: C_3  and  S_4
REMARK    3  A    between atoms: S_4  and  C_7
REMARK    4  A    between atoms: C_16  and  C_17
REMARK    5  A    between atoms: N_19  and  C_20
REMARK    6  A    between atoms: N_19  and  S_26
REMARK    7  A    between atoms: S_26  and  C_27
REMARK                            x       y       z     vdW  Elec       q    Type
REMARK                         _______ _______ _______ _____ _____    ______ ____
ROOT
ATOM      1  C   UNL     1       5.518  14.705  17.947  0.00  0.00    +0.000 C 
ATOM      2  C   UNL     1       5.880  15.828  18.867  0.00  0.00    +0.000 A 
ATOM      3  C   UNL     1       4.957  16.851  19.343  0.00  0.00    +0.000 A 
ATOM      4  C   UNL     1       5.572  17.774  20.162  0.00  0.00    +0.000 A 
ATOM      5  S   UNL     1       7.225  17.457  20.372  0.00  0.00    +0.000 S 
ATOM      6  C   UNL     1       7.174  16.061  19.363  0.00  0.00    +0.000 A 
ENDROOT
BRANCH   3   7
ATOM      7  S   UNL     1       3.250  17.015  18.967  0.00  0.00    +0.000 S 
ATOM      8  O   UNL     1       2.764  18.093  19.807  0.00  0.00    +0.000 OA
ATOM      9  O   UNL     1       3.180  17.088  17.520  0.00  0.00    +0.000 OA
BRANCH   7  10
ATOM     10  C   UNL     1       2.471  15.499  19.456  0.00  0.00    +0.000 A 
ATOM     11  C   UNL     1       1.807  14.714  18.508  0.00  0.00    +0.000 A 
ATOM     12  C   UNL     1       1.208  13.513  18.901  0.00  0.00    +0.000 A 
ATOM     13  C   UNL     1       1.286  13.099  20.230  0.00  0.00    +0.000 A 
ATOM     14 CL   UNL     1       0.514  11.642  20.719  0.00  0.00    +0.000 Cl
ATOM     15  C   UNL     1       1.988  13.859  21.168  0.00  0.00    +0.000 A 
ATOM     16  C   UNL     1       2.591  15.060  20.780  0.00  0.00    +0.000 A 
ENDBRANCH   7  10
ENDBRANCH   3   7
BRANCH   6  17
ATOM     17  C   UNL     1       8.481  15.419  19.095  0.00  0.00    +0.000 C 
ATOM     18  O   UNL     1       9.147  15.871  18.157  0.00  0.00    +0.000 OA
ATOM     19  N   UNL     1       8.933  14.294  19.833  0.00  0.00    +0.000 N 
BRANCH  19  20
ATOM     20  C   UNL     1      10.055  13.469  19.407  0.00  0.00    +0.000 A 
ATOM     21  C   UNL     1      11.335  13.541  19.981  0.00  0.00    +0.000 A 
ATOM     22  C   UNL     1      12.333  12.610  19.656  0.00  0.00    +0.000 A 
ATOM     23  C   UNL     1      12.088  11.600  18.734  0.00  0.00    +0.000 A 
ATOM     24  C   UNL     1      10.857  11.545  18.095  0.00  0.00    +0.000 A 
ATOM     25  C   UNL     1       9.858  12.474  18.420  0.00  0.00    +0.000 A 
ENDBRANCH  19  20
BRANCH  19  26
ATOM     26  S   UNL     1       8.550  14.155  21.493  0.00  0.00    +0.000 S 
ATOM     27  C   UNL     1       8.614  12.339  21.600  0.00  0.00    +0.000 C 
ATOM     28  O   UNL     1       9.642  14.704  22.468  0.00  0.00    +0.000 OA
ENDBRANCH  19  26
ENDBRANCH   6  17
TORSDOF 5
ENDMDL
MODEL 4
REMARK VINA RESULT:      -6.5      3.039      8.247
REMARK  Name = 
REMARK  7 active torsions:
REMARK  status: ('A' for Active; 'I' for Inactive)
REMARK    1  A    between atoms: C_1  and  C_2
REMARK    2  A    between atoms: C_3  and  S_4
REMARK    3  A    between atoms: S_4  and  C_7
REMARK    4  A    between atoms: C_16  and  C_17
REMARK    5  A    between atoms: N_19  and  C_20
REMARK    6  A    between atoms: N_19  and  S_26
REMARK    7  A    between atoms: S_26  and  C_27
REMARK                            x       y       z     vdW  Elec       q    Type
REMARK                         _______ _______ _______ _____ _____    ______ ____
ROOT
ATOM      1  C   UNL     1       2.144   9.827  17.843  0.00  0.00    +0.000 C 
ATOM      2  C   UNL     1       2.040   8.661  18.774  0.00  0.00    +0.000 A 
ATOM      3  C   UNL     1       1.257   8.638  20.003  0.00  0.00    +0.000 A 
ATOM      4  C   UNL     1       1.364   7.438  20.674  0.00  0.00    +0.000 A 
ATOM      5  S   UNL     1       2.383   6.339  19.879  0.00  0.00    +0.000 S 
ATOM      6  C   UNL     1       2.719   7.443  18.599  0.00  0.00    +0.000 A 
ENDROOT
BRANCH   3   7
ATOM      7  S   UNL     1       0.274   9.930  20.674  0.00  0.00    +0.000 S 
ATOM      8  O   UNL     1      -0.454   9.337  21.779  0.00  0.00    +0.000 OA
ATOM      9  O   UNL     1       1.184  11.042  20.872  0.00  0.00    +0.000 OA
BRANCH   7  10
ATOM     10  C   UNL     1      -0.873  10.408  19.409  0.00  0.00    +0.000 A 
ATOM     11  C   UNL     1      -1.043  11.759  19.090  0.00  0.00    +0.000 A 
ATOM     12  C   UNL     1      -1.940  12.125  18.082  0.00  0.00    +0.000 A 
ATOM     13  C   UNL     1      -2.650  11.142  17.392  0.00  0.00    +0.000 A 
ATOM     14 CL   UNL     1      -3.783  11.597  16.181  0.00  0.00    +0.000 Cl
ATOM     15  C   UNL     1      -2.448   9.791  17.679  0.00  0.00    +0.000 A 
ATOM     16  C   UNL     1      -1.551   9.419  18.685  0.00  0.00    +0.000 A 
ENDBRANCH   7  10
ENDBRANCH   3   7
BRANCH   6  17
ATOM     17  C   UNL     1       3.728   6.991  17.614  0.00  0.00    +0.000 C 
ATOM     18  O   UNL     1       3.871   7.680  16.599  0.00  0.00    +0.000 OA
ATOM     19  N   UNL     1       4.461   5.786  17.787  0.00  0.00    +0.000 N 
BRANCH  19  20
ATOM     20  C   UNL     1       5.229   5.170  16.713  0.00  0.00    +0.000 A 
ATOM     21  C   UNL     1       4.677   4.285  15.773  0.00  0.00    +0.000 A 
ATOM     22  C   UNL     1       5.413   3.853  14.659  0.00  0.00    +0.000 A 
ATOM     23  C   UNL     1       6.723   4.275  14.467  0.00  0.00    +0.000 A 
ATOM     24  C   UNL     1       7.321   5.093  15.416  0.00  0.00    +0.000 A 
ATOM     25  C   UNL     1       6.587   5.525  16.529  0.00  0.00    +0.000 A 
ENDBRANCH  19  20
BRANCH  19  26
ATOM     26  S   UNL     1       4.917   5.284  19.355  0.00  0.00    +0.000 S 
ATOM     27  C   UNL     1       4.583   3.507  19.142  0.00  0.00    +0.000 C 
ATOM     28  O   UNL     1       6.441   5.423  19.673  0.00  0.00    +0.000 OA
ENDBRANCH  19  26
ENDBRANCH   6  17
TORSDOF 5
ENDMDL
MODEL 5
REMARK VINA RESULT:      -6.4      5.096     10.044
REMARK  Name = 
REMARK  7 active torsions:
REMARK  status: ('A' for Active; 'I' for Inactive)
REMARK    1  A    between atoms: C_1  and  C_2
REMARK    2  A    between atoms: C_3  and  S_4
REMARK    3  A    between atoms: S_4  and  C_7
REMARK    4  A    between atoms: C_16  and  C_17
REMARK    5  A    between atoms: N_19  and  C_20
REMARK    6  A    between atoms: N_19  and  S_26
REMARK    7  A    between atoms: S_26  and  C_27
REMARK                            x       y       z     vdW  Elec       q    Type
REMARK                         _______ _______ _______ _____ _____    ______ ____
ROOT
ATOM      1  C   UNL     1       1.602  13.917  20.963  0.00  0.00    +0.000 C 
ATOM      2  C   UNL     1       0.372  13.476  21.690  0.00  0.00    +0.000 A 
ATOM      3  C   UNL     1      -0.532  14.358  22.416  0.00  0.00    +0.000 A 
ATOM      4  C   UNL     1      -1.573  13.673  23.009  0.00  0.00    +0.000 A 
ATOM      5  S   UNL     1      -1.493  12.002  22.729  0.00  0.00    +0.000 S 
ATOM      6  C   UNL     1      -0.050  12.139  21.796  0.00  0.00    +0.000 A 
ENDROOT
BRANCH   3   7
ATOM      7  S   UNL     1      -0.408  16.098  22.613  0.00  0.00    +0.000 S 
ATOM      8  O   UNL     1      -1.708  16.536  23.081  0.00  0.00    +0.000 OA
ATOM      9  O   UNL     1       0.794  16.311  23.397  0.00  0.00    +0.000 OA
BRANCH   7  10
ATOM     10  C   UNL     1      -0.111  16.774  21.000  0.00  0.00    +0.000 A 
ATOM     11  C   UNL     1      -1.009  16.521  19.957  0.00  0.00    +0.000 A 
ATOM     12  C   UNL     1      -0.773  17.069  18.693  0.00  0.00    +0.000 A 
ATOM     13  C   UNL     1       0.346  17.874  18.482  0.00  0.00    +0.000 A 
ATOM     14 CL   UNL     1       0.656  18.515  16.916  0.00  0.00    +0.000 Cl
ATOM     15  C   UNL     1       1.218  18.165  19.533  0.00  0.00    +0.000 A 
ATOM     16  C   UNL     1       0.986  17.620  20.800  0.00  0.00    +0.000 A 
ENDBRANCH   7  10
ENDBRANCH   3   7
BRANCH   6  17
ATOM     17  C   UNL     1       0.559  10.859  21.370  0.00  0.00    +0.000 C 
ATOM     18  O   UNL     1       1.205  10.233  22.218  0.00  0.00    +0.000 OA
ATOM     19  N   UNL     1       0.466  10.390  20.033  0.00  0.00    +0.000 N 
BRANCH  19  20
ATOM     20  C   UNL     1       1.291   9.305  19.518  0.00  0.00    +0.000 A 
ATOM     21  C   UNL     1       1.505   8.099  20.205  0.00  0.00    +0.000 A 
ATOM     22  C   UNL     1       2.163   7.020  19.597  0.00  0.00    +0.000 A 
ATOM     23  C   UNL     1       2.644   7.124  18.297  0.00  0.00    +0.000 A 
ATOM     24  C   UNL     1       2.511   8.327  17.617  0.00  0.00    +0.000 A 
ATOM     25  C   UNL     1       1.854   9.405  18.224  0.00  0.00    +0.000 A 
ENDBRANCH  19  20
BRANCH  19  26
ATOM     26  S   UNL     1      -0.948  10.690  19.122  0.00  0.00    +0.000 S 
ATOM     27  C   UNL     1      -0.417  12.261  18.370  0.00  0.00    +0.000 C 
ATOM     28  O   UNL     1      -1.199   9.689  17.948  0.00  0.00    +0.000 OA
ENDBRANCH  19  26
ENDBRANCH   6  17
TORSDOF 5
ENDMDL
MODEL 6
REMARK VINA RESULT:      -6.4      8.068     11.295
REMARK  Name = 
REMARK  7 active torsions:
REMARK  status: ('A' for Active; 'I' for Inactive)
REMARK    1  A    between atoms: C_1  and  C_2
REMARK    2  A    between atoms: C_3  and  S_4
REMARK    3  A    between atoms: S_4  and  C_7
REMARK    4  A    between atoms: C_16  and  C_17
REMARK    5  A    between atoms: N_19  and  C_20
REMARK    6  A    between atoms: N_19  and  S_26
REMARK    7  A    between atoms: S_26  and  C_27
REMARK                            x       y       z     vdW  Elec       q    Type
REMARK                         _______ _______ _______ _____ _____    ______ ____
ROOT
ATOM      1  C   UNL     1       5.303  14.646  18.144  0.00  0.00    +0.000 C 
ATOM      2  C   UNL     1       5.722  15.751  19.062  0.00  0.00    +0.000 A 
ATOM      3  C   UNL     1       4.860  16.836  19.513  0.00  0.00    +0.000 A 
ATOM      4  C   UNL     1       5.519  17.724  20.336  0.00  0.00    +0.000 A 
ATOM      5  S   UNL     1       7.144  17.302  20.579  0.00  0.00    +0.000 S 
ATOM      6  C   UNL     1       7.020  15.903  19.579  0.00  0.00    +0.000 A 
ENDROOT
BRANCH   3   7
ATOM      7  S   UNL     1       3.174  17.109  19.105  0.00  0.00    +0.000 S 
ATOM      8  O   UNL     1       2.757  18.251  19.895  0.00  0.00    +0.000 OA
ATOM      9  O   UNL     1       3.127  17.128  17.655  0.00  0.00    +0.000 OA
BRANCH   7  10
ATOM     10  C   UNL     1       2.281  15.673  19.642  0.00  0.00    +0.000 A 
ATOM     11  C   UNL     1       2.197  15.368  21.004  0.00  0.00    +0.000 A 
ATOM     12  C   UNL     1       1.479  14.242  21.418  0.00  0.00    +0.000 A 
ATOM     13  C   UNL     1       0.841  13.438  20.474  0.00  0.00    +0.000 A 
ATOM     14 CL   UNL     1      -0.008  12.031  20.982  0.00  0.00    +0.000 Cl
ATOM     15  C   UNL     1       0.885  13.768  19.118  0.00  0.00    +0.000 A 
ATOM     16  C   UNL     1       1.601  14.894  18.698  0.00  0.00    +0.000 A 
ENDBRANCH   7  10
ENDBRANCH   3   7
BRANCH   6  17
ATOM     17  C   UNL     1       8.286  15.175  19.339  0.00  0.00    +0.000 C 
ATOM     18  O   UNL     1       9.000  15.578  18.414  0.00  0.00    +0.000 OA
ATOM     19  N   UNL     1       8.647  14.025  20.090  0.00  0.00    +0.000 N 
BRANCH  19  20
ATOM     20  C   UNL     1       9.721  13.126  19.688  0.00  0.00    +0.000 A 
ATOM     21  C   UNL     1       9.569  12.118  18.722  0.00  0.00    +0.000 A 
ATOM     22  C   UNL     1      10.672  11.393  18.245  0.00  0.00    +0.000 A 
ATOM     23  C   UNL     1      11.948  11.640  18.735  0.00  0.00    +0.000 A 
ATOM     24  C   UNL     1      12.121  12.579  19.742  0.00  0.00    +0.000 A 
ATOM     25  C   UNL     1      11.021  13.304  20.219  0.00  0.00    +0.000 A 
ENDBRANCH  19  20
BRANCH  19  26
ATOM     26  S   UNL     1       8.223  13.918  21.742  0.00  0.00    +0.000 S 
ATOM     27  C   UNL     1       8.433  12.119  21.925  0.00  0.00    +0.000 C 
ATOM     28  O   UNL     1       9.232  14.594  22.725  0.00  0.00    +0.000 OA
ENDBRANCH  19  26
ENDBRANCH   6  17
TORSDOF 5
ENDMDL
MODEL 7
REMARK VINA RESULT:      -6.3      7.934     11.239
REMARK  Name = 
REMARK  7 active torsions:
REMARK  status: ('A' for Active; 'I' for Inactive)
REMARK    1  A    between atoms: C_1  and  C_2
REMARK    2  A    between atoms: C_3  and  S_4
REMARK    3  A    between atoms: S_4  and  C_7
REMARK    4  A    between atoms: C_16  and  C_17
REMARK    5  A    between atoms: N_19  and  C_20
REMARK    6  A    between atoms: N_19  and  S_26
REMARK    7  A    between atoms: S_26  and  C_27
REMARK                            x       y       z     vdW  Elec       q    Type
REMARK                         _______ _______ _______ _____ _____    ______ ____
ROOT
ATOM      1  C   UNL     1       5.298  14.611  18.148  0.00  0.00    +0.000 C 
ATOM      2  C   UNL     1       5.738  15.745  19.018  0.00  0.00    +0.000 A 
ATOM      3  C   UNL     1       4.889  16.852  19.442  0.00  0.00    +0.000 A 
ATOM      4  C   UNL     1       5.567  17.766  20.222  0.00  0.00    +0.000 A 
ATOM      5  S   UNL     1       7.193  17.343  20.453  0.00  0.00    +0.000 S 
ATOM      6  C   UNL     1       7.045  15.909  19.508  0.00  0.00    +0.000 A 
ENDROOT
BRANCH   3   7
ATOM      7  S   UNL     1       3.198  17.119  19.053  0.00  0.00    +0.000 S 
ATOM      8  O   UNL     1       2.802  18.294  19.804  0.00  0.00    +0.000 OA
ATOM      9  O   UNL     1       3.127  17.083  17.604  0.00  0.00    +0.000 OA
BRANCH   7  10
ATOM     10  C   UNL     1       2.306  15.712  19.659  0.00  0.00    +0.000 A 
ATOM     11  C   UNL     1       1.708  14.820  18.761  0.00  0.00    +0.000 A 
ATOM     12  C   UNL     1       1.019  13.706  19.249  0.00  0.00    +0.000 A 
ATOM     13  C   UNL     1       0.941  13.482  20.624  0.00  0.00    +0.000 A 
ATOM     14 CL   UNL     1       0.058  12.133  21.222  0.00  0.00    +0.000 Cl
ATOM     15  C   UNL     1       1.576  14.346  21.518  0.00  0.00    +0.000 A 
ATOM     16  C   UNL     1       2.268  15.461  21.036  0.00  0.00    +0.000 A 
ENDBRANCH   7  10
ENDBRANCH   3   7
BRANCH   6  17
ATOM     17  C   UNL     1       8.303  15.165  19.274  0.00  0.00    +0.000 C 
ATOM     18  O   UNL     1       9.084  15.630  18.436  0.00  0.00    +0.000 OA
ATOM     19  N   UNL     1       8.585  13.937  19.930  0.00  0.00    +0.000 N 
BRANCH  19  20
ATOM     20  C   UNL     1       9.656  13.045  19.507  0.00  0.00    +0.000 A 
ATOM     21  C   UNL     1       9.653  12.351  18.287  0.00  0.00    +0.000 A 
ATOM     22  C   UNL     1      10.781  11.642  17.848  0.00  0.00    +0.000 A 
ATOM     23  C   UNL     1      11.932  11.588  18.626  0.00  0.00    +0.000 A 
ATOM     24  C   UNL     1      11.942  12.203  19.870  0.00  0.00    +0.000 A 
ATOM     25  C   UNL     1      10.815  12.913  20.309  0.00  0.00    +0.000 A 
ENDBRANCH  19  20
BRANCH  19  26
ATOM     26  S   UNL     1       8.056  13.689  21.536  0.00  0.00    +0.000 S 
ATOM     27  C   UNL     1       9.067  14.983  22.321  0.00  0.00    +0.000 C 
ATOM     28  O   UNL     1       6.561  14.060  21.800  0.00  0.00    +0.000 OA
ENDBRANCH  19  26
ENDBRANCH   6  17
TORSDOF 5
ENDMDL
MODEL 8
REMARK VINA RESULT:      -6.3      3.881      6.304
REMARK  Name = 
REMARK  7 active torsions:
REMARK  status: ('A' for Active; 'I' for Inactive)
REMARK    1  A    between atoms: C_1  and  C_2
REMARK    2  A    between atoms: C_3  and  S_4
REMARK    3  A    between atoms: S_4  and  C_7
REMARK    4  A    between atoms: C_16  and  C_17
REMARK    5  A    between atoms: N_19  and  C_20
REMARK    6  A    between atoms: N_19  and  S_26
REMARK    7  A    between atoms: S_26  and  C_27
REMARK                            x       y       z     vdW  Elec       q    Type
REMARK                         _______ _______ _______ _____ _____    ______ ____
ROOT
ATOM      1  C   UNL     1       1.731  12.185  20.555  0.00  0.00    +0.000 C 
ATOM      2  C   UNL     1       0.399  11.686  20.091  0.00  0.00    +0.000 A 
ATOM      3  C   UNL     1      -0.148  10.367  20.382  0.00  0.00    +0.000 A 
ATOM      4  C   UNL     1      -1.386  10.172  19.806  0.00  0.00    +0.000 A 
ATOM      5  S   UNL     1      -1.910  11.521  18.920  0.00  0.00    +0.000 S 
ATOM      6  C   UNL     1      -0.483  12.419  19.278  0.00  0.00    +0.000 A 
ENDROOT
BRANCH   3   7
ATOM      7  S   UNL     1       0.594   9.079  21.316  0.00  0.00    +0.000 S 
ATOM      8  O   UNL     1       1.478   9.735  22.260  0.00  0.00    +0.000 OA
ATOM      9  O   UNL     1      -0.506   8.243  21.760  0.00  0.00    +0.000 OA
BRANCH   7  10
ATOM     10  C   UNL     1       1.561   8.118  20.183  0.00  0.00    +0.000 A 
ATOM     11  C   UNL     1       1.914   6.802  20.502  0.00  0.00    +0.000 A 
ATOM     12  C   UNL     1       2.666   6.048  19.596  0.00  0.00    +0.000 A 
ATOM     13  C   UNL     1       3.048   6.606  18.375  0.00  0.00    +0.000 A 
ATOM     14 CL   UNL     1       4.007   5.690  17.279  0.00  0.00    +0.000 Cl
ATOM     15  C   UNL     1       2.657   7.903  18.037  0.00  0.00    +0.000 A 
ATOM     16  C   UNL     1       1.904   8.661  18.939  0.00  0.00    +0.000 A 
ENDBRANCH   7  10
ENDBRANCH   3   7
BRANCH   6  17
ATOM     17  C   UNL     1      -0.366  13.729  18.600  0.00  0.00    +0.000 C 
ATOM     18  O   UNL     1      -0.318  13.721  17.365  0.00  0.00    +0.000 OA
ATOM     19  N   UNL     1      -0.250  14.945  19.325  0.00  0.00    +0.000 N 
BRANCH  19  20
ATOM     20  C   UNL     1       0.160  16.198  18.704  0.00  0.00    +0.000 A 
ATOM     21  C   UNL     1       1.498  16.532  18.440  0.00  0.00    +0.000 A 
ATOM     22  C   UNL     1       1.830  17.669  17.688  0.00  0.00    +0.000 A 
ATOM     23  C   UNL     1       0.839  18.511  17.199  0.00  0.00    +0.000 A 
ATOM     24  C   UNL     1      -0.489  18.247  17.503  0.00  0.00    +0.000 A 
ATOM     25  C   UNL     1      -0.823  17.112  18.255  0.00  0.00    +0.000 A 
ENDBRANCH  19  20
BRANCH  19  26
ATOM     26  S   UNL     1      -1.076  15.133  20.809  0.00  0.00    +0.000 S 
ATOM     27  C   UNL     1       0.265  15.957  21.723  0.00  0.00    +0.000 C 
ATOM     28  O   UNL     1      -2.278  16.132  20.771  0.00  0.00    +0.000 OA
ENDBRANCH  19  26
ENDBRANCH   6  17
TORSDOF 5
ENDMDL
MODEL 9
REMARK VINA RESULT:      -6.2      7.404      9.147
REMARK  Name = 
REMARK  7 active torsions:
REMARK  status: ('A' for Active; 'I' for Inactive)
REMARK    1  A    between atoms: C_1  and  C_2
REMARK    2  A    between atoms: C_3  and  S_4
REMARK    3  A    between atoms: S_4  and  C_7
REMARK    4  A    between atoms: C_16  and  C_17
REMARK    5  A    between atoms: N_19  and  C_20
REMARK    6  A    between atoms: N_19  and  S_26
REMARK    7  A    between atoms: S_26  and  C_27
REMARK                            x       y       z     vdW  Elec       q    Type
REMARK                         _______ _______ _______ _____ _____    ______ ____
ROOT
ATOM      1  C   UNL     1       6.678  14.943  17.696  0.00  0.00    +0.000 C 
ATOM      2  C   UNL     1       6.780  16.042  18.705  0.00  0.00    +0.000 A 
ATOM      3  C   UNL     1       8.019  16.501  19.321  0.00  0.00    +0.000 A 
ATOM      4  C   UNL     1       7.810  17.514  20.233  0.00  0.00    +0.000 A 
ATOM      5  S   UNL     1       6.171  17.926  20.382  0.00  0.00    +0.000 S 
ATOM      6  C   UNL     1       5.681  16.751  19.220  0.00  0.00    +0.000 A 
ENDROOT
BRANCH   3   7
ATOM      7  S   UNL     1       9.645  15.899  19.040  0.00  0.00    +0.000 S 
ATOM      8  O   UNL     1       9.996  16.322  17.699  0.00  0.00    +0.000 OA
ATOM      9  O   UNL     1      10.415  16.320  20.196  0.00  0.00    +0.000 OA
BRANCH   7  10
ATOM     10  C   UNL     1       9.549  14.129  19.087  0.00  0.00    +0.000 A 
ATOM     11  C   UNL     1       9.244  13.474  20.286  0.00  0.00    +0.000 A 
ATOM     12  C   UNL     1       9.157  12.079  20.310  0.00  0.00    +0.000 A 
ATOM     13  C   UNL     1       9.362  11.349  19.138  0.00  0.00    +0.000 A 
ATOM     14 CL   UNL     1       9.294   9.631  19.179  0.00  0.00    +0.000 Cl
ATOM     15  C   UNL     1       9.621  12.004  17.933  0.00  0.00    +0.000 A 
ATOM     16  C   UNL     1       9.707  13.400  17.903  0.00  0.00    +0.000 A 
ENDBRANCH   7  10
ENDBRANCH   3   7
BRANCH   6  17
ATOM     17  C   UNL     1       4.219  16.601  19.041  0.00  0.00    +0.000 C 
ATOM     18  O   UNL     1       3.724  17.089  18.020  0.00  0.00    +0.000 OA
ATOM     19  N   UNL     1       3.401  15.981  20.022  0.00  0.00    +0.000 N 
BRANCH  19  20
ATOM     20  C   UNL     1       1.947  16.082  20.016  0.00  0.00    +0.000 A 
ATOM     21  C   UNL     1       1.228  16.979  20.821  0.00  0.00    +0.000 A 
ATOM     22  C   UNL     1      -0.153  17.161  20.656  0.00  0.00    +0.000 A 
ATOM     23  C   UNL     1      -0.855  16.436  19.700  0.00  0.00    +0.000 A 
ATOM     24  C   UNL     1      -0.185  15.489  18.937  0.00  0.00    +0.000 A 
ATOM     25  C   UNL     1       1.195  15.307  19.101  0.00  0.00    +0.000 A 
ENDBRANCH  19  20
BRANCH  19  26
ATOM     26  S   UNL     1       4.010  14.671  20.935  0.00  0.00    +0.000 S 
ATOM     27  C   UNL     1       4.175  15.546  22.524  0.00  0.00    +0.000 C 
ATOM     28  O   UNL     1       2.998  13.502  21.165  0.00  0.00    +0.000 OA
ENDBRANCH  19  26
ENDBRANCH   6  17
TORSDOF 5
ENDMDL
