MODEL 1
REMARK VINA RESULT:      -7.1      0.000      0.000
REMARK  Name = 
REMARK  4 active torsions:
REMARK  status: ('A' for Active; 'I' for Inactive)
REMARK    1  A    between atoms: C_2  and  C_3
REMARK    2  A    between atoms: C_3  and  N_4
REMARK    3  A    between atoms: N_4  and  C_5
REMARK    4  A    between atoms: N_4  and  N_11
REMARK                            x       y       z     vdW  Elec       q    Type
REMARK                         _______ _______ _______ _____ _____    ______ ____
ROOT
ATOM      1  N   UNL     1       5.099   4.568  16.965  0.00  0.00    +0.000 N 
ENDROOT
BRANCH   1   2
ATOM      2  N   UNL     1       4.108   3.869  17.719  0.00  0.00    +0.000 N 
ATOM      3  C   UNL     1       3.920   2.501  17.625  0.00  0.00    +0.000 A 
ATOM      4  C   UNL     1       2.857   2.125  18.406  0.00  0.00    +0.000 A 
ATOM      5  C   UNL     1       2.426   3.272  19.109  0.00  0.00    +0.000 A 
ATOM      6  C   UNL     1       1.437   3.474  20.098  0.00  0.00    +0.000 A 
ATOM      7  C   UNL     1       1.262   4.735  20.664  0.00  0.00    +0.000 A 
ATOM      8  C   UNL     1       2.034   5.804  20.234  0.00  0.00    +0.000 A 
ATOM      9  C   UNL     1       2.990   5.637  19.226  0.00  0.00    +0.000 A 
ATOM     10  C   UNL     1       3.205   4.357  18.672  0.00  0.00    +0.000 A 
ENDBRANCH   1   2
BRANCH   1  11
ATOM     11  C   UNL     1       6.098   5.386  17.551  0.00  0.00    +0.000 A 
ATOM     12  C   UNL     1       6.821   5.000  18.690  0.00  0.00    +0.000 A 
ATOM     13  C   UNL     1       7.812   5.832  19.191  0.00  0.00    +0.000 A 
ATOM     14  N   UNL     1       8.142   7.021  18.651  0.00  0.00    +0.000 NA
ATOM     15  C   UNL     1       7.442   7.389  17.557  0.00  0.00    +0.000 A 
ATOM     16  C   UNL     1       6.434   6.622  16.988  0.00  0.00    +0.000 A 
ENDBRANCH   1  11
BRANCH   1  17
ATOM     17  C   UNL     1       4.922   4.600  15.513  0.00  0.00    +0.000 C 
BRANCH  17  19
ATOM     18  C   UNL     1       6.383   3.891  13.516  0.00  0.00    +0.000 C 
ATOM     19  C   UNL     1       6.002   3.811  14.800  0.00  0.00    +0.000 C 
ENDBRANCH  17  19
ENDBRANCH   1  17
TORSDOF 4
ENDMDL
MODEL 2
REMARK VINA RESULT:      -7.1      0.163      1.082
REMARK  Name = 
REMARK  4 active torsions:
REMARK  status: ('A' for Active; 'I' for Inactive)
REMARK    1  A    between atoms: C_2  and  C_3
REMARK    2  A    between atoms: C_3  and  N_4
REMARK    3  A    between atoms: N_4  and  C_5
REMARK    4  A    between atoms: N_4  and  N_11
REMARK                            x       y       z     vdW  Elec       q    Type
REMARK                         _______ _______ _______ _____ _____    ______ ____
ROOT
ATOM      1  N   UNL     1       5.124   4.628  16.838  0.00  0.00    +0.000 N 
ENDROOT
BRANCH   1   2
ATOM      2  N   UNL     1       4.117   3.949  17.590  0.00  0.00    +0.000 N 
ATOM      3  C   UNL     1       3.884   2.590  17.478  0.00  0.00    +0.000 A 
ATOM      4  C   UNL     1       2.817   2.237  18.263  0.00  0.00    +0.000 A 
ATOM      5  C   UNL     1       2.428   3.387  18.987  0.00  0.00    +0.000 A 
ATOM      6  C   UNL     1       1.455   3.606  19.987  0.00  0.00    +0.000 A 
ATOM      7  C   UNL     1       1.325   4.863  20.572  0.00  0.00    +0.000 A 
ATOM      8  C   UNL     1       2.128   5.913  20.151  0.00  0.00    +0.000 A 
ATOM      9  C   UNL     1       3.069   5.731  19.132  0.00  0.00    +0.000 A 
ATOM     10  C   UNL     1       3.238   4.452  18.558  0.00  0.00    +0.000 A 
ENDBRANCH   1   2
BRANCH   1  11
ATOM     11  C   UNL     1       6.145   5.416  17.425  0.00  0.00    +0.000 A 
ATOM     12  C   UNL     1       6.473   6.698  16.961  0.00  0.00    +0.000 A 
ATOM     13  C   UNL     1       7.459   7.433  17.606  0.00  0.00    +0.000 A 
ATOM     14  N   UNL     1       8.149   6.991  18.675  0.00  0.00    +0.000 NA
ATOM     15  C   UNL     1       7.832   5.756  19.116  0.00  0.00    +0.000 A 
ATOM     16  C   UNL     1       6.862   4.951  18.533  0.00  0.00    +0.000 A 
ENDBRANCH   1  11
BRANCH   1  17
ATOM     17  C   UNL     1       4.944   4.672  15.386  0.00  0.00    +0.000 C 
BRANCH  17  19
ATOM     18  C   UNL     1       6.199   3.729  13.346  0.00  0.00    +0.000 C 
ATOM     19  C   UNL     1       6.077   3.974  14.659  0.00  0.00    +0.000 C 
ENDBRANCH  17  19
ENDBRANCH   1  17
TORSDOF 4
ENDMDL
MODEL 3
REMARK VINA RESULT:      -7.0      1.620      3.950
REMARK  Name = 
REMARK  4 active torsions:
REMARK  status: ('A' for Active; 'I' for Inactive)
REMARK    1  A    between atoms: C_2  and  C_3
REMARK    2  A    between atoms: C_3  and  N_4
REMARK    3  A    between atoms: N_4  and  C_5
REMARK    4  A    between atoms: N_4  and  N_11
REMARK                            x       y       z     vdW  Elec       q    Type
REMARK                         _______ _______ _______ _____ _____    ______ ____
ROOT
ATOM      1  N   UNL     1       6.100   4.876  16.603  0.00  0.00    +0.000 N 
ENDROOT
BRANCH   1   2
ATOM      2  N   UNL     1       4.787   5.088  17.123  0.00  0.00    +0.000 N 
ATOM      3  C   UNL     1       4.220   6.344  17.242  0.00  0.00    +0.000 A 
ATOM      4  C   UNL     1       2.988   6.242  17.836  0.00  0.00    +0.000 A 
ATOM      5  C   UNL     1       2.711   4.866  17.996  0.00  0.00    +0.000 A 
ATOM      6  C   UNL     1       1.581   4.166  18.472  0.00  0.00    +0.000 A 
ATOM      7  C   UNL     1       1.569   2.772  18.469  0.00  0.00    +0.000 A 
ATOM      8  C   UNL     1       2.681   2.069  18.031  0.00  0.00    +0.000 A 
ATOM      9  C   UNL     1       3.829   2.741  17.595  0.00  0.00    +0.000 A 
ATOM     10  C   UNL     1       3.838   4.151  17.556  0.00  0.00    +0.000 A 
ENDBRANCH   1   2
BRANCH   1  11
ATOM     11  C   UNL     1       6.372   4.637  15.232  0.00  0.00    +0.000 A 
ATOM     12  C   UNL     1       5.548   3.841  14.424  0.00  0.00    +0.000 A 
ATOM     13  C   UNL     1       5.852   3.678  13.079  0.00  0.00    +0.000 A 
ATOM     14  N   UNL     1       6.914   4.244  12.473  0.00  0.00    +0.000 NA
ATOM     15  C   UNL     1       7.705   5.007  13.256  0.00  0.00    +0.000 A 
ATOM     16  C   UNL     1       7.479   5.223  14.609  0.00  0.00    +0.000 A 
ENDBRANCH   1  11
BRANCH   1  17
ATOM     17  C   UNL     1       7.172   4.686  17.580  0.00  0.00    +0.000 C 
BRANCH  17  19
ATOM     18  C   UNL     1       7.679   7.205  17.730  0.00  0.00    +0.000 C 
ATOM     19  C   UNL     1       7.537   5.986  18.271  0.00  0.00    +0.000 C 
ENDBRANCH  17  19
ENDBRANCH   1  17
TORSDOF 4
ENDMDL
MODEL 4
REMARK VINA RESULT:      -7.0      1.729      2.687
REMARK  Name = 
REMARK  4 active torsions:
REMARK  status: ('A' for Active; 'I' for Inactive)
REMARK    1  A    between atoms: C_2  and  C_3
REMARK    2  A    between atoms: C_3  and  N_4
REMARK    3  A    between atoms: N_4  and  C_5
REMARK    4  A    between atoms: N_4  and  N_11
REMARK                            x       y       z     vdW  Elec       q    Type
REMARK                         _______ _______ _______ _____ _____    ______ ____
ROOT
ATOM      1  N   UNL     1       4.141   5.821  17.680  0.00  0.00    +0.000 N 
ENDROOT
BRANCH   1   2
ATOM      2  N   UNL     1       3.441   4.607  17.955  0.00  0.00    +0.000 N 
ATOM      3  C   UNL     1       3.338   3.575  17.039  0.00  0.00    +0.000 A 
ATOM      4  C   UNL     1       2.552   2.577  17.552  0.00  0.00    +0.000 A 
ATOM      5  C   UNL     1       2.236   2.932  18.883  0.00  0.00    +0.000 A 
ATOM      6  C   UNL     1       1.531   2.267  19.911  0.00  0.00    +0.000 A 
ATOM      7  C   UNL     1       1.417   2.850  21.171  0.00  0.00    +0.000 A 
ATOM      8  C   UNL     1       1.965   4.102  21.410  0.00  0.00    +0.000 A 
ATOM      9  C   UNL     1       2.630   4.798  20.395  0.00  0.00    +0.000 A 
ATOM     10  C   UNL     1       2.787   4.202  19.126  0.00  0.00    +0.000 A 
ENDBRANCH   1   2
BRANCH   1  11
ATOM     11  C   UNL     1       5.482   6.059  18.074  0.00  0.00    +0.000 A 
ATOM     12  C   UNL     1       6.085   5.394  19.152  0.00  0.00    +0.000 A 
ATOM     13  C   UNL     1       7.414   5.647  19.461  0.00  0.00    +0.000 A 
ATOM     14  N   UNL     1       8.193   6.512  18.784  0.00  0.00    +0.000 NA
ATOM     15  C   UNL     1       7.608   7.152  17.750  0.00  0.00    +0.000 A 
ATOM     16  C   UNL     1       6.286   6.963  17.370  0.00  0.00    +0.000 A 
ENDBRANCH   1  11
BRANCH   1  17
ATOM     17  C   UNL     1       3.349   6.936  17.159  0.00  0.00    +0.000 C 
BRANCH  17  19
ATOM     18  C   UNL     1       1.930   8.826  18.179  0.00  0.00    +0.000 C 
ATOM     19  C   UNL     1       2.705   7.735  18.275  0.00  0.00    +0.000 C 
ENDBRANCH  17  19
ENDBRANCH   1  17
TORSDOF 4
ENDMDL
MODEL 5
REMARK VINA RESULT:      -7.0      1.925      3.613
REMARK  Name = 
REMARK  4 active torsions:
REMARK  status: ('A' for Active; 'I' for Inactive)
REMARK    1  A    between atoms: C_2  and  C_3
REMARK    2  A    between atoms: C_3  and  N_4
REMARK    3  A    between atoms: N_4  and  C_5
REMARK    4  A    between atoms: N_4  and  N_11
REMARK                            x       y       z     vdW  Elec       q    Type
REMARK                         _______ _______ _______ _____ _____    ______ ____
ROOT
ATOM      1  N   UNL     1       3.888   6.487  17.959  0.00  0.00    +0.000 N 
ENDROOT
BRANCH   1   2
ATOM      2  N   UNL     1       3.002   5.827  18.864  0.00  0.00    +0.000 N 
ATOM      3  C   UNL     1       2.515   6.428  20.011  0.00  0.00    +0.000 A 
ATOM      4  C   UNL     1       1.751   5.533  20.714  0.00  0.00    +0.000 A 
ATOM      5  C   UNL     1       1.653   4.359  19.934  0.00  0.00    +0.000 A 
ATOM      6  C   UNL     1       0.944   3.150  20.108  0.00  0.00    +0.000 A 
ATOM      7  C   UNL     1       0.996   2.162  19.126  0.00  0.00    +0.000 A 
ATOM      8  C   UNL     1       1.770   2.350  17.991  0.00  0.00    +0.000 A 
ATOM      9  C   UNL     1       2.515   3.522  17.817  0.00  0.00    +0.000 A 
ATOM     10  C   UNL     1       2.440   4.545  18.785  0.00  0.00    +0.000 A 
ENDBRANCH   1   2
BRANCH   1  11
ATOM     11  C   UNL     1       5.111   5.929  17.510  0.00  0.00    +0.000 A 
ATOM     12  C   UNL     1       6.103   5.471  18.390  0.00  0.00    +0.000 A 
ATOM     13  C   UNL     1       7.262   4.900  17.885  0.00  0.00    +0.000 A 
ATOM     14  N   UNL     1       7.517   4.750  16.571  0.00  0.00    +0.000 NA
ATOM     15  C   UNL     1       6.562   5.195  15.728  0.00  0.00    +0.000 A 
ATOM     16  C   UNL     1       5.373   5.780  16.144  0.00  0.00    +0.000 A 
ENDBRANCH   1  11
BRANCH   1  17
ATOM     17  C   UNL     1       3.603   7.892  17.665  0.00  0.00    +0.000 C 
BRANCH  17  19
ATOM     18  C   UNL     1       1.449   9.281  17.909  0.00  0.00    +0.000 C 
ATOM     19  C   UNL     1       2.111   8.157  17.594  0.00  0.00    +0.000 C 
ENDBRANCH  17  19
ENDBRANCH   1  17
TORSDOF 4
ENDMDL
MODEL 6
REMARK VINA RESULT:      -7.0      1.704      2.865
REMARK  Name = 
REMARK  4 active torsions:
REMARK  status: ('A' for Active; 'I' for Inactive)
REMARK    1  A    between atoms: C_2  and  C_3
REMARK    2  A    between atoms: C_3  and  N_4
REMARK    3  A    between atoms: N_4  and  C_5
REMARK    4  A    between atoms: N_4  and  N_11
REMARK                            x       y       z     vdW  Elec       q    Type
REMARK                         _______ _______ _______ _____ _____    ______ ____
ROOT
ATOM      1  N   UNL     1       4.186   5.877  17.609  0.00  0.00    +0.000 N 
ENDROOT
BRANCH   1   2
ATOM      2  N   UNL     1       3.462   4.680  17.894  0.00  0.00    +0.000 N 
ATOM      3  C   UNL     1       3.330   3.647  16.982  0.00  0.00    +0.000 A 
ATOM      4  C   UNL     1       2.527   2.667  17.506  0.00  0.00    +0.000 A 
ATOM      5  C   UNL     1       2.230   3.034  18.838  0.00  0.00    +0.000 A 
ATOM      6  C   UNL     1       1.521   2.386  19.874  0.00  0.00    +0.000 A 
ATOM      7  C   UNL     1       1.430   2.976  21.133  0.00  0.00    +0.000 A 
ATOM      8  C   UNL     1       2.007   4.217  21.363  0.00  0.00    +0.000 A 
ATOM      9  C   UNL     1       2.678   4.896  20.340  0.00  0.00    +0.000 A 
ATOM     10  C   UNL     1       2.811   4.292  19.072  0.00  0.00    +0.000 A 
ENDBRANCH   1   2
BRANCH   1  11
ATOM     11  C   UNL     1       5.535   6.089  17.991  0.00  0.00    +0.000 A 
ATOM     12  C   UNL     1       6.367   7.019  17.350  0.00  0.00    +0.000 A 
ATOM     13  C   UNL     1       7.667   7.203  17.798  0.00  0.00    +0.000 A 
ATOM     14  N   UNL     1       8.210   6.533  18.832  0.00  0.00    +0.000 NA
ATOM     15  C   UNL     1       7.407   5.637  19.444  0.00  0.00    +0.000 A 
ATOM     16  C   UNL     1       6.095   5.387  19.063  0.00  0.00    +0.000 A 
ENDBRANCH   1  11
BRANCH   1  17
ATOM     17  C   UNL     1       3.414   7.007  17.090  0.00  0.00    +0.000 C 
BRANCH  17  19
ATOM     18  C   UNL     1       1.981   8.882  18.117  0.00  0.00    +0.000 C 
ATOM     19  C   UNL     1       2.687   7.744  18.198  0.00  0.00    +0.000 C 
ENDBRANCH  17  19
ENDBRANCH   1  17
TORSDOF 4
ENDMDL
MODEL 7
REMARK VINA RESULT:      -7.0      1.773      4.239
REMARK  Name = 
REMARK  4 active torsions:
REMARK  status: ('A' for Active; 'I' for Inactive)
REMARK    1  A    between atoms: C_2  and  C_3
REMARK    2  A    between atoms: C_3  and  N_4
REMARK    3  A    between atoms: N_4  and  C_5
REMARK    4  A    between atoms: N_4  and  N_11
REMARK                            x       y       z     vdW  Elec       q    Type
REMARK                         _______ _______ _______ _____ _____    ______ ____
ROOT
ATOM      1  N   UNL     1       6.323   4.913  16.244  0.00  0.00    +0.000 N 
ENDROOT
BRANCH   1   2
ATOM      2  N   UNL     1       5.062   5.282  16.803  0.00  0.00    +0.000 N 
ATOM      3  C   UNL     1       4.654   6.598  16.934  0.00  0.00    +0.000 A 
ATOM      4  C   UNL     1       3.439   6.646  17.566  0.00  0.00    +0.000 A 
ATOM      5  C   UNL     1       3.003   5.313  17.742  0.00  0.00    +0.000 A 
ATOM      6  C   UNL     1       1.812   4.754  18.256  0.00  0.00    +0.000 A 
ATOM      7  C   UNL     1       1.633   3.372  18.260  0.00  0.00    +0.000 A 
ATOM      8  C   UNL     1       2.638   2.539  17.791  0.00  0.00    +0.000 A 
ATOM      9  C   UNL     1       3.844   3.068  17.316  0.00  0.00    +0.000 A 
ATOM     10  C   UNL     1       4.022   4.467  17.270  0.00  0.00    +0.000 A 
ENDBRANCH   1   2
BRANCH   1  11
ATOM     11  C   UNL     1       6.532   4.688  14.860  0.00  0.00    +0.000 A 
ATOM     12  C   UNL     1       7.539   5.337  14.131  0.00  0.00    +0.000 A 
ATOM     13  C   UNL     1       7.714   5.043  12.786  0.00  0.00    +0.000 A 
ATOM     14  N   UNL     1       6.964   4.156  12.105  0.00  0.00    +0.000 NA
ATOM     15  C   UNL     1       5.994   3.537  12.810  0.00  0.00    +0.000 A 
ATOM     16  C   UNL     1       5.746   3.769  14.156  0.00  0.00    +0.000 A 
ENDBRANCH   1  11
BRANCH   1  17
ATOM     17  C   UNL     1       7.380   4.546  17.187  0.00  0.00    +0.000 C 
BRANCH  17  19
ATOM     18  C   UNL     1       7.660   5.672  19.485  0.00  0.00    +0.000 C 
ATOM     19  C   UNL     1       7.695   5.680  18.144  0.00  0.00    +0.000 C 
ENDBRANCH  17  19
ENDBRANCH   1  17
TORSDOF 4
ENDMDL
MODEL 8
REMARK VINA RESULT:      -7.0      1.921      3.731
REMARK  Name = 
REMARK  4 active torsions:
REMARK  status: ('A' for Active; 'I' for Inactive)
REMARK    1  A    between atoms: C_2  and  C_3
REMARK    2  A    between atoms: C_3  and  N_4
REMARK    3  A    between atoms: N_4  and  C_5
REMARK    4  A    between atoms: N_4  and  N_11
REMARK                            x       y       z     vdW  Elec       q    Type
REMARK                         _______ _______ _______ _____ _____    ______ ____
ROOT
ATOM      1  N   UNL     1       3.891   6.451  17.937  0.00  0.00    +0.000 N 
ENDROOT
BRANCH   1   2
ATOM      2  N   UNL     1       3.005   5.804  18.850  0.00  0.00    +0.000 N 
ATOM      3  C   UNL     1       2.528   6.417  19.996  0.00  0.00    +0.000 A 
ATOM      4  C   UNL     1       1.760   5.533  20.709  0.00  0.00    +0.000 A 
ATOM      5  C   UNL     1       1.649   4.354  19.936  0.00  0.00    +0.000 A 
ATOM      6  C   UNL     1       0.931   3.152  20.122  0.00  0.00    +0.000 A 
ATOM      7  C   UNL     1       0.970   2.158  19.146  0.00  0.00    +0.000 A 
ATOM      8  C   UNL     1       1.740   2.331  18.006  0.00  0.00    +0.000 A 
ATOM      9  C   UNL     1       2.493   3.496  17.821  0.00  0.00    +0.000 A 
ATOM     10  C   UNL     1       2.432   4.527  18.783  0.00  0.00    +0.000 A 
ENDBRANCH   1   2
BRANCH   1  11
ATOM     11  C   UNL     1       5.096   5.870  17.468  0.00  0.00    +0.000 A 
ATOM     12  C   UNL     1       5.396   5.746  16.103  0.00  0.00    +0.000 A 
ATOM     13  C   UNL     1       6.611   5.201  15.712  0.00  0.00    +0.000 A 
ATOM     14  N   UNL     1       7.553   4.766  16.571  0.00  0.00    +0.000 NA
ATOM     15  C   UNL     1       7.259   4.884  17.882  0.00  0.00    +0.000 A 
ATOM     16  C   UNL     1       6.069   5.415  18.364  0.00  0.00    +0.000 A 
ENDBRANCH   1  11
BRANCH   1  17
ATOM     17  C   UNL     1       3.632   7.864  17.655  0.00  0.00    +0.000 C 
BRANCH  17  19
ATOM     18  C   UNL     1       1.515   9.312  17.881  0.00  0.00    +0.000 C 
ATOM     19  C   UNL     1       2.145   8.160  17.605  0.00  0.00    +0.000 C 
ENDBRANCH  17  19
ENDBRANCH   1  17
TORSDOF 4
ENDMDL
MODEL 9
REMARK VINA RESULT:      -6.9      0.838      2.297
REMARK  Name = 
REMARK  4 active torsions:
REMARK  status: ('A' for Active; 'I' for Inactive)
REMARK    1  A    between atoms: C_2  and  C_3
REMARK    2  A    between atoms: C_3  and  N_4
REMARK    3  A    between atoms: N_4  and  C_5
REMARK    4  A    between atoms: N_4  and  N_11
REMARK                            x       y       z     vdW  Elec       q    Type
REMARK                         _______ _______ _______ _____ _____    ______ ____
ROOT
ATOM      1  N   UNL     1       4.759   5.267  17.585  0.00  0.00    +0.000 N 
ENDROOT
BRANCH   1   2
ATOM      2  N   UNL     1       3.636   5.239  18.467  0.00  0.00    +0.000 N 
ATOM      3  C   UNL     1       3.193   6.354  19.156  0.00  0.00    +0.000 A 
ATOM      4  C   UNL     1       2.149   6.009  19.974  0.00  0.00    +0.000 A 
ATOM      5  C   UNL     1       1.840   4.655  19.714  0.00  0.00    +0.000 A 
ATOM      6  C   UNL     1       0.827   3.794  20.192  0.00  0.00    +0.000 A 
ATOM      7  C   UNL     1       0.732   2.491  19.709  0.00  0.00    +0.000 A 
ATOM      8  C   UNL     1       1.653   2.023  18.783  0.00  0.00    +0.000 A 
ATOM      9  C   UNL     1       2.690   2.844  18.327  0.00  0.00    +0.000 A 
ATOM     10  C   UNL     1       2.774   4.178  18.778  0.00  0.00    +0.000 A 
ENDBRANCH   1   2
BRANCH   1  11
ATOM     11  C   UNL     1       5.973   5.936  17.883  0.00  0.00    +0.000 A 
ATOM     12  C   UNL     1       6.376   7.104  17.219  0.00  0.00    +0.000 A 
ATOM     13  C   UNL     1       7.559   7.731  17.585  0.00  0.00    +0.000 A 
ATOM     14  N   UNL     1       8.378   7.285  18.557  0.00  0.00    +0.000 NA
ATOM     15  C   UNL     1       7.988   6.159  19.190  0.00  0.00    +0.000 A 
ATOM     16  C   UNL     1       6.822   5.467  18.891  0.00  0.00    +0.000 A 
ENDBRANCH   1  11
BRANCH   1  17
ATOM     17  C   UNL     1       4.546   4.759  16.230  0.00  0.00    +0.000 C 
BRANCH  17  19
ATOM     18  C   UNL     1       6.383   4.005  14.593  0.00  0.00    +0.000 C 
ATOM     19  C   UNL     1       5.718   3.922  15.755  0.00  0.00    +0.000 C 
ENDBRANCH  17  19
ENDBRANCH   1  17
TORSDOF 4
ENDMDL
