MODEL 1
REMARK VINA RESULT:      -8.2      0.000      0.000
REMARK  Name = 
REMARK  4 active torsions:
REMARK  status: ('A' for Active; 'I' for Inactive)
REMARK    1  A    between atoms: C_1  and  C_2
REMARK    2  A    between atoms: C_4  and  C_5
REMARK    3  A    between atoms: C_5  and  C_6
REMARK    4  A    between atoms: C_5  and  C_7
REMARK                            x       y       z     vdW  Elec       q    Type
REMARK                         _______ _______ _______ _____ _____    ______ ____
ROOT
ATOM      1  C   UNL     1       7.551   5.963  18.101  0.00  0.00    +0.000 C 
ATOM      2  C   UNL     1       6.620   5.206  17.200  0.00  0.00    +0.000 A 
ATOM      3  N   UNL     1       7.112   4.957  15.955  0.00  0.00    +0.000 NA
ATOM      4  C   UNL     1       6.355   4.282  15.058  0.00  0.00    +0.000 A 
ATOM      5  C   UNL     1       5.083   3.829  15.381  0.00  0.00    +0.000 A 
ATOM      6  C   UNL     1       4.580   4.091  16.661  0.00  0.00    +0.000 A 
ATOM      7  C   UNL     1       5.347   4.788  17.592  0.00  0.00    +0.000 A 
ATOM      8  C   UNL     1       4.798   5.057  18.939  0.00  0.00    +0.000 C 
ATOM      9  O   UNL     1       5.442   5.661  19.790  0.00  0.00    +0.000 OA
ATOM     10  C   UNL     1       3.441   4.594  19.279  0.00  0.00    +0.000 A 
ATOM     11  C   UNL     1       2.927   4.859  20.557  0.00  0.00    +0.000 A 
ATOM     12  C   UNL     1       1.645   4.431  20.897  0.00  0.00    +0.000 A 
ATOM     13  C   UNL     1       0.874   3.738  19.965  0.00  0.00    +0.000 A 
ATOM     14  C   UNL     1       1.386   3.471  18.693  0.00  0.00    +0.000 A 
ATOM     15  C   UNL     1       2.676   3.900  18.347  0.00  0.00    +0.000 A 
ATOM     16  C   UNL     1       3.220   3.619  17.005  0.00  0.00    +0.000 C 
ATOM     17  O   UNL     1       2.551   3.004  16.182  0.00  0.00    +0.000 OA
ENDROOT
BRANCH   4  18
ATOM     18  C   UNL     1       6.944   4.046  13.680  0.00  0.00    +0.000 C 
ATOM     19  C   UNL     1       5.873   3.548  12.706  0.00  0.00    +0.000 C 
ATOM     20  C   UNL     1       7.604   5.316  13.137  0.00  0.00    +0.000 C 
ENDBRANCH   4  18
TORSDOF 1
ENDMDL
MODEL 2
REMARK VINA RESULT:      -7.7      1.468      1.532
REMARK  Name = 
REMARK  4 active torsions:
REMARK  status: ('A' for Active; 'I' for Inactive)
REMARK    1  A    between atoms: C_1  and  C_2
REMARK    2  A    between atoms: C_4  and  C_5
REMARK    3  A    between atoms: C_5  and  C_6
REMARK    4  A    between atoms: C_5  and  C_7
REMARK                            x       y       z     vdW  Elec       q    Type
REMARK                         _______ _______ _______ _____ _____    ______ ____
ROOT
ATOM      1  C   UNL     1       4.827   7.625  16.654  0.00  0.00    +0.000 C 
ATOM      2  C   UNL     1       4.903   6.141  16.444  0.00  0.00    +0.000 A 
ATOM      3  N   UNL     1       5.699   5.754  15.408  0.00  0.00    +0.000 NA
ATOM      4  C   UNL     1       5.839   4.437  15.127  0.00  0.00    +0.000 A 
ATOM      5  C   UNL     1       5.193   3.465  15.876  0.00  0.00    +0.000 A 
ATOM      6  C   UNL     1       4.373   3.867  16.938  0.00  0.00    +0.000 A 
ATOM      7  C   UNL     1       4.216   5.219  17.236  0.00  0.00    +0.000 A 
ATOM      8  C   UNL     1       3.344   5.626  18.359  0.00  0.00    +0.000 C 
ATOM      9  O   UNL     1       3.184   6.804  18.659  0.00  0.00    +0.000 OA
ATOM     10  C   UNL     1       2.641   4.597  19.145  0.00  0.00    +0.000 A 
ATOM     11  C   UNL     1       1.811   4.992  20.205  0.00  0.00    +0.000 A 
ATOM     12  C   UNL     1       1.136   4.035  20.960  0.00  0.00    +0.000 A 
ATOM     13  C   UNL     1       1.288   2.681  20.660  0.00  0.00    +0.000 A 
ATOM     14  C   UNL     1       2.116   2.286  19.606  0.00  0.00    +0.000 A 
ATOM     15  C   UNL     1       2.796   3.247  18.845  0.00  0.00    +0.000 A 
ATOM     16  C   UNL     1       3.672   2.834  17.732  0.00  0.00    +0.000 C 
ATOM     17  O   UNL     1       3.816   1.645  17.467  0.00  0.00    +0.000 OA
ENDROOT
BRANCH   4  18
ATOM     18  C   UNL     1       6.723   4.062  13.953  0.00  0.00    +0.000 C 
ATOM     19  C   UNL     1       5.885   3.550  12.779  0.00  0.00    +0.000 C 
ATOM     20  C   UNL     1       7.586   5.246  13.510  0.00  0.00    +0.000 C 
ENDBRANCH   4  18
TORSDOF 1
ENDMDL
MODEL 3
REMARK VINA RESULT:      -7.7      0.706      1.062
REMARK  Name = 
REMARK  4 active torsions:
REMARK  status: ('A' for Active; 'I' for Inactive)
REMARK    1  A    between atoms: C_1  and  C_2
REMARK    2  A    between atoms: C_4  and  C_5
REMARK    3  A    between atoms: C_5  and  C_6
REMARK    4  A    between atoms: C_5  and  C_7
REMARK                            x       y       z     vdW  Elec       q    Type
REMARK                         _______ _______ _______ _____ _____    ______ ____
ROOT
ATOM      1  C   UNL     1       7.692   5.140  18.231  0.00  0.00    +0.000 C 
ATOM      2  C   UNL     1       6.573   4.769  17.301  0.00  0.00    +0.000 A 
ATOM      3  N   UNL     1       6.881   4.860  15.978  0.00  0.00    +0.000 NA
ATOM      4  C   UNL     1       5.945   4.550  15.050  0.00  0.00    +0.000 A 
ATOM      5  C   UNL     1       4.673   4.134  15.416  0.00  0.00    +0.000 A 
ATOM      6  C   UNL     1       4.360   4.046  16.778  0.00  0.00    +0.000 A 
ATOM      7  C   UNL     1       5.312   4.366  17.744  0.00  0.00    +0.000 A 
ATOM      8  C   UNL     1       4.963   4.270  19.177  0.00  0.00    +0.000 C 
ATOM      9  O   UNL     1       5.773   4.535  20.059  0.00  0.00    +0.000 OA
ATOM     10  C   UNL     1       3.607   3.846  19.570  0.00  0.00    +0.000 A 
ATOM     11  C   UNL     1       3.283   3.764  20.933  0.00  0.00    +0.000 A 
ATOM     12  C   UNL     1       2.006   3.367  21.325  0.00  0.00    +0.000 A 
ATOM     13  C   UNL     1       1.050   3.052  20.360  0.00  0.00    +0.000 A 
ATOM     14  C   UNL     1       1.372   3.132  19.003  0.00  0.00    +0.000 A 
ATOM     15  C   UNL     1       2.656   3.530  18.605  0.00  0.00    +0.000 A 
ATOM     16  C   UNL     1       3.001   3.615  17.173  0.00  0.00    +0.000 C 
ATOM     17  O   UNL     1       2.168   3.332  16.319  0.00  0.00    +0.000 OA
ENDROOT
BRANCH   4  18
ATOM     18  C   UNL     1       6.335   4.684  13.590  0.00  0.00    +0.000 C 
ATOM     19  C   UNL     1       7.795   5.126  13.452  0.00  0.00    +0.000 C 
ATOM     20  C   UNL     1       6.106   3.373  12.834  0.00  0.00    +0.000 C 
ENDBRANCH   4  18
TORSDOF 1
ENDMDL
MODEL 4
REMARK VINA RESULT:      -7.5      3.226      6.615
REMARK  Name = 
REMARK  4 active torsions:
REMARK  status: ('A' for Active; 'I' for Inactive)
REMARK    1  A    between atoms: C_1  and  C_2
REMARK    2  A    between atoms: C_4  and  C_5
REMARK    3  A    between atoms: C_5  and  C_6
REMARK    4  A    between atoms: C_5  and  C_7
REMARK                            x       y       z     vdW  Elec       q    Type
REMARK                         _______ _______ _______ _____ _____    ______ ____
ROOT
ATOM      1  C   UNL     1       2.017   3.922  21.179  0.00  0.00    +0.000 C 
ATOM      2  C   UNL     1       2.098   5.262  20.508  0.00  0.00    +0.000 A 
ATOM      3  N   UNL     1       1.381   6.247  21.118  0.00  0.00    +0.000 NA
ATOM      4  C   UNL     1       1.381   7.496  20.597  0.00  0.00    +0.000 A 
ATOM      5  C   UNL     1       2.104   7.803  19.453  0.00  0.00    +0.000 A 
ATOM      6  C   UNL     1       2.837   6.787  18.828  0.00  0.00    +0.000 A 
ATOM      7  C   UNL     1       2.842   5.495  19.351  0.00  0.00    +0.000 A 
ATOM      8  C   UNL     1       3.620   4.434  18.675  0.00  0.00    +0.000 C 
ATOM      9  O   UNL     1       3.657   3.287  19.107  0.00  0.00    +0.000 OA
ATOM     10  C   UNL     1       4.374   4.751  17.450  0.00  0.00    +0.000 A 
ATOM     11  C   UNL     1       5.105   3.737  16.813  0.00  0.00    +0.000 A 
ATOM     12  C   UNL     1       5.823   4.016  15.651  0.00  0.00    +0.000 A 
ATOM     13  C   UNL     1       5.814   5.307  15.123  0.00  0.00    +0.000 A 
ATOM     14  C   UNL     1       5.089   6.318  15.758  0.00  0.00    +0.000 A 
ATOM     15  C   UNL     1       4.366   6.041  16.927  0.00  0.00    +0.000 A 
ATOM     16  C   UNL     1       3.600   7.106  17.600  0.00  0.00    +0.000 C 
ATOM     17  O   UNL     1       3.593   8.245  17.146  0.00  0.00    +0.000 OA
ENDROOT
BRANCH   4  18
ATOM     18  C   UNL     1       0.552   8.551  21.305  0.00  0.00    +0.000 C 
ATOM     19  C   UNL     1       1.341   9.186  22.453  0.00  0.00    +0.000 C 
ATOM     20  C   UNL     1       0.077   9.629  20.328  0.00  0.00    +0.000 C 
ENDBRANCH   4  18
TORSDOF 1
ENDMDL
MODEL 5
REMARK VINA RESULT:      -7.5      2.902      3.789
REMARK  Name = 
REMARK  4 active torsions:
REMARK  status: ('A' for Active; 'I' for Inactive)
REMARK    1  A    between atoms: C_1  and  C_2
REMARK    2  A    between atoms: C_4  and  C_5
REMARK    3  A    between atoms: C_5  and  C_6
REMARK    4  A    between atoms: C_5  and  C_7
REMARK                            x       y       z     vdW  Elec       q    Type
REMARK                         _______ _______ _______ _____ _____    ______ ____
ROOT
ATOM      1  C   UNL     1       3.708   2.966  20.084  0.00  0.00    +0.000 C 
ATOM      2  C   UNL     1       3.902   4.008  19.022  0.00  0.00    +0.000 A 
ATOM      3  N   UNL     1       4.721   3.632  18.000  0.00  0.00    +0.000 NA
ATOM      4  C   UNL     1       4.968   4.495  16.987  0.00  0.00    +0.000 A 
ATOM      5  C   UNL     1       4.399   5.761  16.960  0.00  0.00    +0.000 A 
ATOM      6  C   UNL     1       3.562   6.144  18.015  0.00  0.00    +0.000 A 
ATOM      7  C   UNL     1       3.302   5.268  19.066  0.00  0.00    +0.000 A 
ATOM      8  C   UNL     1       2.416   5.691  20.172  0.00  0.00    +0.000 C 
ATOM      9  O   UNL     1       2.157   4.948  21.112  0.00  0.00    +0.000 OA
ATOM     10  C   UNL     1       1.826   7.041  20.156  0.00  0.00    +0.000 A 
ATOM     11  C   UNL     1       0.991   7.436  21.213  0.00  0.00    +0.000 A 
ATOM     12  C   UNL     1       0.424   8.709  21.218  0.00  0.00    +0.000 A 
ATOM     13  C   UNL     1       0.687   9.590  20.169  0.00  0.00    +0.000 A 
ATOM     14  C   UNL     1       1.516   9.197  19.115  0.00  0.00    +0.000 A 
ATOM     15  C   UNL     1       2.088   7.917  19.108  0.00  0.00    +0.000 A 
ATOM     16  C   UNL     1       2.962   7.498  17.996  0.00  0.00    +0.000 C 
ATOM     17  O   UNL     1       3.192   8.264  17.067  0.00  0.00    +0.000 OA
ENDROOT
BRANCH   4  18
ATOM     18  C   UNL     1       5.900   4.032  15.884  0.00  0.00    +0.000 C 
ATOM     19  C   UNL     1       5.363   4.437  14.508  0.00  0.00    +0.000 C 
ATOM     20  C   UNL     1       7.313   4.586  16.084  0.00  0.00    +0.000 C 
ENDBRANCH   4  18
TORSDOF 1
ENDMDL
MODEL 6
REMARK VINA RESULT:      -7.4      3.055      3.908
REMARK  Name = 
REMARK  4 active torsions:
REMARK  status: ('A' for Active; 'I' for Inactive)
REMARK    1  A    between atoms: C_1  and  C_2
REMARK    2  A    between atoms: C_4  and  C_5
REMARK    3  A    between atoms: C_5  and  C_6
REMARK    4  A    between atoms: C_5  and  C_7
REMARK                            x       y       z     vdW  Elec       q    Type
REMARK                         _______ _______ _______ _____ _____    ______ ____
ROOT
ATOM      1  C   UNL     1       4.129   3.500  19.599  0.00  0.00    +0.000 C 
ATOM      2  C   UNL     1       4.141   4.656  18.642  0.00  0.00    +0.000 A 
ATOM      3  N   UNL     1       4.951   4.489  17.559  0.00  0.00    +0.000 NA
ATOM      4  C   UNL     1       5.039   5.471  16.632  0.00  0.00    +0.000 A 
ATOM      5  C   UNL     1       4.317   6.649  16.754  0.00  0.00    +0.000 A 
ATOM      6  C   UNL     1       3.490   6.818  17.871  0.00  0.00    +0.000 A 
ATOM      7  C   UNL     1       3.392   5.818  18.836  0.00  0.00    +0.000 A 
ATOM      8  C   UNL     1       2.514   6.015  20.010  0.00  0.00    +0.000 C 
ATOM      9  O   UNL     1       2.394   5.157  20.877  0.00  0.00    +0.000 OA
ATOM     10  C   UNL     1       1.760   7.272  20.153  0.00  0.00    +0.000 A 
ATOM     11  C   UNL     1       0.935   7.453  21.273  0.00  0.00    +0.000 A 
ATOM     12  C   UNL     1       0.215   8.636  21.428  0.00  0.00    +0.000 A 
ATOM     13  C   UNL     1       0.316   9.641  20.467  0.00  0.00    +0.000 A 
ATOM     14  C   UNL     1       1.136   9.461  19.350  0.00  0.00    +0.000 A 
ATOM     15  C   UNL     1       1.861   8.272  19.191  0.00  0.00    +0.000 A 
ATOM     16  C   UNL     1       2.727   8.079  18.012  0.00  0.00    +0.000 C 
ATOM     17  O   UNL     1       2.815   8.955  17.159  0.00  0.00    +0.000 OA
ENDROOT
BRANCH   4  18
ATOM     18  C   UNL     1       5.968   5.240  15.455  0.00  0.00    +0.000 C 
ATOM     19  C   UNL     1       7.307   4.661  15.920  0.00  0.00    +0.000 C 
ATOM     20  C   UNL     1       5.325   4.319  14.415  0.00  0.00    +0.000 C 
ENDBRANCH   4  18
TORSDOF 1
ENDMDL
MODEL 7
REMARK VINA RESULT:      -7.1      1.669      1.962
REMARK  Name = 
REMARK  4 active torsions:
REMARK  status: ('A' for Active; 'I' for Inactive)
REMARK    1  A    between atoms: C_1  and  C_2
REMARK    2  A    between atoms: C_4  and  C_5
REMARK    3  A    between atoms: C_5  and  C_6
REMARK    4  A    between atoms: C_5  and  C_7
REMARK                            x       y       z     vdW  Elec       q    Type
REMARK                         _______ _______ _______ _____ _____    ______ ____
ROOT
ATOM      1  C   UNL     1       4.272   7.992  17.297  0.00  0.00    +0.000 C 
ATOM      2  C   UNL     1       4.459   6.557  16.900  0.00  0.00    +0.000 A 
ATOM      3  N   UNL     1       5.186   6.372  15.763  0.00  0.00    +0.000 NA
ATOM      4  C   UNL     1       5.415   5.117  15.311  0.00  0.00    +0.000 A 
ATOM      5  C   UNL     1       4.929   4.006  15.985  0.00  0.00    +0.000 A 
ATOM      6  C   UNL     1       4.178   4.201  17.151  0.00  0.00    +0.000 A 
ATOM      7  C   UNL     1       3.932   5.487  17.625  0.00  0.00    +0.000 A 
ATOM      8  C   UNL     1       3.135   5.674  18.857  0.00  0.00    +0.000 C 
ATOM      9  O   UNL     1       2.901   6.788  19.312  0.00  0.00    +0.000 OA
ATOM     10  C   UNL     1       2.601   4.497  19.565  0.00  0.00    +0.000 A 
ATOM     11  C   UNL     1       1.841   4.684  20.729  0.00  0.00    +0.000 A 
ATOM     12  C   UNL     1       1.325   3.584  21.412  0.00  0.00    +0.000 A 
ATOM     13  C   UNL     1       1.567   2.296  20.936  0.00  0.00    +0.000 A 
ATOM     14  C   UNL     1       2.325   2.108  19.778  0.00  0.00    +0.000 A 
ATOM     15  C   UNL     1       2.845   3.213  19.088  0.00  0.00    +0.000 A 
ATOM     16  C   UNL     1       3.648   3.018  17.866  0.00  0.00    +0.000 C 
ATOM     17  O   UNL     1       3.871   1.888  17.445  0.00  0.00    +0.000 OA
ENDROOT
BRANCH   4  18
ATOM     18  C   UNL     1       6.217   4.969  14.032  0.00  0.00    +0.000 C 
ATOM     19  C   UNL     1       7.718   5.086  14.311  0.00  0.00    +0.000 C 
ATOM     20  C   UNL     1       5.909   3.640  13.338  0.00  0.00    +0.000 C 
ENDBRANCH   4  18
TORSDOF 1
ENDMDL
MODEL 8
REMARK VINA RESULT:      -7.0      4.235      7.171
REMARK  Name = 
REMARK  4 active torsions:
REMARK  status: ('A' for Active; 'I' for Inactive)
REMARK    1  A    between atoms: C_1  and  C_2
REMARK    2  A    between atoms: C_4  and  C_5
REMARK    3  A    between atoms: C_5  and  C_6
REMARK    4  A    between atoms: C_5  and  C_7
REMARK                            x       y       z     vdW  Elec       q    Type
REMARK                         _______ _______ _______ _____ _____    ______ ____
ROOT
ATOM      1  C   UNL     1       1.942  10.159  17.821  0.00  0.00    +0.000 C 
ATOM      2  C   UNL     1       1.638   9.225  18.956  0.00  0.00    +0.000 A 
ATOM      3  N   UNL     1       0.858   9.758  19.937  0.00  0.00    +0.000 NA
ATOM      4  C   UNL     1       0.522   9.004  21.010  0.00  0.00    +0.000 A 
ATOM      5  C   UNL     1       0.950   7.691  21.134  0.00  0.00    +0.000 A 
ATOM      6  C   UNL     1       1.755   7.148  20.125  0.00  0.00    +0.000 A 
ATOM      7  C   UNL     1       2.112   7.913  19.017  0.00  0.00    +0.000 A 
ATOM      8  C   UNL     1       2.964   7.324  17.962  0.00  0.00    +0.000 C 
ATOM      9  O   UNL     1       3.295   7.961  16.968  0.00  0.00    +0.000 OA
ATOM     10  C   UNL     1       3.437   5.935  18.099  0.00  0.00    +0.000 A 
ATOM     11  C   UNL     1       4.251   5.386  17.096  0.00  0.00    +0.000 A 
ATOM     12  C   UNL     1       4.709   4.074  17.207  0.00  0.00    +0.000 A 
ATOM     13  C   UNL     1       4.358   3.308  18.318  0.00  0.00    +0.000 A 
ATOM     14  C   UNL     1       3.546   3.853  19.316  0.00  0.00    +0.000 A 
ATOM     15  C   UNL     1       3.083   5.172  19.207  0.00  0.00    +0.000 A 
ATOM     16  C   UNL     1       2.224   5.750  20.258  0.00  0.00    +0.000 C 
ATOM     17  O   UNL     1       1.905   5.080  21.234  0.00  0.00    +0.000 OA
ENDROOT
BRANCH   4  18
ATOM     18  C   UNL     1      -0.334   9.653  22.081  0.00  0.00    +0.000 C 
ATOM     19  C   UNL     1       0.254   9.408  23.474  0.00  0.00    +0.000 C 
ATOM     20  C   UNL     1      -0.491  11.154  21.830  0.00  0.00    +0.000 C 
ENDBRANCH   4  18
TORSDOF 1
ENDMDL
MODEL 9
REMARK VINA RESULT:      -6.9      4.379      5.435
REMARK  Name = 
REMARK  4 active torsions:
REMARK  status: ('A' for Active; 'I' for Inactive)
REMARK    1  A    between atoms: C_1  and  C_2
REMARK    2  A    between atoms: C_4  and  C_5
REMARK    3  A    between atoms: C_5  and  C_6
REMARK    4  A    between atoms: C_5  and  C_7
REMARK                            x       y       z     vdW  Elec       q    Type
REMARK                         _______ _______ _______ _____ _____    ______ ____
ROOT
ATOM      1  C   UNL     1       2.429   4.934  20.901  0.00  0.00    +0.000 C 
ATOM      2  C   UNL     1       2.767   5.822  19.739  0.00  0.00    +0.000 A 
ATOM      3  N   UNL     1       3.651   5.286  18.852  0.00  0.00    +0.000 NA
ATOM      4  C   UNL     1       4.027   6.001  17.767  0.00  0.00    +0.000 A 
ATOM      5  C   UNL     1       3.528   7.273  17.530  0.00  0.00    +0.000 A 
ATOM      6  C   UNL     1       2.623   7.822  18.446  0.00  0.00    +0.000 A 
ATOM      7  C   UNL     1       2.229   7.099  19.570  0.00  0.00    +0.000 A 
ATOM      8  C   UNL     1       1.274   7.695  20.528  0.00  0.00    +0.000 C 
ATOM      9  O   UNL     1       0.897   7.090  21.526  0.00  0.00    +0.000 OA
ATOM     10  C   UNL     1       0.755   9.054  20.290  0.00  0.00    +0.000 A 
ATOM     11  C   UNL     1      -0.146   9.614  21.208  0.00  0.00    +0.000 A 
ATOM     12  C   UNL     1      -0.646  10.899  21.002  0.00  0.00    +0.000 A 
ATOM     13  C   UNL     1      -0.250  11.626  19.880  0.00  0.00    +0.000 A 
ATOM     14  C   UNL     1       0.646  11.069  18.965  0.00  0.00    +0.000 A 
ATOM     15  C   UNL     1       1.151   9.777  19.169  0.00  0.00    +0.000 A 
ATOM     16  C   UNL     1       2.096   9.184  18.204  0.00  0.00    +0.000 C 
ATOM     17  O   UNL     1       2.444   9.815  17.211  0.00  0.00    +0.000 OA
ENDROOT
BRANCH   4  18
ATOM     18  C   UNL     1       5.027   5.363  16.820  0.00  0.00    +0.000 C 
ATOM     19  C   UNL     1       4.575   3.958  16.414  0.00  0.00    +0.000 C 
ATOM     20  C   UNL     1       5.241   6.230  15.577  0.00  0.00    +0.000 C 
ENDBRANCH   4  18
TORSDOF 1
ENDMDL
