MODEL 1
REMARK VINA RESULT:      -6.9      0.000      0.000
REMARK  Name = 
REMARK  9 active torsions:
REMARK  status: ('A' for Active; 'I' for Inactive)
REMARK    1  A    between atoms: C_1  and  O_2
REMARK    2  A    between atoms: O_2  and  C_3
REMARK    3  A    between atoms: C_8  and  C_9
REMARK    4  A    between atoms: C_11  and  C_12
REMARK    5  A    between atoms: C_12  and  N_13
REMARK    6  A    between atoms: N_13  and  C_14
REMARK    7  A    between atoms: N_13  and  C_15
REMARK    8  A    between atoms: C_18  and  O_19
REMARK    9  A    between atoms: O_19  and  C_20
REMARK                            x       y       z     vdW  Elec       q    Type
REMARK                         _______ _______ _______ _____ _____    ______ ____
ROOT
ATOM      1  C   UNL     1       5.169   4.638  17.493  0.00  0.00    +0.000 A 
ATOM      2  C   UNL     1       4.799   4.520  16.132  0.00  0.00    +0.000 A 
ATOM      3  C   UNL     1       5.727   4.432  15.080  0.00  0.00    +0.000 A 
ATOM      4  C   UNL     1       7.080   4.570  15.367  0.00  0.00    +0.000 A 
ATOM      5  C   UNL     1       7.498   4.684  16.690  0.00  0.00    +0.000 A 
ATOM      6  C   UNL     1       6.569   4.688  17.750  0.00  0.00    +0.000 A 
ENDROOT
BRANCH   1  12
ATOM      7  C   UNL     1       3.529   3.745  19.315  0.00  0.00    +0.000 A 
ATOM      8  C   UNL     1       2.392   3.960  20.119  0.00  0.00    +0.000 A 
ATOM      9  C   UNL     1       1.833   5.223  20.250  0.00  0.00    +0.000 A 
ATOM     10  C   UNL     1       2.400   6.293  19.576  0.00  0.00    +0.000 A 
ATOM     11  C   UNL     1       3.491   6.078  18.728  0.00  0.00    +0.000 A 
ATOM     12  C   UNL     1       4.086   4.808  18.538  0.00  0.00    +0.000 A 
BRANCH   7  14
ATOM     13  C   UNL     1       3.477   1.501  18.451  0.00  0.00    +0.000 C 
ATOM     14  O   UNL     1       4.122   2.501  19.234  0.00  0.00    +0.000 OA
ENDBRANCH   7  14
ENDBRANCH   1  12
BRANCH   6  15
ATOM     15  O   UNL     1       6.993   4.684  19.061  0.00  0.00    +0.000 OA
ATOM     16  C   UNL     1       7.878   5.729  19.459  0.00  0.00    +0.000 C 
ENDBRANCH   6  15
BRANCH   3  17
ATOM     17  C   UNL     1       5.252   4.152  13.671  0.00  0.00    +0.000 C 
BRANCH  17  18
ATOM     18  N   UNL     1       6.252   3.444  12.847  0.00  0.00    +0.000 NA
ATOM     19  C   UNL     1       5.625   2.537  11.879  0.00  0.00    +0.000 C 
ATOM     20  C   UNL     1       7.082   4.417  12.134  0.00  0.00    +0.000 C 
ENDBRANCH  17  18
ENDBRANCH   3  17
TORSDOF 5
ENDMDL
MODEL 2
REMARK VINA RESULT:      -6.9      1.505      2.405
REMARK  Name = 
REMARK  9 active torsions:
REMARK  status: ('A' for Active; 'I' for Inactive)
REMARK    1  A    between atoms: C_1  and  O_2
REMARK    2  A    between atoms: O_2  and  C_3
REMARK    3  A    between atoms: C_8  and  C_9
REMARK    4  A    between atoms: C_11  and  C_12
REMARK    5  A    between atoms: C_12  and  N_13
REMARK    6  A    between atoms: N_13  and  C_14
REMARK    7  A    between atoms: N_13  and  C_15
REMARK    8  A    between atoms: C_18  and  O_19
REMARK    9  A    between atoms: O_19  and  C_20
REMARK                            x       y       z     vdW  Elec       q    Type
REMARK                         _______ _______ _______ _____ _____    ______ ____
ROOT
ATOM      1  C   UNL     1       5.003   4.103  16.580  0.00  0.00    +0.000 A 
ATOM      2  C   UNL     1       5.081   4.114  15.167  0.00  0.00    +0.000 A 
ATOM      3  C   UNL     1       6.258   4.405  14.456  0.00  0.00    +0.000 A 
ATOM      4  C   UNL     1       7.385   4.806  15.163  0.00  0.00    +0.000 A 
ATOM      5  C   UNL     1       7.363   4.808  16.555  0.00  0.00    +0.000 A 
ATOM      6  C   UNL     1       6.206   4.435  17.267  0.00  0.00    +0.000 A 
ENDROOT
BRANCH   1  12
ATOM      7  C   UNL     1       2.844   4.869  17.830  0.00  0.00    +0.000 A 
ATOM      8  C   UNL     1       1.711   4.526  18.594  0.00  0.00    +0.000 A 
ATOM      9  C   UNL     1       1.307   3.206  18.727  0.00  0.00    +0.000 A 
ATOM     10  C   UNL     1       2.031   2.205  18.098  0.00  0.00    +0.000 A 
ATOM     11  C   UNL     1       3.191   2.529  17.388  0.00  0.00    +0.000 A 
ATOM     12  C   UNL     1       3.663   3.856  17.241  0.00  0.00    +0.000 A 
BRANCH   7  14
ATOM     13  C   UNL     1       2.650   7.165  18.518  0.00  0.00    +0.000 C 
ATOM     14  O   UNL     1       3.210   6.187  17.647  0.00  0.00    +0.000 OA
ENDBRANCH   7  14
ENDBRANCH   1  12
BRANCH   6  15
ATOM     15  O   UNL     1       6.225   4.328  18.640  0.00  0.00    +0.000 OA
ATOM     16  C   UNL     1       6.665   5.468  19.373  0.00  0.00    +0.000 C 
ENDBRANCH   6  15
BRANCH   3  17
ATOM     17  C   UNL     1       6.295   4.243  12.952  0.00  0.00    +0.000 C 
BRANCH  17  18
ATOM     18  N   UNL     1       5.603   3.027  12.478  0.00  0.00    +0.000 NA
ATOM     19  C   UNL     1       4.439   3.346  11.643  0.00  0.00    +0.000 C 
ATOM     20  C   UNL     1       6.536   2.196  11.714  0.00  0.00    +0.000 C 
ENDBRANCH  17  18
ENDBRANCH   3  17
TORSDOF 5
ENDMDL
MODEL 3
REMARK VINA RESULT:      -6.8      2.483      6.261
REMARK  Name = 
REMARK  9 active torsions:
REMARK  status: ('A' for Active; 'I' for Inactive)
REMARK    1  A    between atoms: C_1  and  O_2
REMARK    2  A    between atoms: O_2  and  C_3
REMARK    3  A    between atoms: C_8  and  C_9
REMARK    4  A    between atoms: C_11  and  C_12
REMARK    5  A    between atoms: C_12  and  N_13
REMARK    6  A    between atoms: N_13  and  C_14
REMARK    7  A    between atoms: N_13  and  C_15
REMARK    8  A    between atoms: C_18  and  O_19
REMARK    9  A    between atoms: O_19  and  C_20
REMARK                            x       y       z     vdW  Elec       q    Type
REMARK                         _______ _______ _______ _____ _____    ______ ____
ROOT
ATOM      1  C   UNL     1       3.849   4.935  18.709  0.00  0.00    +0.000 A 
ATOM      2  C   UNL     1       3.393   6.263  18.888  0.00  0.00    +0.000 A 
ATOM      3  C   UNL     1       2.359   6.617  19.772  0.00  0.00    +0.000 A 
ATOM      4  C   UNL     1       1.671   5.608  20.435  0.00  0.00    +0.000 A 
ATOM      5  C   UNL     1       2.083   4.285  20.299  0.00  0.00    +0.000 A 
ATOM      6  C   UNL     1       3.174   3.943  19.475  0.00  0.00    +0.000 A 
ENDROOT
BRANCH   1  12
ATOM      7  C   UNL     1       6.323   4.704  17.912  0.00  0.00    +0.000 A 
ATOM      8  C   UNL     1       7.240   4.626  16.846  0.00  0.00    +0.000 A 
ATOM      9  C   UNL     1       6.812   4.415  15.543  0.00  0.00    +0.000 A 
ATOM     10  C   UNL     1       5.457   4.282  15.284  0.00  0.00    +0.000 A 
ATOM     11  C   UNL     1       4.535   4.417  16.327  0.00  0.00    +0.000 A 
ATOM     12  C   UNL     1       4.914   4.657  17.670  0.00  0.00    +0.000 A 
BRANCH   7  14
ATOM     13  C   UNL     1       7.849   5.726  19.464  0.00  0.00    +0.000 C 
ATOM     14  O   UNL     1       6.753   4.851  19.215  0.00  0.00    +0.000 OA
ENDBRANCH   7  14
ENDBRANCH   1  12
BRANCH   6  15
ATOM     15  O   UNL     1       3.649   2.650  19.434  0.00  0.00    +0.000 OA
ATOM     16  C   UNL     1       2.966   1.735  18.581  0.00  0.00    +0.000 C 
ENDBRANCH   6  15
BRANCH   3  17
ATOM     17  C   UNL     1       2.037   8.074  20.018  0.00  0.00    +0.000 C 
BRANCH  17  18
ATOM     18  N   UNL     1       1.222   8.682  18.944  0.00  0.00    +0.000 NA
ATOM     19  C   UNL     1       0.373   9.768  19.446  0.00  0.00    +0.000 C 
ATOM     20  C   UNL     1       2.100   9.197  17.892  0.00  0.00    +0.000 C 
ENDBRANCH  17  18
ENDBRANCH   3  17
TORSDOF 5
ENDMDL
MODEL 4
REMARK VINA RESULT:      -6.8      2.882      6.721
REMARK  Name = 
REMARK  9 active torsions:
REMARK  status: ('A' for Active; 'I' for Inactive)
REMARK    1  A    between atoms: C_1  and  O_2
REMARK    2  A    between atoms: O_2  and  C_3
REMARK    3  A    between atoms: C_8  and  C_9
REMARK    4  A    between atoms: C_11  and  C_12
REMARK    5  A    between atoms: C_12  and  N_13
REMARK    6  A    between atoms: N_13  and  C_14
REMARK    7  A    between atoms: N_13  and  C_15
REMARK    8  A    between atoms: C_18  and  O_19
REMARK    9  A    between atoms: O_19  and  C_20
REMARK                            x       y       z     vdW  Elec       q    Type
REMARK                         _______ _______ _______ _____ _____    ______ ____
ROOT
ATOM      1  C   UNL     1       3.709   4.949  18.843  0.00  0.00    +0.000 A 
ATOM      2  C   UNL     1       3.274   6.285  19.009  0.00  0.00    +0.000 A 
ATOM      3  C   UNL     1       2.221   6.660  19.861  0.00  0.00    +0.000 A 
ATOM      4  C   UNL     1       1.492   5.664  20.502  0.00  0.00    +0.000 A 
ATOM      5  C   UNL     1       1.882   4.333  20.377  0.00  0.00    +0.000 A 
ATOM      6  C   UNL     1       2.991   3.969  19.588  0.00  0.00    +0.000 A 
ENDROOT
BRANCH   1  12
ATOM      7  C   UNL     1       6.202   4.770  18.094  0.00  0.00    +0.000 A 
ATOM      8  C   UNL     1       7.138   4.663  17.046  0.00  0.00    +0.000 A 
ATOM      9  C   UNL     1       6.738   4.351  15.755  0.00  0.00    +0.000 A 
ATOM     10  C   UNL     1       5.394   4.144  15.488  0.00  0.00    +0.000 A 
ATOM     11  C   UNL     1       4.452   4.308  16.509  0.00  0.00    +0.000 A 
ATOM     12  C   UNL     1       4.800   4.650  17.838  0.00  0.00    +0.000 A 
BRANCH   7  14
ATOM     13  C   UNL     1       7.860   5.665  19.589  0.00  0.00    +0.000 C 
ATOM     14  O   UNL     1       6.606   5.019  19.390  0.00  0.00    +0.000 OA
ENDBRANCH   7  14
ENDBRANCH   1  12
BRANCH   6  15
ATOM     15  O   UNL     1       3.441   2.668  19.560  0.00  0.00    +0.000 OA
ATOM     16  C   UNL     1       4.362   2.279  20.576  0.00  0.00    +0.000 C 
ENDBRANCH   6  15
BRANCH   3  17
ATOM     17  C   UNL     1       1.920   8.123  20.097  0.00  0.00    +0.000 C 
BRANCH  17  18
ATOM     18  N   UNL     1       0.880   8.348  21.123  0.00  0.00    +0.000 NA
ATOM     19  C   UNL     1       1.422   8.992  22.324  0.00  0.00    +0.000 C 
ATOM     20  C   UNL     1      -0.189   9.178  20.566  0.00  0.00    +0.000 C 
ENDBRANCH  17  18
ENDBRANCH   3  17
TORSDOF 5
ENDMDL
MODEL 5
REMARK VINA RESULT:      -6.7      1.867      2.682
REMARK  Name = 
REMARK  9 active torsions:
REMARK  status: ('A' for Active; 'I' for Inactive)
REMARK    1  A    between atoms: C_1  and  O_2
REMARK    2  A    between atoms: O_2  and  C_3
REMARK    3  A    between atoms: C_8  and  C_9
REMARK    4  A    between atoms: C_11  and  C_12
REMARK    5  A    between atoms: C_12  and  N_13
REMARK    6  A    between atoms: N_13  and  C_14
REMARK    7  A    between atoms: N_13  and  C_15
REMARK    8  A    between atoms: C_18  and  O_19
REMARK    9  A    between atoms: O_19  and  C_20
REMARK                            x       y       z     vdW  Elec       q    Type
REMARK                         _______ _______ _______ _____ _____    ______ ____
ROOT
ATOM      1  C   UNL     1       3.832   4.729  17.433  0.00  0.00    +0.000 A 
ATOM      2  C   UNL     1       4.589   4.052  16.448  0.00  0.00    +0.000 A 
ATOM      3  C   UNL     1       5.492   4.695  15.584  0.00  0.00    +0.000 A 
ATOM      4  C   UNL     1       5.580   6.081  15.619  0.00  0.00    +0.000 A 
ATOM      5  C   UNL     1       4.860   6.796  16.573  0.00  0.00    +0.000 A 
ATOM      6  C   UNL     1       4.018   6.140  17.493  0.00  0.00    +0.000 A 
ENDROOT
BRANCH   1  12
ATOM      7  C   UNL     1       3.164   3.055  19.320  0.00  0.00    +0.000 A 
ATOM      8  C   UNL     1       2.185   2.223  19.898  0.00  0.00    +0.000 A 
ATOM      9  C   UNL     1       0.855   2.306  19.515  0.00  0.00    +0.000 A 
ATOM     10  C   UNL     1       0.480   3.221  18.544  0.00  0.00    +0.000 A 
ATOM     11  C   UNL     1       1.454   4.009  17.922  0.00  0.00    +0.000 A 
ATOM     12  C   UNL     1       2.828   3.948  18.255  0.00  0.00    +0.000 A 
BRANCH   7  14
ATOM     13  C   UNL     1       4.901   1.890  20.508  0.00  0.00    +0.000 C 
ATOM     14  O   UNL     1       4.477   3.016  19.745  0.00  0.00    +0.000 OA
ENDBRANCH   7  14
ENDBRANCH   1  12
BRANCH   6  15
ATOM     15  O   UNL     1       3.399   6.838  18.506  0.00  0.00    +0.000 OA
ATOM     16  C   UNL     1       2.483   7.861  18.123  0.00  0.00    +0.000 C 
ENDBRANCH   6  15
BRANCH   3  17
ATOM     17  C   UNL     1       6.375   3.879  14.666  0.00  0.00    +0.000 C 
BRANCH  17  18
ATOM     18  N   UNL     1       6.387   4.375  13.274  0.00  0.00    +0.000 NA
ATOM     19  C   UNL     1       7.688   4.943  12.903  0.00  0.00    +0.000 C 
ATOM     20  C   UNL     1       6.054   3.283  12.358  0.00  0.00    +0.000 C 
ENDBRANCH  17  18
ENDBRANCH   3  17
TORSDOF 5
ENDMDL
MODEL 6
REMARK VINA RESULT:      -6.6      3.131      6.508
REMARK  Name = 
REMARK  9 active torsions:
REMARK  status: ('A' for Active; 'I' for Inactive)
REMARK    1  A    between atoms: C_1  and  O_2
REMARK    2  A    between atoms: O_2  and  C_3
REMARK    3  A    between atoms: C_8  and  C_9
REMARK    4  A    between atoms: C_11  and  C_12
REMARK    5  A    between atoms: C_12  and  N_13
REMARK    6  A    between atoms: N_13  and  C_14
REMARK    7  A    between atoms: N_13  and  C_15
REMARK    8  A    between atoms: C_18  and  O_19
REMARK    9  A    between atoms: O_19  and  C_20
REMARK                            x       y       z     vdW  Elec       q    Type
REMARK                         _______ _______ _______ _____ _____    ______ ____
ROOT
ATOM      1  C   UNL     1       4.100   6.243  17.906  0.00  0.00    +0.000 A 
ATOM      2  C   UNL     1       3.481   7.453  17.509  0.00  0.00    +0.000 A 
ATOM      3  C   UNL     1       2.487   8.100  18.262  0.00  0.00    +0.000 A 
ATOM      4  C   UNL     1       2.003   7.479  19.407  0.00  0.00    +0.000 A 
ATOM      5  C   UNL     1       2.581   6.290  19.845  0.00  0.00    +0.000 A 
ATOM      6  C   UNL     1       3.636   5.686  19.132  0.00  0.00    +0.000 A 
ENDROOT
BRANCH   1  12
ATOM      7  C   UNL     1       6.511   5.836  16.995  0.00  0.00    +0.000 A 
ATOM      8  C   UNL     1       7.342   5.338  15.971  0.00  0.00    +0.000 A 
ATOM      9  C   UNL     1       6.836   4.526  14.967  0.00  0.00    +0.000 A 
ATOM     10  C   UNL     1       5.489   4.199  14.968  0.00  0.00    +0.000 A 
ATOM     11  C   UNL     1       4.646   4.737  15.945  0.00  0.00    +0.000 A 
ATOM     12  C   UNL     1       5.102   5.591  16.978  0.00  0.00    +0.000 A 
BRANCH   7  14
ATOM     13  C   UNL     1       7.764   5.923  19.046  0.00  0.00    +0.000 C 
ATOM     14  O   UNL     1       7.026   6.592  18.028  0.00  0.00    +0.000 OA
ENDBRANCH   7  14
ENDBRANCH   1  12
BRANCH   6  15
ATOM     15  O   UNL     1       4.280   4.575  19.629  0.00  0.00    +0.000 OA
ATOM     16  C   UNL     1       3.486   3.414  19.861  0.00  0.00    +0.000 C 
ENDBRANCH   6  15
BRANCH   3  17
ATOM     17  C   UNL     1       1.988   9.466  17.845  0.00  0.00    +0.000 C 
BRANCH  17  18
ATOM     18  N   UNL     1       0.968  10.020  18.759  0.00  0.00    +0.000 NA
ATOM     19  C   UNL     1       1.306  11.378  19.203  0.00  0.00    +0.000 C 
ATOM     20  C   UNL     1      -0.335  10.037  18.092  0.00  0.00    +0.000 C 
ENDBRANCH  17  18
ENDBRANCH   3  17
TORSDOF 5
ENDMDL
MODEL 7
REMARK VINA RESULT:      -6.4      2.639      6.321
REMARK  Name = 
REMARK  9 active torsions:
REMARK  status: ('A' for Active; 'I' for Inactive)
REMARK    1  A    between atoms: C_1  and  O_2
REMARK    2  A    between atoms: O_2  and  C_3
REMARK    3  A    between atoms: C_8  and  C_9
REMARK    4  A    between atoms: C_11  and  C_12
REMARK    5  A    between atoms: C_12  and  N_13
REMARK    6  A    between atoms: N_13  and  C_14
REMARK    7  A    between atoms: N_13  and  C_15
REMARK    8  A    between atoms: C_18  and  O_19
REMARK    9  A    between atoms: O_19  and  C_20
REMARK                            x       y       z     vdW  Elec       q    Type
REMARK                         _______ _______ _______ _____ _____    ______ ____
ROOT
ATOM      1  C   UNL     1       3.976   4.173  19.069  0.00  0.00    +0.000 A 
ATOM      2  C   UNL     1       3.040   5.215  19.271  0.00  0.00    +0.000 A 
ATOM      3  C   UNL     1       2.039   5.179  20.257  0.00  0.00    +0.000 A 
ATOM      4  C   UNL     1       1.883   4.023  21.011  0.00  0.00    +0.000 A 
ATOM      5  C   UNL     1       2.781   2.969  20.855  0.00  0.00    +0.000 A 
ATOM      6  C   UNL     1       3.835   3.042  19.923  0.00  0.00    +0.000 A 
ENDROOT
BRANCH   1  12
ATOM      7  C   UNL     1       6.314   4.724  18.050  0.00  0.00    +0.000 A 
ATOM      8  C   UNL     1       7.098   4.981  16.908  0.00  0.00    +0.000 A 
ATOM      9  C   UNL     1       6.613   4.731  15.633  0.00  0.00    +0.000 A 
ATOM     10  C   UNL     1       5.334   4.220  15.478  0.00  0.00    +0.000 A 
ATOM     11  C   UNL     1       4.527   4.019  16.602  0.00  0.00    +0.000 A 
ATOM     12  C   UNL     1       4.960   4.281  17.924  0.00  0.00    +0.000 A 
BRANCH   7  14
ATOM     13  C   UNL     1       7.929   5.793  19.475  0.00  0.00    +0.000 C 
ATOM     14  O   UNL     1       6.819   4.915  19.321  0.00  0.00    +0.000 OA
ENDBRANCH   7  14
ENDBRANCH   1  12
BRANCH   6  15
ATOM     15  O   UNL     1       4.786   2.049  19.854  0.00  0.00    +0.000 OA
ATOM     16  C   UNL     1       5.093   1.359  21.064  0.00  0.00    +0.000 C 
ENDBRANCH   6  15
BRANCH   3  17
ATOM     17  C   UNL     1       1.179   6.398  20.509  0.00  0.00    +0.000 C 
BRANCH  17  18
ATOM     18  N   UNL     1       1.936   7.667  20.467  0.00  0.00    +0.000 NA
ATOM     19  C   UNL     1       1.841   8.321  19.157  0.00  0.00    +0.000 C 
ATOM     20  C   UNL     1       1.435   8.573  21.501  0.00  0.00    +0.000 C 
ENDBRANCH  17  18
ENDBRANCH   3  17
TORSDOF 5
ENDMDL
MODEL 8
REMARK VINA RESULT:      -6.3      3.284      5.521
REMARK  Name = 
REMARK  9 active torsions:
REMARK  status: ('A' for Active; 'I' for Inactive)
REMARK    1  A    between atoms: C_1  and  O_2
REMARK    2  A    between atoms: O_2  and  C_3
REMARK    3  A    between atoms: C_8  and  C_9
REMARK    4  A    between atoms: C_11  and  C_12
REMARK    5  A    between atoms: C_12  and  N_13
REMARK    6  A    between atoms: N_13  and  C_14
REMARK    7  A    between atoms: N_13  and  C_15
REMARK    8  A    between atoms: C_18  and  O_19
REMARK    9  A    between atoms: O_19  and  C_20
REMARK                            x       y       z     vdW  Elec       q    Type
REMARK                         _______ _______ _______ _____ _____    ______ ____
ROOT
ATOM      1  C   UNL     1       2.885   5.674  18.685  0.00  0.00    +0.000 A 
ATOM      2  C   UNL     1       2.073   6.831  18.622  0.00  0.00    +0.000 A 
ATOM      3  C   UNL     1       2.424   7.988  17.905  0.00  0.00    +0.000 A 
ATOM      4  C   UNL     1       3.678   8.052  17.309  0.00  0.00    +0.000 A 
ATOM      5  C   UNL     1       4.514   6.938  17.337  0.00  0.00    +0.000 A 
ATOM      6  C   UNL     1       4.123   5.750  17.986  0.00  0.00    +0.000 A 
ENDROOT
BRANCH   1  12
ATOM      7  C   UNL     1       1.807   3.329  19.070  0.00  0.00    +0.000 A 
ATOM      8  C   UNL     1       1.255   2.391  19.965  0.00  0.00    +0.000 A 
ATOM      9  C   UNL     1       1.391   2.543  21.337  0.00  0.00    +0.000 A 
ATOM     10  C   UNL     1       2.078   3.637  21.838  0.00  0.00    +0.000 A 
ATOM     11  C   UNL     1       2.576   4.604  20.960  0.00  0.00    +0.000 A 
ATOM     12  C   UNL     1       2.445   4.514  19.553  0.00  0.00    +0.000 A 
BRANCH   7  14
ATOM     13  C   UNL     1       2.656   2.259  17.091  0.00  0.00    +0.000 C 
ATOM     14  O   UNL     1       1.726   3.146  17.704  0.00  0.00    +0.000 OA
ENDBRANCH   7  14
ENDBRANCH   1  12
BRANCH   6  15
ATOM     15  O   UNL     1       4.902   4.616  17.913  0.00  0.00    +0.000 OA
ATOM     16  C   UNL     1       5.876   4.565  16.872  0.00  0.00    +0.000 C 
ENDBRANCH   6  15
BRANCH   3  17
ATOM     17  C   UNL     1       1.433   9.122  17.761  0.00  0.00    +0.000 C 
BRANCH  17  18
ATOM     18  N   UNL     1       1.406  10.027  18.929  0.00  0.00    +0.000 NA
ATOM     19  C   UNL     1       1.729  11.410  18.561  0.00  0.00    +0.000 C 
ATOM     20  C   UNL     1       0.083   9.986  19.554  0.00  0.00    +0.000 C 
ENDBRANCH  17  18
ENDBRANCH   3  17
TORSDOF 5
ENDMDL
MODEL 9
REMARK VINA RESULT:      -6.3      2.570      4.248
REMARK  Name = 
REMARK  9 active torsions:
REMARK  status: ('A' for Active; 'I' for Inactive)
REMARK    1  A    between atoms: C_1  and  O_2
REMARK    2  A    between atoms: O_2  and  C_3
REMARK    3  A    between atoms: C_8  and  C_9
REMARK    4  A    between atoms: C_11  and  C_12
REMARK    5  A    between atoms: C_12  and  N_13
REMARK    6  A    between atoms: N_13  and  C_14
REMARK    7  A    between atoms: N_13  and  C_15
REMARK    8  A    between atoms: C_18  and  O_19
REMARK    9  A    between atoms: O_19  and  C_20
REMARK                            x       y       z     vdW  Elec       q    Type
REMARK                         _______ _______ _______ _____ _____    ______ ____
ROOT
ATOM      1  C   UNL     1       3.220   5.872  17.737  0.00  0.00    +0.000 A 
ATOM      2  C   UNL     1       4.510   6.077  17.190  0.00  0.00    +0.000 A 
ATOM      3  C   UNL     1       5.225   5.088  16.494  0.00  0.00    +0.000 A 
ATOM      4  C   UNL     1       4.695   3.805  16.419  0.00  0.00    +0.000 A 
ATOM      5  C   UNL     1       3.427   3.551  16.936  0.00  0.00    +0.000 A 
ATOM      6  C   UNL     1       2.677   4.567  17.561  0.00  0.00    +0.000 A 
ENDROOT
BRANCH   1  12
ATOM      7  C   UNL     1       2.301   6.923  19.941  0.00  0.00    +0.000 A 
ATOM      8  C   UNL     1       1.524   7.919  20.565  0.00  0.00    +0.000 A 
ATOM      9  C   UNL     1       1.075   9.027  19.861  0.00  0.00    +0.000 A 
ATOM     10  C   UNL     1       1.395   9.157  18.519  0.00  0.00    +0.000 A 
ATOM     11  C   UNL     1       2.115   8.146  17.876  0.00  0.00    +0.000 A 
ATOM     12  C   UNL     1       2.576   6.982  18.538  0.00  0.00    +0.000 A 
BRANCH   7  14
ATOM     13  C   UNL     1       1.873   4.906  21.178  0.00  0.00    +0.000 C 
ATOM     14  O   UNL     1       2.800   5.853  20.656  0.00  0.00    +0.000 OA
ENDBRANCH   7  14
ENDBRANCH   1  12
BRANCH   6  15
ATOM     15  O   UNL     1       1.380   4.340  17.967  0.00  0.00    +0.000 OA
ATOM     16  C   UNL     1       1.063   3.026  18.420  0.00  0.00    +0.000 C 
ENDBRANCH   6  15
BRANCH   3  17
ATOM     17  C   UNL     1       6.528   5.435  15.809  0.00  0.00    +0.000 C 
BRANCH  17  18
ATOM     18  N   UNL     1       7.634   5.694  16.754  0.00  0.00    +0.000 NA
ATOM     19  C   UNL     1       7.509   7.005  17.402  0.00  0.00    +0.000 C 
ATOM     20  C   UNL     1       7.664   4.647  17.777  0.00  0.00    +0.000 C 
ENDBRANCH  17  18
ENDBRANCH   3  17
TORSDOF 5
ENDMDL
