MODEL 1
REMARK VINA RESULT:      -7.2      0.000      0.000
REMARK  Name = 
REMARK  3 active torsions:
REMARK  status: ('A' for Active; 'I' for Inactive)
REMARK    1  A    between atoms: C_2  and  C_9
REMARK    2  A    between atoms: C_12  and  N_13
REMARK    3  A    between atoms: C_14  and  C_16
REMARK                            x       y       z     vdW  Elec       q    Type
REMARK                         _______ _______ _______ _____ _____    ______ ____
ROOT
ATOM      1  C   UNL     1       1.441   8.360  19.970  0.00  0.00    +0.000 A 
ATOM      2  C   UNL     1       2.006   7.139  20.346  0.00  0.00    +0.000 A 
ATOM      3  C   UNL     1       2.810   6.429  19.447  0.00  0.00    +0.000 A 
ATOM      4  C   UNL     1       3.080   6.927  18.171  0.00  0.00    +0.000 A 
ATOM      5  C   UNL     1       2.570   8.182  17.820  0.00  0.00    +0.000 A 
ATOM      6  C   UNL     1       1.750   8.888  18.708  0.00  0.00    +0.000 A 
ENDROOT
BRANCH   1   8
ATOM      7  O   UNL     1      -0.317   8.522  21.499  0.00  0.00    +0.000 OA
ATOM      8  C   UNL     1       0.536   9.140  20.871  0.00  0.00    +0.000 C 
ATOM      9  N   UNL     1       0.758  10.499  20.901  0.00  0.00    +0.000 N 
ATOM     10  C   UNL     1      -0.004  11.349  21.651  0.00  0.00    +0.000 A 
ATOM     11  N   UNL     1      -0.920  11.087  22.546  0.00  0.00    +0.000 NA
ATOM     12  C   UNL     1      -1.457  12.270  23.010  0.00  0.00    +0.000 A 
ATOM     13  C   UNL     1      -0.952  13.418  22.437  0.00  0.00    +0.000 A 
ATOM     14  S   UNL     1       0.296  13.003  21.333  0.00  0.00    +0.000 S 
ATOM     15  H   UNL     1       1.478  10.937  20.352  0.00  0.00    +0.000 HD
ENDBRANCH   1   8
BRANCH   4  16
ATOM     16  N   UNL     1       3.842   6.225  17.219  0.00  0.00    +0.000 N 
ATOM     17  C   UNL     1       5.177   6.441  16.911  0.00  0.00    +0.000 C 
ATOM     18  O   UNL     1       5.899   7.278  17.442  0.00  0.00    +0.000 OA
ATOM     19  H   UNL     1       3.417   5.421  16.770  0.00  0.00    +0.000 HD
BRANCH  17  20
ATOM     20  C   UNL     1       5.695   5.538  15.898  0.00  0.00    +0.000 A 
ATOM     21  C   UNL     1       5.225   4.307  15.479  0.00  0.00    +0.000 A 
ATOM     22  C   UNL     1       6.105   3.857  14.468  0.00  0.00    +0.000 A 
ATOM     23  C   UNL     1       7.058   4.837  14.330  0.00  0.00    +0.000 A 
ATOM     24  O   UNL     1       6.821   5.865  15.189  0.00  0.00    +0.000 OA
ENDBRANCH  17  20
ENDBRANCH   4  16
TORSDOF 3
ENDMDL
MODEL 2
REMARK VINA RESULT:      -7.1      0.742      1.266
REMARK  Name = 
REMARK  3 active torsions:
REMARK  status: ('A' for Active; 'I' for Inactive)
REMARK    1  A    between atoms: C_2  and  C_9
REMARK    2  A    between atoms: C_12  and  N_13
REMARK    3  A    between atoms: C_14  and  C_16
REMARK                            x       y       z     vdW  Elec       q    Type
REMARK                         _______ _______ _______ _____ _____    ______ ____
ROOT
ATOM      1  C   UNL     1       1.487   8.547  19.991  0.00  0.00    +0.000 A 
ATOM      2  C   UNL     1       1.690   9.053  18.704  0.00  0.00    +0.000 A 
ATOM      3  C   UNL     1       2.432   8.323  17.770  0.00  0.00    +0.000 A 
ATOM      4  C   UNL     1       2.967   7.074  18.090  0.00  0.00    +0.000 A 
ATOM      5  C   UNL     1       2.705   6.537  19.356  0.00  0.00    +0.000 A 
ATOM      6  C   UNL     1       1.980   7.272  20.301  0.00  0.00    +0.000 A 
ENDROOT
BRANCH   1   8
ATOM      7  O   UNL     1       0.848   8.922  22.207  0.00  0.00    +0.000 OA
ATOM      8  C   UNL     1       0.744   9.305  21.046  0.00  0.00    +0.000 C 
ATOM      9  N   UNL     1       0.003  10.375  20.596  0.00  0.00    +0.000 N 
ATOM     10  C   UNL     1      -0.753  11.146  21.432  0.00  0.00    +0.000 A 
ATOM     11  N   UNL     1      -0.819  11.152  22.738  0.00  0.00    +0.000 NA
ATOM     12  C   UNL     1      -1.762  12.073  23.143  0.00  0.00    +0.000 A 
ATOM     13  C   UNL     1      -2.418  12.739  22.129  0.00  0.00    +0.000 A 
ATOM     14  S   UNL     1      -1.775  12.249  20.615  0.00  0.00    +0.000 S 
ATOM     15  H   UNL     1      -0.038  10.628  19.623  0.00  0.00    +0.000 HD
ENDBRANCH   1   8
BRANCH   4  16
ATOM     16  N   UNL     1       3.758   6.326  17.199  0.00  0.00    +0.000 N 
ATOM     17  C   UNL     1       5.112   6.501  16.953  0.00  0.00    +0.000 C 
ATOM     18  O   UNL     1       5.827   7.336  17.496  0.00  0.00    +0.000 OA
ATOM     19  H   UNL     1       3.336   5.519  16.752  0.00  0.00    +0.000 HD
BRANCH  17  20
ATOM     20  C   UNL     1       5.657   5.556  15.994  0.00  0.00    +0.000 A 
ATOM     21  C   UNL     1       5.269   4.263  15.700  0.00  0.00    +0.000 A 
ATOM     22  C   UNL     1       6.139   3.796  14.688  0.00  0.00    +0.000 A 
ATOM     23  C   UNL     1       7.006   4.829  14.426  0.00  0.00    +0.000 A 
ATOM     24  O   UNL     1       6.724   5.906  15.208  0.00  0.00    +0.000 OA
ENDBRANCH  17  20
ENDBRANCH   4  16
TORSDOF 3
ENDMDL
MODEL 3
REMARK VINA RESULT:      -7.1      6.031      7.916
REMARK  Name = 
REMARK  3 active torsions:
REMARK  status: ('A' for Active; 'I' for Inactive)
REMARK    1  A    between atoms: C_2  and  C_9
REMARK    2  A    between atoms: C_12  and  N_13
REMARK    3  A    between atoms: C_14  and  C_16
REMARK                            x       y       z     vdW  Elec       q    Type
REMARK                         _______ _______ _______ _____ _____    ______ ____
ROOT
ATOM      1  C   UNL     1       6.212   5.945  18.294  0.00  0.00    +0.000 A 
ATOM      2  C   UNL     1       5.776   6.934  17.410  0.00  0.00    +0.000 A 
ATOM      3  C   UNL     1       6.563   8.066  17.176  0.00  0.00    +0.000 A 
ATOM      4  C   UNL     1       7.801   8.226  17.800  0.00  0.00    +0.000 A 
ATOM      5  C   UNL     1       8.269   7.203  18.632  0.00  0.00    +0.000 A 
ATOM      6  C   UNL     1       7.477   6.076  18.885  0.00  0.00    +0.000 A 
ENDROOT
BRANCH   1   8
ATOM      7  O   UNL     1       5.977   3.744  19.043  0.00  0.00    +0.000 OA
ATOM      8  C   UNL     1       5.392   4.736  18.620  0.00  0.00    +0.000 C 
ATOM      9  N   UNL     1       4.037   4.864  18.406  0.00  0.00    +0.000 N 
ATOM     10  C   UNL     1       3.161   3.841  18.627  0.00  0.00    +0.000 A 
ATOM     11  N   UNL     1       3.356   2.675  19.187  0.00  0.00    +0.000 NA
ATOM     12  C   UNL     1       2.184   1.948  19.147  0.00  0.00    +0.000 A 
ATOM     13  C   UNL     1       1.118   2.571  18.532  0.00  0.00    +0.000 A 
ATOM     14  S   UNL     1       1.580   4.153  18.054  0.00  0.00    +0.000 S 
ATOM     15  H   UNL     1       3.629   5.712  18.052  0.00  0.00    +0.000 HD
ENDBRANCH   1   8
BRANCH   4  16
ATOM     16  N   UNL     1       8.604   9.369  17.632  0.00  0.00    +0.000 N 
ATOM     17  C   UNL     1       9.105  10.181  18.639  0.00  0.00    +0.000 C 
ATOM     18  O   UNL     1       8.929  10.007  19.840  0.00  0.00    +0.000 OA
ATOM     19  H   UNL     1       8.934   9.584  16.697  0.00  0.00    +0.000 HD
BRANCH  17  20
ATOM     20  C   UNL     1       9.924  11.277  18.151  0.00  0.00    +0.000 A 
ATOM     21  C   UNL     1      11.298  11.406  18.102  0.00  0.00    +0.000 A 
ATOM     22  C   UNL     1      11.569  12.673  17.535  0.00  0.00    +0.000 A 
ATOM     23  C   UNL     1      10.346  13.241  17.274  0.00  0.00    +0.000 A 
ATOM     24  O   UNL     1       9.337  12.404  17.640  0.00  0.00    +0.000 OA
ENDBRANCH  17  20
ENDBRANCH   4  16
TORSDOF 3
ENDMDL
MODEL 4
REMARK VINA RESULT:      -7.0      2.919      9.226
REMARK  Name = 
REMARK  3 active torsions:
REMARK  status: ('A' for Active; 'I' for Inactive)
REMARK    1  A    between atoms: C_2  and  C_9
REMARK    2  A    between atoms: C_12  and  N_13
REMARK    3  A    between atoms: C_14  and  C_16
REMARK                            x       y       z     vdW  Elec       q    Type
REMARK                         _______ _______ _______ _____ _____    ______ ____
ROOT
ATOM      1  C   UNL     1       2.287   7.410  18.795  0.00  0.00    +0.000 A 
ATOM      2  C   UNL     1       1.875   8.595  18.182  0.00  0.00    +0.000 A 
ATOM      3  C   UNL     1       1.158   9.552  18.908  0.00  0.00    +0.000 A 
ATOM      4  C   UNL     1       0.856   9.356  20.257  0.00  0.00    +0.000 A 
ATOM      5  C   UNL     1       1.328   8.201  20.889  0.00  0.00    +0.000 A 
ATOM      6  C   UNL     1       2.029   7.231  20.162  0.00  0.00    +0.000 A 
ENDROOT
BRANCH   1   8
ATOM      7  O   UNL     1       2.406   5.294  17.812  0.00  0.00    +0.000 OA
ATOM      8  C   UNL     1       3.015   6.331  18.056  0.00  0.00    +0.000 C 
ATOM      9  N   UNL     1       4.319   6.619  17.720  0.00  0.00    +0.000 N 
ATOM     10  C   UNL     1       5.122   5.726  17.071  0.00  0.00    +0.000 A 
ATOM     11  N   UNL     1       4.829   4.573  16.529  0.00  0.00    +0.000 NA
ATOM     12  C   UNL     1       5.978   3.998  16.027  0.00  0.00    +0.000 A 
ATOM     13  C   UNL     1       7.137   4.720  16.220  0.00  0.00    +0.000 A 
ATOM     14  S   UNL     1       6.761   6.208  16.989  0.00  0.00    +0.000 S 
ATOM     15  H   UNL     1       4.753   7.494  17.959  0.00  0.00    +0.000 HD
ENDBRANCH   1   8
BRANCH   4  16
ATOM     16  N   UNL     1       0.097  10.269  21.013  0.00  0.00    +0.000 N 
ATOM     17  C   UNL     1       0.501  11.525  21.436  0.00  0.00    +0.000 C 
ATOM     18  O   UNL     1       1.590  12.036  21.196  0.00  0.00    +0.000 OA
ATOM     19  H   UNL     1      -0.874  10.040  21.198  0.00  0.00    +0.000 HD
BRANCH  17  20
ATOM     20  C   UNL     1      -0.517  12.245  22.182  0.00  0.00    +0.000 A 
ATOM     21  C   UNL     1      -1.869  11.994  22.311  0.00  0.00    +0.000 A 
ATOM     22  C   UNL     1      -2.393  13.004  23.151  0.00  0.00    +0.000 A 
ATOM     23  C   UNL     1      -1.332  13.811  23.483  0.00  0.00    +0.000 A 
ATOM     24  O   UNL     1      -0.185  13.361  22.905  0.00  0.00    +0.000 OA
ENDBRANCH  17  20
ENDBRANCH   4  16
TORSDOF 3
ENDMDL
MODEL 5
REMARK VINA RESULT:      -7.0      2.828      9.184
REMARK  Name = 
REMARK  3 active torsions:
REMARK  status: ('A' for Active; 'I' for Inactive)
REMARK    1  A    between atoms: C_2  and  C_9
REMARK    2  A    between atoms: C_12  and  N_13
REMARK    3  A    between atoms: C_14  and  C_16
REMARK                            x       y       z     vdW  Elec       q    Type
REMARK                         _______ _______ _______ _____ _____    ______ ____
ROOT
ATOM      1  C   UNL     1       2.370   7.171  18.723  0.00  0.00    +0.000 A 
ATOM      2  C   UNL     1       2.093   7.042  20.086  0.00  0.00    +0.000 A 
ATOM      3  C   UNL     1       1.470   8.085  20.779  0.00  0.00    +0.000 A 
ATOM      4  C   UNL     1       1.096   9.262  20.127  0.00  0.00    +0.000 A 
ATOM      5  C   UNL     1       1.311   9.362  18.749  0.00  0.00    +0.000 A 
ATOM      6  C   UNL     1       1.952   8.329  18.054  0.00  0.00    +0.000 A 
ENDROOT
BRANCH   1   8
ATOM      7  O   UNL     1       2.466   5.073  17.698  0.00  0.00    +0.000 OA
ATOM      8  C   UNL     1       3.078   6.108  17.941  0.00  0.00    +0.000 C 
ATOM      9  N   UNL     1       4.369   6.408  17.568  0.00  0.00    +0.000 N 
ATOM     10  C   UNL     1       5.154   5.530  16.877  0.00  0.00    +0.000 A 
ATOM     11  N   UNL     1       4.848   4.386  16.324  0.00  0.00    +0.000 NA
ATOM     12  C   UNL     1       5.983   3.825  15.775  0.00  0.00    +0.000 A 
ATOM     13  C   UNL     1       7.144   4.549  15.942  0.00  0.00    +0.000 A 
ATOM     14  S   UNL     1       6.788   6.021  16.750  0.00  0.00    +0.000 S 
ATOM     15  H   UNL     1       4.807   7.281  17.808  0.00  0.00    +0.000 HD
ENDBRANCH   1   8
BRANCH   4  16
ATOM     16  N   UNL     1       0.510  10.355  20.793  0.00  0.00    +0.000 N 
ATOM     17  C   UNL     1      -0.303  10.297  21.914  0.00  0.00    +0.000 C 
ATOM     18  O   UNL     1      -0.622   9.270  22.504  0.00  0.00    +0.000 OA
ATOM     19  H   UNL     1       0.771  11.288  20.493  0.00  0.00    +0.000 HD
BRANCH  17  20
ATOM     20  C   UNL     1      -0.737  11.600  22.388  0.00  0.00    +0.000 A 
ATOM     21  C   UNL     1      -1.868  11.958  23.097  0.00  0.00    +0.000 A 
ATOM     22  C   UNL     1      -1.798  13.356  23.298  0.00  0.00    +0.000 A 
ATOM     23  C   UNL     1      -0.632  13.768  22.700  0.00  0.00    +0.000 A 
ATOM     24  O   UNL     1       0.025  12.713  22.146  0.00  0.00    +0.000 OA
ENDBRANCH  17  20
ENDBRANCH   4  16
TORSDOF 3
ENDMDL
MODEL 6
REMARK VINA RESULT:      -7.0      1.561      2.102
REMARK  Name = 
REMARK  3 active torsions:
REMARK  status: ('A' for Active; 'I' for Inactive)
REMARK    1  A    between atoms: C_2  and  C_9
REMARK    2  A    between atoms: C_12  and  N_13
REMARK    3  A    between atoms: C_14  and  C_16
REMARK                            x       y       z     vdW  Elec       q    Type
REMARK                         _______ _______ _______ _____ _____    ______ ____
ROOT
ATOM      1  C   UNL     1       2.597   6.891  19.255  0.00  0.00    +0.000 A 
ATOM      2  C   UNL     1       3.056   5.575  19.168  0.00  0.00    +0.000 A 
ATOM      3  C   UNL     1       3.825   5.168  18.073  0.00  0.00    +0.000 A 
ATOM      4  C   UNL     1       4.167   6.063  17.059  0.00  0.00    +0.000 A 
ATOM      5  C   UNL     1       3.766   7.398  17.180  0.00  0.00    +0.000 A 
ATOM      6  C   UNL     1       2.979   7.806  18.263  0.00  0.00    +0.000 A 
ENDROOT
BRANCH   1   8
ATOM      7  O   UNL     1       1.303   6.536  21.167  0.00  0.00    +0.000 OA
ATOM      8  C   UNL     1       1.731   7.371  20.377  0.00  0.00    +0.000 C 
ATOM      9  N   UNL     1       1.499   8.728  20.408  0.00  0.00    +0.000 N 
ATOM     10  C   UNL     1       0.706   9.314  21.352  0.00  0.00    +0.000 A 
ATOM     11  N   UNL     1       0.168   8.805  22.430  0.00  0.00    +0.000 NA
ATOM     12  C   UNL     1      -0.598   9.767  23.056  0.00  0.00    +0.000 A 
ATOM     13  C   UNL     1      -0.646  10.992  22.425  0.00  0.00    +0.000 A 
ATOM     14  S   UNL     1       0.365  10.961  21.039  0.00  0.00    +0.000 S 
ATOM     15  H   UNL     1       1.883   9.353  19.720  0.00  0.00    +0.000 HD
ENDBRANCH   1   8
BRANCH   4  16
ATOM     16  N   UNL     1       4.898   5.687  15.917  0.00  0.00    +0.000 N 
ATOM     17  C   UNL     1       6.176   5.151  15.896  0.00  0.00    +0.000 C 
ATOM     18  O   UNL     1       6.858   4.911  16.887  0.00  0.00    +0.000 OA
ATOM     19  H   UNL     1       4.425   5.717  15.019  0.00  0.00    +0.000 HD
BRANCH  17  20
ATOM     20  C   UNL     1       6.657   4.840  14.561  0.00  0.00    +0.000 A 
ATOM     21  C   UNL     1       6.211   3.901  13.651  0.00  0.00    +0.000 A 
ATOM     22  C   UNL     1       7.033   4.018  12.507  0.00  0.00    +0.000 A 
ATOM     23  C   UNL     1       7.932   5.019  12.787  0.00  0.00    +0.000 A 
ATOM     24  O   UNL     1       7.714   5.529  14.029  0.00  0.00    +0.000 OA
ENDBRANCH  17  20
ENDBRANCH   4  16
TORSDOF 3
ENDMDL
MODEL 7
REMARK VINA RESULT:      -6.8      6.090      8.070
REMARK  Name = 
REMARK  3 active torsions:
REMARK  status: ('A' for Active; 'I' for Inactive)
REMARK    1  A    between atoms: C_2  and  C_9
REMARK    2  A    between atoms: C_12  and  N_13
REMARK    3  A    between atoms: C_14  and  C_16
REMARK                            x       y       z     vdW  Elec       q    Type
REMARK                         _______ _______ _______ _____ _____    ______ ____
ROOT
ATOM      1  C   UNL     1       6.223   5.749  17.936  0.00  0.00    +0.000 A 
ATOM      2  C   UNL     1       6.213   6.917  17.171  0.00  0.00    +0.000 A 
ATOM      3  C   UNL     1       7.143   7.932  17.423  0.00  0.00    +0.000 A 
ATOM      4  C   UNL     1       8.108   7.794  18.423  0.00  0.00    +0.000 A 
ATOM      5  C   UNL     1       8.162   6.595  19.142  0.00  0.00    +0.000 A 
ATOM      6  C   UNL     1       7.221   5.585  18.907  0.00  0.00    +0.000 A 
ENDROOT
BRANCH   1   8
ATOM      7  O   UNL     1       5.392   3.882  16.804  0.00  0.00    +0.000 OA
ATOM      8  C   UNL     1       5.223   4.651  17.744  0.00  0.00    +0.000 C 
ATOM      9  N   UNL     1       4.196   4.619  18.661  0.00  0.00    +0.000 N 
ATOM     10  C   UNL     1       3.191   3.697  18.602  0.00  0.00    +0.000 A 
ATOM     11  N   UNL     1       3.064   2.641  17.842  0.00  0.00    +0.000 NA
ATOM     12  C   UNL     1       1.853   2.033  18.102  0.00  0.00    +0.000 A 
ATOM     13  C   UNL     1       1.066   2.658  19.047  0.00  0.00    +0.000 A 
ATOM     14  S   UNL     1       1.905   4.011  19.686  0.00  0.00    +0.000 S 
ATOM     15  H   UNL     1       4.122   5.290  19.406  0.00  0.00    +0.000 HD
ENDBRANCH   1   8
BRANCH   4  16
ATOM     16  N   UNL     1       9.032   8.807  18.742  0.00  0.00    +0.000 N 
ATOM     17  C   UNL     1       8.938  10.146  18.397  0.00  0.00    +0.000 C 
ATOM     18  O   UNL     1       8.015  10.651  17.767  0.00  0.00    +0.000 OA
ATOM     19  H   UNL     1       9.799   8.570  19.361  0.00  0.00    +0.000 HD
BRANCH  17  20
ATOM     20  C   UNL     1      10.039  10.954  18.893  0.00  0.00    +0.000 A 
ATOM     21  C   UNL     1      10.327  11.372  20.178  0.00  0.00    +0.000 A 
ATOM     22  C   UNL     1      11.514  12.136  20.102  0.00  0.00    +0.000 A 
ATOM     23  C   UNL     1      11.878  12.141  18.777  0.00  0.00    +0.000 A 
ATOM     24  O   UNL     1      10.994  11.425  18.031  0.00  0.00    +0.000 OA
ENDBRANCH  17  20
ENDBRANCH   4  16
TORSDOF 3
ENDMDL
MODEL 8
REMARK VINA RESULT:      -6.8      5.971      7.941
REMARK  Name = 
REMARK  3 active torsions:
REMARK  status: ('A' for Active; 'I' for Inactive)
REMARK    1  A    between atoms: C_2  and  C_9
REMARK    2  A    between atoms: C_12  and  N_13
REMARK    3  A    between atoms: C_14  and  C_16
REMARK                            x       y       z     vdW  Elec       q    Type
REMARK                         _______ _______ _______ _____ _____    ______ ____
ROOT
ATOM      1  C   UNL     1       6.238   5.981  18.017  0.00  0.00    +0.000 A 
ATOM      2  C   UNL     1       7.467   6.057  18.677  0.00  0.00    +0.000 A 
ATOM      3  C   UNL     1       8.250   7.211  18.574  0.00  0.00    +0.000 A 
ATOM      4  C   UNL     1       7.820   8.312  17.831  0.00  0.00    +0.000 A 
ATOM      5  C   UNL     1       6.559   8.261  17.227  0.00  0.00    +0.000 A 
ATOM      6  C   UNL     1       5.779   7.101  17.311  0.00  0.00    +0.000 A 
ENDROOT
BRANCH   1   8
ATOM      7  O   UNL     1       5.613   3.869  17.236  0.00  0.00    +0.000 OA
ATOM      8  C   UNL     1       5.380   4.755  18.052  0.00  0.00    +0.000 C 
ATOM      9  N   UNL     1       4.396   4.748  19.016  0.00  0.00    +0.000 N 
ATOM     10  C   UNL     1       3.514   3.715  19.155  0.00  0.00    +0.000 A 
ATOM     11  N   UNL     1       3.497   2.542  18.577  0.00  0.00    +0.000 NA
ATOM     12  C   UNL     1       2.383   1.844  18.993  0.00  0.00    +0.000 A 
ATOM     13  C   UNL     1       1.554   2.514  19.869  0.00  0.00    +0.000 A 
ATOM     14  S   UNL     1       2.236   4.043  20.244  0.00  0.00    +0.000 S 
ATOM     15  H   UNL     1       4.262   5.517  19.650  0.00  0.00    +0.000 HD
ENDBRANCH   1   8
BRANCH   4  16
ATOM     16  N   UNL     1       8.595   9.474  17.660  0.00  0.00    +0.000 N 
ATOM     17  C   UNL     1       9.113  10.274  18.668  0.00  0.00    +0.000 C 
ATOM     18  O   UNL     1       8.979  10.072  19.870  0.00  0.00    +0.000 OA
ATOM     19  H   UNL     1       8.891   9.713  16.720  0.00  0.00    +0.000 HD
BRANCH  17  20
ATOM     20  C   UNL     1       9.896  11.395  18.177  0.00  0.00    +0.000 A 
ATOM     21  C   UNL     1      11.266  11.557  18.101  0.00  0.00    +0.000 A 
ATOM     22  C   UNL     1      11.495  12.837  17.545  0.00  0.00    +0.000 A 
ATOM     23  C   UNL     1      10.253  13.379  17.316  0.00  0.00    +0.000 A 
ATOM     24  O   UNL     1       9.273  12.514  17.692  0.00  0.00    +0.000 OA
ENDBRANCH  17  20
ENDBRANCH   4  16
TORSDOF 3
ENDMDL
MODEL 9
REMARK VINA RESULT:      -6.8      2.978      9.567
REMARK  Name = 
REMARK  3 active torsions:
REMARK  status: ('A' for Active; 'I' for Inactive)
REMARK    1  A    between atoms: C_2  and  C_9
REMARK    2  A    between atoms: C_12  and  N_13
REMARK    3  A    between atoms: C_14  and  C_16
REMARK                            x       y       z     vdW  Elec       q    Type
REMARK                         _______ _______ _______ _____ _____    ______ ____
ROOT
ATOM      1  C   UNL     1       1.822   8.307  19.154  0.00  0.00    +0.000 A 
ATOM      2  C   UNL     1       1.379   9.488  18.553  0.00  0.00    +0.000 A 
ATOM      3  C   UNL     1       0.561  10.374  19.261  0.00  0.00    +0.000 A 
ATOM      4  C   UNL     1       0.187  10.113  20.580  0.00  0.00    +0.000 A 
ATOM      5  C   UNL     1       0.688   8.966  21.205  0.00  0.00    +0.000 A 
ATOM      6  C   UNL     1       1.490   8.065  20.494  0.00  0.00    +0.000 A 
ENDROOT
BRANCH   1   8
ATOM      7  O   UNL     1       3.388   7.701  17.529  0.00  0.00    +0.000 OA
ATOM      8  C   UNL     1       2.659   7.299  18.430  0.00  0.00    +0.000 C 
ATOM      9  N   UNL     1       2.521   5.997  18.858  0.00  0.00    +0.000 N 
ATOM     10  C   UNL     1       3.194   4.961  18.278  0.00  0.00    +0.000 A 
ATOM     11  N   UNL     1       4.147   4.974  17.384  0.00  0.00    +0.000 NA
ATOM     12  C   UNL     1       4.489   3.677  17.060  0.00  0.00    +0.000 A 
ATOM     13  C   UNL     1       3.766   2.694  17.703  0.00  0.00    +0.000 A 
ATOM     14  S   UNL     1       2.672   3.420  18.808  0.00  0.00    +0.000 S 
ATOM     15  H   UNL     1       1.897   5.742  19.605  0.00  0.00    +0.000 HD
ENDBRANCH   1   8
BRANCH   4  16
ATOM     16  N   UNL     1      -0.672  10.953  21.315  0.00  0.00    +0.000 N 
ATOM     17  C   UNL     1      -0.787  11.009  22.695  0.00  0.00    +0.000 C 
ATOM     18  O   UNL     1      -0.136  10.336  23.487  0.00  0.00    +0.000 OA
ATOM     19  H   UNL     1      -1.199  11.654  20.805  0.00  0.00    +0.000 HD
BRANCH  17  20
ATOM     20  C   UNL     1      -1.745  11.997  23.160  0.00  0.00    +0.000 A 
ATOM     21  C   UNL     1      -1.619  13.366  23.292  0.00  0.00    +0.000 A 
ATOM     22  C   UNL     1      -2.853  13.844  23.790  0.00  0.00    +0.000 A 
ATOM     23  C   UNL     1      -3.658  12.739  23.934  0.00  0.00    +0.000 A 
ATOM     24  O   UNL     1      -3.000  11.611  23.552  0.00  0.00    +0.000 OA
ENDBRANCH  17  20
ENDBRANCH   4  16
TORSDOF 3
ENDMDL
