MODEL 1
REMARK VINA RESULT:      -7.4      0.000      0.000
REMARK  Name = 
REMARK  5 active torsions:
REMARK  status: ('A' for Active; 'I' for Inactive)
REMARK    1  A    between atoms: C_1  and  N_2
REMARK    2  A    between atoms: C_5  and  C_6
REMARK    3  A    between atoms: C_8  and  N_9
REMARK    4  A    between atoms: C_15  and  C_17
REMARK    5  A    between atoms: C_23  and  N_24
REMARK                            x       y       z     vdW  Elec       q    Type
REMARK                         _______ _______ _______ _____ _____    ______ ____
ROOT
ATOM      1  N   UNL     1      -3.185  11.987  19.510  0.00  0.00    +0.000 N 
ATOM      2  C   UNL     1      -4.272  11.358  18.805  0.00  0.00    +0.000 C 
ATOM      3  C   UNL     1      -3.261  11.115  17.671  0.00  0.00    +0.000 C 
ATOM      4  C   UNL     1      -2.514   9.780  17.798  0.00  0.00    +0.000 C 
ATOM      5  C   UNL     1      -1.052   9.995  17.415  0.00  0.00    +0.000 C 
ATOM      6  N   UNL     1      -0.461  10.971  18.340  0.00  0.00    +0.000 N 
ATOM      7  C   UNL     1       0.613  10.781  19.216  0.00  0.00    +0.000 C 
ATOM      8  O   UNL     1       0.943  11.624  20.051  0.00  0.00    +0.000 OA
ATOM      9  C   UNL     1      -0.995  12.325  18.210  0.00  0.00    +0.000 C 
ATOM     10  C   UNL     1      -2.518  12.338  18.282  0.00  0.00    +0.000 C 
ENDROOT
BRANCH   1  18
ATOM     11  C   UNL     1      -7.010  12.687  22.470  0.00  0.00    +0.000 C 
ATOM     12  N   UNL     1      -5.988  13.582  22.958  0.00  0.00    +0.000 N 
ATOM     13  C   UNL     1      -4.727  13.400  22.409  0.00  0.00    +0.000 A 
ATOM     14  N   UNL     1      -3.710  13.757  23.201  0.00  0.00    +0.000 NA
ATOM     15  C   UNL     1      -2.468  13.568  22.724  0.00  0.00    +0.000 A 
ATOM     16  C   UNL     1      -1.326  13.958  23.612  0.00  0.00    +0.000 C 
ATOM     17  C   UNL     1      -2.231  13.035  21.475  0.00  0.00    +0.000 A 
ATOM     18  C   UNL     1      -3.326  12.671  20.729  0.00  0.00    +0.000 A 
ATOM     19  N   UNL     1      -4.575  12.861  21.195  0.00  0.00    +0.000 NA
ATOM     20  H   UNL     1      -5.853  13.602  23.963  0.00  0.00    +0.000 HD
ENDBRANCH   1  18
BRANCH   7  21
ATOM     21  C   UNL     1       1.393   9.511  19.198  0.00  0.00    +0.000 A 
ATOM     22  C   UNL     1       1.970   9.116  17.985  0.00  0.00    +0.000 A 
ATOM     23  C   UNL     1       2.660   7.914  17.889  0.00  0.00    +0.000 A 
ATOM     24  F   UNL     1       3.269   7.596  16.739  0.00  0.00    +0.000 F 
ATOM     25  C   UNL     1       2.719   7.034  18.958  0.00  0.00    +0.000 A 
ATOM     26  C   UNL     1       2.054   7.354  20.141  0.00  0.00    +0.000 A 
ATOM     27  C   UNL     1       1.400   8.599  20.273  0.00  0.00    +0.000 A 
BRANCH  27  28
ATOM     28  N   UNL     1       0.723   8.852  21.496  0.00  0.00    +0.000 N 
ATOM     29  N   UNL     1      -0.596   8.529  21.649  0.00  0.00    +0.000 NA
ATOM     30  C   UNL     1      -0.891   9.122  22.807  0.00  0.00    +0.000 A 
ATOM     31  C   UNL     1       0.278   9.606  23.400  0.00  0.00    +0.000 A 
ATOM     32  N   UNL     1       1.325   9.355  22.608  0.00  0.00    +0.000 NA
ENDBRANCH  27  28
ENDBRANCH   7  21
TORSDOF 3
ENDMDL
MODEL 2
REMARK VINA RESULT:      -7.3      3.551      6.939
REMARK  Name = 
REMARK  5 active torsions:
REMARK  status: ('A' for Active; 'I' for Inactive)
REMARK    1  A    between atoms: C_1  and  N_2
REMARK    2  A    between atoms: C_5  and  C_6
REMARK    3  A    between atoms: C_8  and  N_9
REMARK    4  A    between atoms: C_15  and  C_17
REMARK    5  A    between atoms: C_23  and  N_24
REMARK                            x       y       z     vdW  Elec       q    Type
REMARK                         _______ _______ _______ _____ _____    ______ ____
ROOT
ATOM      1  N   UNL     1      -1.333  10.948  18.538  0.00  0.00    +0.000 N 
ATOM      2  C   UNL     1      -0.323   9.946  18.762  0.00  0.00    +0.000 C 
ATOM      3  C   UNL     1       0.366  10.987  19.662  0.00  0.00    +0.000 C 
ATOM      4  C   UNL     1      -0.088  10.920  21.127  0.00  0.00    +0.000 C 
ATOM      5  C   UNL     1      -0.237  12.341  21.663  0.00  0.00    +0.000 C 
ATOM      6  N   UNL     1      -1.259  13.039  20.872  0.00  0.00    +0.000 N 
ATOM      7  C   UNL     1      -2.468  13.582  21.320  0.00  0.00    +0.000 C 
ATOM      8  O   UNL     1      -3.320  14.025  20.549  0.00  0.00    +0.000 OA
ATOM      9  C   UNL     1      -0.877  13.292  19.484  0.00  0.00    +0.000 C 
ATOM     10  C   UNL     1      -0.405  12.021  18.789  0.00  0.00    +0.000 C 
ENDROOT
BRANCH   1  18
ATOM     11  C   UNL     1      -5.921  12.631  18.513  0.00  0.00    +0.000 C 
ATOM     12  N   UNL     1      -5.866  11.671  17.436  0.00  0.00    +0.000 N 
ATOM     13  C   UNL     1      -4.596  11.220  17.105  0.00  0.00    +0.000 A 
ATOM     14  N   UNL     1      -4.447  10.839  15.832  0.00  0.00    +0.000 NA
ATOM     15  C   UNL     1      -3.225  10.425  15.457  0.00  0.00    +0.000 A 
ATOM     16  C   UNL     1      -3.050  10.006  14.029  0.00  0.00    +0.000 C 
ATOM     17  C   UNL     1      -2.160  10.384  16.331  0.00  0.00    +0.000 A 
ATOM     18  C   UNL     1      -2.386  10.814  17.617  0.00  0.00    +0.000 A 
ATOM     19  N   UNL     1      -3.608  11.225  18.005  0.00  0.00    +0.000 NA
ATOM     20  H   UNL     1      -6.297  11.954  16.562  0.00  0.00    +0.000 HD
ENDBRANCH   1  18
BRANCH   7  21
ATOM     21  C   UNL     1      -2.793  13.614  22.773  0.00  0.00    +0.000 A 
ATOM     22  C   UNL     1      -3.790  12.748  23.240  0.00  0.00    +0.000 A 
ATOM     23  C   UNL     1      -4.180  12.772  24.574  0.00  0.00    +0.000 A 
ATOM     24  F   UNL     1      -5.078  11.881  25.010  0.00  0.00    +0.000 F 
ATOM     25  C   UNL     1      -3.662  13.707  25.455  0.00  0.00    +0.000 A 
ATOM     26  C   UNL     1      -2.752  14.654  24.987  0.00  0.00    +0.000 A 
ATOM     27  C   UNL     1      -2.302  14.605  23.648  0.00  0.00    +0.000 A 
BRANCH  27  28
ATOM     28  N   UNL     1      -1.393  15.613  23.231  0.00  0.00    +0.000 N 
ATOM     29  N   UNL     1      -1.844  16.799  22.722  0.00  0.00    +0.000 NA
ATOM     30  C   UNL     1      -0.719  17.341  22.253  0.00  0.00    +0.000 A 
ATOM     31  C   UNL     1       0.378  16.577  22.658  0.00  0.00    +0.000 A 
ATOM     32  N   UNL     1      -0.041  15.519  23.360  0.00  0.00    +0.000 NA
ENDBRANCH  27  28
ENDBRANCH   7  21
TORSDOF 3
ENDMDL
MODEL 3
REMARK VINA RESULT:      -7.2      1.264      1.873
REMARK  Name = 
REMARK  5 active torsions:
REMARK  status: ('A' for Active; 'I' for Inactive)
REMARK    1  A    between atoms: C_1  and  N_2
REMARK    2  A    between atoms: C_5  and  C_6
REMARK    3  A    between atoms: C_8  and  N_9
REMARK    4  A    between atoms: C_15  and  C_17
REMARK    5  A    between atoms: C_23  and  N_24
REMARK                            x       y       z     vdW  Elec       q    Type
REMARK                         _______ _______ _______ _____ _____    ______ ____
ROOT
ATOM      1  N   UNL     1      -2.725  12.340  19.831  0.00  0.00    +0.000 N 
ATOM      2  C   UNL     1      -3.911  11.794  19.223  0.00  0.00    +0.000 C 
ATOM      3  C   UNL     1      -3.014  11.448  18.022  0.00  0.00    +0.000 C 
ATOM      4  C   UNL     1      -2.373  10.057  18.122  0.00  0.00    +0.000 C 
ATOM      5  C   UNL     1      -0.932  10.142  17.626  0.00  0.00    +0.000 C 
ATOM      6  N   UNL     1      -0.192  11.079  18.482  0.00  0.00    +0.000 N 
ATOM      7  C   UNL     1       0.926  10.812  19.279  0.00  0.00    +0.000 C 
ATOM      8  O   UNL     1       1.388  11.637  20.068  0.00  0.00    +0.000 OA
ATOM      9  C   UNL     1      -0.621  12.471  18.362  0.00  0.00    +0.000 C 
ATOM     10  C   UNL     1      -2.127  12.614  18.549  0.00  0.00    +0.000 C 
ENDROOT
BRANCH   1  18
ATOM     11  C   UNL     1      -1.715  16.999  20.904  0.00  0.00    +0.000 C 
ATOM     12  N   UNL     1      -1.776  16.324  22.178  0.00  0.00    +0.000 N 
ATOM     13  C   UNL     1      -2.271  15.028  22.142  0.00  0.00    +0.000 A 
ATOM     14  N   UNL     1      -2.868  14.621  23.267  0.00  0.00    +0.000 NA
ATOM     15  C   UNL     1      -3.392  13.384  23.267  0.00  0.00    +0.000 A 
ATOM     16  C   UNL     1      -4.071  12.926  24.522  0.00  0.00    +0.000 C 
ATOM     17  C   UNL     1      -3.324  12.553  22.169  0.00  0.00    +0.000 A 
ATOM     18  C   UNL     1      -2.715  13.052  21.042  0.00  0.00    +0.000 A 
ATOM     19  N   UNL     1      -2.181  14.288  21.033  0.00  0.00    +0.000 NA
ATOM     20  H   UNL     1      -2.293  16.798  22.912  0.00  0.00    +0.000 HD
ENDBRANCH   1  18
BRANCH   7  21
ATOM     21  C   UNL     1       1.593   9.481  19.230  0.00  0.00    +0.000 A 
ATOM     22  C   UNL     1       2.170   9.082  18.017  0.00  0.00    +0.000 A 
ATOM     23  C   UNL     1       2.756   7.829  17.891  0.00  0.00    +0.000 A 
ATOM     24  F   UNL     1       3.367   7.503  16.746  0.00  0.00    +0.000 F 
ATOM     25  C   UNL     1       2.708   6.908  18.926  0.00  0.00    +0.000 A 
ATOM     26  C   UNL     1       2.039   7.240  20.103  0.00  0.00    +0.000 A 
ATOM     27  C   UNL     1       1.491   8.532  20.268  0.00  0.00    +0.000 A 
BRANCH  27  28
ATOM     28  N   UNL     1       0.804   8.797  21.483  0.00  0.00    +0.000 N 
ATOM     29  N   UNL     1      -0.520   8.487  21.623  0.00  0.00    +0.000 NA
ATOM     30  C   UNL     1      -0.822   9.089  22.775  0.00  0.00    +0.000 A 
ATOM     31  C   UNL     1       0.345   9.564  23.378  0.00  0.00    +0.000 A 
ATOM     32  N   UNL     1       1.399   9.300  22.598  0.00  0.00    +0.000 NA
ENDBRANCH  27  28
ENDBRANCH   7  21
TORSDOF 3
ENDMDL
MODEL 4
REMARK VINA RESULT:      -7.2      2.860      7.436
REMARK  Name = 
REMARK  5 active torsions:
REMARK  status: ('A' for Active; 'I' for Inactive)
REMARK    1  A    between atoms: C_1  and  N_2
REMARK    2  A    between atoms: C_5  and  C_6
REMARK    3  A    between atoms: C_8  and  N_9
REMARK    4  A    between atoms: C_15  and  C_17
REMARK    5  A    between atoms: C_23  and  N_24
REMARK                            x       y       z     vdW  Elec       q    Type
REMARK                         _______ _______ _______ _____ _____    ______ ____
ROOT
ATOM      1  N   UNL     1       0.274  12.241  19.244  0.00  0.00    +0.000 N 
ATOM      2  C   UNL     1       0.910  13.231  18.413  0.00  0.00    +0.000 C 
ATOM      3  C   UNL     1      -0.396  14.034  18.546  0.00  0.00    +0.000 C 
ATOM      4  C   UNL     1      -0.404  14.987  19.750  0.00  0.00    +0.000 C 
ATOM      5  C   UNL     1      -1.785  14.951  20.398  0.00  0.00    +0.000 C 
ATOM      6  N   UNL     1      -2.053  13.583  20.862  0.00  0.00    +0.000 N 
ATOM      7  C   UNL     1      -2.290  13.152  22.172  0.00  0.00    +0.000 C 
ATOM      8  O   UNL     1      -2.365  11.960  22.473  0.00  0.00    +0.000 OA
ATOM      9  C   UNL     1      -2.211  12.603  19.789  0.00  0.00    +0.000 C 
ATOM     10  C   UNL     1      -1.041  12.643  18.812  0.00  0.00    +0.000 C 
ENDROOT
BRANCH   1  18
ATOM     11  C   UNL     1       0.058   9.373  23.196  0.00  0.00    +0.000 C 
ATOM     12  N   UNL     1       1.076   8.785  22.358  0.00  0.00    +0.000 N 
ATOM     13  C   UNL     1       1.161   9.301  21.072  0.00  0.00    +0.000 A 
ATOM     14  N   UNL     1       1.624   8.449  20.152  0.00  0.00    +0.000 NA
ATOM     15  C   UNL     1       1.693   8.895  18.886  0.00  0.00    +0.000 A 
ATOM     16  C   UNL     1       2.203   7.941  17.849  0.00  0.00    +0.000 C 
ATOM     17  C   UNL     1       1.311  10.171  18.532  0.00  0.00    +0.000 A 
ATOM     18  C   UNL     1       0.822  10.980  19.530  0.00  0.00    +0.000 A 
ATOM     19  N   UNL     1       0.755  10.545  20.802  0.00  0.00    +0.000 NA
ATOM     20  H   UNL     1       1.038   7.776  22.250  0.00  0.00    +0.000 HD
ENDBRANCH   1  18
BRANCH   7  21
ATOM     21  C   UNL     1      -2.427  14.136  23.281  0.00  0.00    +0.000 A 
ATOM     22  C   UNL     1      -1.256  14.598  23.895  0.00  0.00    +0.000 A 
ATOM     23  C   UNL     1      -1.320  15.472  24.974  0.00  0.00    +0.000 A 
ATOM     24  F   UNL     1      -0.186  15.959  25.492  0.00  0.00    +0.000 F 
ATOM     25  C   UNL     1      -2.536  15.839  25.527  0.00  0.00    +0.000 A 
ATOM     26  C   UNL     1      -3.712  15.302  25.005  0.00  0.00    +0.000 A 
ATOM     27  C   UNL     1      -3.667  14.460  23.871  0.00  0.00    +0.000 A 
BRANCH  27  28
ATOM     28  N   UNL     1      -4.899  13.929  23.405  0.00  0.00    +0.000 N 
ATOM     29  N   UNL     1      -5.590  14.541  22.398  0.00  0.00    +0.000 NA
ATOM     30  C   UNL     1      -6.753  13.887  22.427  0.00  0.00    +0.000 A 
ATOM     31  C   UNL     1      -6.659  12.798  23.297  0.00  0.00    +0.000 A 
ATOM     32  N   UNL     1      -5.445  12.768  23.856  0.00  0.00    +0.000 NA
ENDBRANCH  27  28
ENDBRANCH   7  21
TORSDOF 3
ENDMDL
MODEL 5
REMARK VINA RESULT:      -7.1      0.923      2.026
REMARK  Name = 
REMARK  5 active torsions:
REMARK  status: ('A' for Active; 'I' for Inactive)
REMARK    1  A    between atoms: C_1  and  N_2
REMARK    2  A    between atoms: C_5  and  C_6
REMARK    3  A    between atoms: C_8  and  N_9
REMARK    4  A    between atoms: C_15  and  C_17
REMARK    5  A    between atoms: C_23  and  N_24
REMARK                            x       y       z     vdW  Elec       q    Type
REMARK                         _______ _______ _______ _____ _____    ______ ____
ROOT
ATOM      1  N   UNL     1      -3.016  12.112  19.621  0.00  0.00    +0.000 N 
ATOM      2  C   UNL     1      -4.146  11.504  18.967  0.00  0.00    +0.000 C 
ATOM      3  C   UNL     1      -3.184  11.209  17.802  0.00  0.00    +0.000 C 
ATOM      4  C   UNL     1      -2.473   9.855  17.928  0.00  0.00    +0.000 C 
ATOM      5  C   UNL     1      -1.021  10.018  17.489  0.00  0.00    +0.000 C 
ATOM      6  N   UNL     1      -0.367  10.992  18.374  0.00  0.00    +0.000 N 
ATOM      7  C   UNL     1       0.731  10.784  19.215  0.00  0.00    +0.000 C 
ATOM      8  O   UNL     1       1.116  11.631  20.022  0.00  0.00    +0.000 OA
ATOM      9  C   UNL     1      -0.865  12.359  18.237  0.00  0.00    +0.000 C 
ATOM     10  C   UNL     1      -2.383  12.420  18.364  0.00  0.00    +0.000 C 
ENDROOT
BRANCH   1  18
ATOM     11  C   UNL     1       0.317  14.574  22.212  0.00  0.00    +0.000 C 
ATOM     12  N   UNL     1      -0.830  14.464  23.082  0.00  0.00    +0.000 N 
ATOM     13  C   UNL     1      -1.989  13.993  22.481  0.00  0.00    +0.000 A 
ATOM     14  N   UNL     1      -3.126  14.418  23.041  0.00  0.00    +0.000 NA
ATOM     15  C   UNL     1      -4.276  14.014  22.474  0.00  0.00    +0.000 A 
ATOM     16  C   UNL     1      -5.553  14.495  23.092  0.00  0.00    +0.000 C 
ATOM     17  C   UNL     1      -4.302  13.196  21.364  0.00  0.00    +0.000 A 
ATOM     18  C   UNL     1      -3.092  12.821  20.832  0.00  0.00    +0.000 A 
ATOM     19  N   UNL     1      -1.935  13.215  21.396  0.00  0.00    +0.000 NA
ATOM     20  H   UNL     1      -1.097  15.307  23.580  0.00  0.00    +0.000 HD
ENDBRANCH   1  18
BRANCH   7  21
ATOM     21  C   UNL     1       1.471   9.491  19.193  0.00  0.00    +0.000 A 
ATOM     22  C   UNL     1       2.052   9.091  17.983  0.00  0.00    +0.000 A 
ATOM     23  C   UNL     1       2.705   7.868  17.883  0.00  0.00    +0.000 A 
ATOM     24  F   UNL     1       3.319   7.544  16.738  0.00  0.00    +0.000 F 
ATOM     25  C   UNL     1       2.723   6.976  18.943  0.00  0.00    +0.000 A 
ATOM     26  C   UNL     1       2.053   7.305  20.121  0.00  0.00    +0.000 A 
ATOM     27  C   UNL     1       1.436   8.568  20.259  0.00  0.00    +0.000 A 
BRANCH  27  28
ATOM     28  N   UNL     1       0.751   8.829  21.475  0.00  0.00    +0.000 N 
ATOM     29  N   UNL     1      -0.571   8.515  21.619  0.00  0.00    +0.000 NA
ATOM     30  C   UNL     1      -0.871   9.114  22.772  0.00  0.00    +0.000 A 
ATOM     31  C   UNL     1       0.296   9.592  23.373  0.00  0.00    +0.000 A 
ATOM     32  N   UNL     1       1.348   9.332  22.590  0.00  0.00    +0.000 NA
ENDBRANCH  27  28
ENDBRANCH   7  21
TORSDOF 3
ENDMDL
MODEL 6
REMARK VINA RESULT:      -7.1      1.076      1.222
REMARK  Name = 
REMARK  5 active torsions:
REMARK  status: ('A' for Active; 'I' for Inactive)
REMARK    1  A    between atoms: C_1  and  N_2
REMARK    2  A    between atoms: C_5  and  C_6
REMARK    3  A    between atoms: C_8  and  N_9
REMARK    4  A    between atoms: C_15  and  C_17
REMARK    5  A    between atoms: C_23  and  N_24
REMARK                            x       y       z     vdW  Elec       q    Type
REMARK                         _______ _______ _______ _____ _____    ______ ____
ROOT
ATOM      1  N   UNL     1      -2.530  12.539  20.115  0.00  0.00    +0.000 N 
ATOM      2  C   UNL     1      -3.791  11.986  19.690  0.00  0.00    +0.000 C 
ATOM      3  C   UNL     1      -3.054  11.557  18.409  0.00  0.00    +0.000 C 
ATOM      4  C   UNL     1      -2.425  10.161  18.507  0.00  0.00    +0.000 C 
ATOM      5  C   UNL     1      -1.056  10.188  17.833  0.00  0.00    +0.000 C 
ATOM      6  N   UNL     1      -0.202  11.154  18.538  0.00  0.00    +0.000 N 
ATOM      7  C   UNL     1       1.002  10.907  19.206  0.00  0.00    +0.000 C 
ATOM      8  O   UNL     1       1.570  11.763  19.885  0.00  0.00    +0.000 OA
ATOM      9  C   UNL     1      -0.623  12.546  18.395  0.00  0.00    +0.000 C 
ATOM     10  C   UNL     1      -2.092  12.731  18.756  0.00  0.00    +0.000 C 
ENDROOT
BRANCH   1  18
ATOM     11  C   UNL     1      -4.599  12.350  24.539  0.00  0.00    +0.000 C 
ATOM     12  N   UNL     1      -3.883  13.603  24.511  0.00  0.00    +0.000 N 
ATOM     13  C   UNL     1      -3.030  13.778  23.430  0.00  0.00    +0.000 A 
ATOM     14  N   UNL     1      -1.983  14.577  23.662  0.00  0.00    +0.000 NA
ATOM     15  C   UNL     1      -1.111  14.750  22.654  0.00  0.00    +0.000 A 
ATOM     16  C   UNL     1       0.068  15.637  22.911  0.00  0.00    +0.000 C 
ATOM     17  C   UNL     1      -1.272  14.141  21.427  0.00  0.00    +0.000 A 
ATOM     18  C   UNL     1      -2.360  13.315  21.274  0.00  0.00    +0.000 A 
ATOM     19  N   UNL     1      -3.243  13.140  22.275  0.00  0.00    +0.000 NA
ATOM     20  H   UNL     1      -3.335  13.824  25.336  0.00  0.00    +0.000 HD
ENDBRANCH   1  18
BRANCH   7  21
ATOM     21  C   UNL     1       1.639   9.561  19.150  0.00  0.00    +0.000 A 
ATOM     22  C   UNL     1       2.217   9.161  17.939  0.00  0.00    +0.000 A 
ATOM     23  C   UNL     1       2.775   7.895  17.806  0.00  0.00    +0.000 A 
ATOM     24  F   UNL     1       3.389   7.566  16.663  0.00  0.00    +0.000 F 
ATOM     25  C   UNL     1       2.697   6.966  18.831  0.00  0.00    +0.000 A 
ATOM     26  C   UNL     1       2.026   7.303  20.006  0.00  0.00    +0.000 A 
ATOM     27  C   UNL     1       1.506   8.605  20.179  0.00  0.00    +0.000 A 
BRANCH  27  28
ATOM     28  N   UNL     1       0.814   8.875  21.389  0.00  0.00    +0.000 N 
ATOM     29  N   UNL     1      -0.514   8.580  21.520  0.00  0.00    +0.000 NA
ATOM     30  C   UNL     1      -0.816   9.182  22.672  0.00  0.00    +0.000 A 
ATOM     31  C   UNL     1       0.352   9.642  23.284  0.00  0.00    +0.000 A 
ATOM     32  N   UNL     1       1.407   9.368  22.510  0.00  0.00    +0.000 NA
ENDBRANCH  27  28
ENDBRANCH   7  21
TORSDOF 3
ENDMDL
MODEL 7
REMARK VINA RESULT:      -6.9      8.650     10.315
REMARK  Name = 
REMARK  5 active torsions:
REMARK  status: ('A' for Active; 'I' for Inactive)
REMARK    1  A    between atoms: C_1  and  N_2
REMARK    2  A    between atoms: C_5  and  C_6
REMARK    3  A    between atoms: C_8  and  N_9
REMARK    4  A    between atoms: C_15  and  C_17
REMARK    5  A    between atoms: C_23  and  N_24
REMARK                            x       y       z     vdW  Elec       q    Type
REMARK                         _______ _______ _______ _____ _____    ______ ____
ROOT
ATOM      1  N   UNL     1       4.925  15.527  20.549  0.00  0.00    +0.000 N 
ATOM      2  C   UNL     1       3.819  15.404  19.634  0.00  0.00    +0.000 C 
ATOM      3  C   UNL     1       4.808  15.840  18.539  0.00  0.00    +0.000 C 
ATOM      4  C   UNL     1       5.541  14.664  17.879  0.00  0.00    +0.000 C 
ATOM      5  C   UNL     1       6.999  15.056  17.653  0.00  0.00    +0.000 C 
ATOM      6  N   UNL     1       7.617  15.342  18.954  0.00  0.00    +0.000 N 
ATOM      7  C   UNL     1       8.703  14.691  19.550  0.00  0.00    +0.000 C 
ATOM      8  O   UNL     1       9.056  14.918  20.708  0.00  0.00    +0.000 OA
ATOM      9  C   UNL     1       7.097  16.535  19.619  0.00  0.00    +0.000 C 
ATOM     10  C   UNL     1       5.576  16.507  19.718  0.00  0.00    +0.000 C 
ENDROOT
BRANCH   1  18
ATOM     11  C   UNL     1       6.841  12.369  23.749  0.00  0.00    +0.000 C 
ATOM     12  N   UNL     1       5.841  13.097  24.492  0.00  0.00    +0.000 N 
ATOM     13  C   UNL     1       5.312  14.208  23.848  0.00  0.00    +0.000 A 
ATOM     14  N   UNL     1       4.877  15.176  24.660  0.00  0.00    +0.000 NA
ATOM     15  C   UNL     1       4.387  16.285  24.082  0.00  0.00    +0.000 A 
ATOM     16  C   UNL     1       3.906  17.378  24.988  0.00  0.00    +0.000 C 
ATOM     17  C   UNL     1       4.323  16.436  22.712  0.00  0.00    +0.000 A 
ATOM     18  C   UNL     1       4.812  15.407  21.944  0.00  0.00    +0.000 A 
ATOM     19  N   UNL     1       5.300  14.289  22.514  0.00  0.00    +0.000 NA
ATOM     20  H   UNL     1       6.113  13.416  25.416  0.00  0.00    +0.000 HD
ENDBRANCH   1  18
BRANCH   7  21
ATOM     21  C   UNL     1       9.466  13.651  18.806  0.00  0.00    +0.000 A 
ATOM     22  C   UNL     1       9.141  12.308  19.038  0.00  0.00    +0.000 A 
ATOM     23  C   UNL     1       9.855  11.290  18.419  0.00  0.00    +0.000 A 
ATOM     24  F   UNL     1       9.474  10.019  18.597  0.00  0.00    +0.000 F 
ATOM     25  C   UNL     1      10.959  11.567  17.629  0.00  0.00    +0.000 A 
ATOM     26  C   UNL     1      11.372  12.890  17.475  0.00  0.00    +0.000 A 
ATOM     27  C   UNL     1      10.621  13.940  18.049  0.00  0.00    +0.000 A 
BRANCH  27  28
ATOM     28  N   UNL     1      11.109  15.262  17.873  0.00  0.00    +0.000 N 
ATOM     29  N   UNL     1      12.108  15.753  18.666  0.00  0.00    +0.000 NA
ATOM     30  C   UNL     1      12.103  17.047  18.342  0.00  0.00    +0.000 A 
ATOM     31  C   UNL     1      11.258  17.257  17.249  0.00  0.00    +0.000 A 
ATOM     32  N   UNL     1      10.689  16.102  16.888  0.00  0.00    +0.000 NA
ENDBRANCH  27  28
ENDBRANCH   7  21
TORSDOF 3
ENDMDL
MODEL 8
REMARK VINA RESULT:      -6.8      2.887      4.881
REMARK  Name = 
REMARK  5 active torsions:
REMARK  status: ('A' for Active; 'I' for Inactive)
REMARK    1  A    between atoms: C_1  and  N_2
REMARK    2  A    between atoms: C_5  and  C_6
REMARK    3  A    between atoms: C_8  and  N_9
REMARK    4  A    between atoms: C_15  and  C_17
REMARK    5  A    between atoms: C_23  and  N_24
REMARK                            x       y       z     vdW  Elec       q    Type
REMARK                         _______ _______ _______ _____ _____    ______ ____
ROOT
ATOM      1  N   UNL     1      -0.373  15.543  22.050  0.00  0.00    +0.000 N 
ATOM      2  C   UNL     1      -0.039  16.751  21.340  0.00  0.00    +0.000 C 
ATOM      3  C   UNL     1       0.755  15.846  20.381  0.00  0.00    +0.000 C 
ATOM      4  C   UNL     1      -0.080  15.331  19.200  0.00  0.00    +0.000 C 
ATOM      5  C   UNL     1       0.285  13.872  18.939  0.00  0.00    +0.000 C 
ATOM      6  N   UNL     1      -0.033  13.084  20.137  0.00  0.00    +0.000 N 
ATOM      7  C   UNL     1      -0.936  12.021  20.249  0.00  0.00    +0.000 C 
ATOM      8  O   UNL     1      -1.232  11.517  21.333  0.00  0.00    +0.000 OA
ATOM      9  C   UNL     1       0.803  13.387  21.297  0.00  0.00    +0.000 C 
ATOM     10  C   UNL     1       0.824  14.881  21.600  0.00  0.00    +0.000 C 
ENDROOT
BRANCH   1  18
ATOM     11  C   UNL     1      -3.872  12.614  23.800  0.00  0.00    +0.000 C 
ATOM     12  N   UNL     1      -3.800  13.713  24.733  0.00  0.00    +0.000 N 
ATOM     13  C   UNL     1      -2.718  14.567  24.565  0.00  0.00    +0.000 A 
ATOM     14  N   UNL     1      -2.307  15.181  25.678  0.00  0.00    +0.000 NA
ATOM     15  C   UNL     1      -1.241  15.994  25.570  0.00  0.00    +0.000 A 
ATOM     16  C   UNL     1      -0.770  16.678  26.817  0.00  0.00    +0.000 C 
ATOM     17  C   UNL     1      -0.589  16.199  24.372  0.00  0.00    +0.000 A 
ATOM     18  C   UNL     1      -1.057  15.513  23.277  0.00  0.00    +0.000 A 
ATOM     19  N   UNL     1      -2.127  14.702  23.373  0.00  0.00    +0.000 NA
ATOM     20  H   UNL     1      -3.808  13.466  25.717  0.00  0.00    +0.000 HD
ENDBRANCH   1  18
BRANCH   7  21
ATOM     21  C   UNL     1      -1.613  11.469  19.042  0.00  0.00    +0.000 A 
ATOM     22  C   UNL     1      -2.935  11.861  18.798  0.00  0.00    +0.000 A 
ATOM     23  C   UNL     1      -3.641  11.337  17.722  0.00  0.00    +0.000 A 
ATOM     24  F   UNL     1      -4.876  11.786  17.466  0.00  0.00    +0.000 F 
ATOM     25  C   UNL     1      -3.093  10.350  16.918  0.00  0.00    +0.000 A 
ATOM     26  C   UNL     1      -1.820   9.862  17.211  0.00  0.00    +0.000 A 
ATOM     27  C   UNL     1      -1.067  10.427  18.264  0.00  0.00    +0.000 A 
BRANCH  27  28
ATOM     28  N   UNL     1       0.212   9.867  18.523  0.00  0.00    +0.000 N 
ATOM     29  N   UNL     1       1.221   9.967  17.607  0.00  0.00    +0.000 NA
ATOM     30  C   UNL     1       2.136   9.141  18.116  0.00  0.00    +0.000 A 
ATOM     31  C   UNL     1       1.743   8.731  19.392  0.00  0.00    +0.000 A 
ATOM     32  N   UNL     1       0.555   9.264  19.694  0.00  0.00    +0.000 NA
ENDBRANCH  27  28
ENDBRANCH   7  21
TORSDOF 3
ENDMDL
MODEL 9
REMARK VINA RESULT:      -6.8      7.445     10.646
REMARK  Name = 
REMARK  5 active torsions:
REMARK  status: ('A' for Active; 'I' for Inactive)
REMARK    1  A    between atoms: C_1  and  N_2
REMARK    2  A    between atoms: C_5  and  C_6
REMARK    3  A    between atoms: C_8  and  N_9
REMARK    4  A    between atoms: C_15  and  C_17
REMARK    5  A    between atoms: C_23  and  N_24
REMARK                            x       y       z     vdW  Elec       q    Type
REMARK                         _______ _______ _______ _____ _____    ______ ____
ROOT
ATOM      1  N   UNL     1       7.647  14.721  20.224  0.00  0.00    +0.000 N 
ATOM      2  C   UNL     1       7.904  14.438  21.613  0.00  0.00    +0.000 C 
ATOM      3  C   UNL     1       6.646  15.273  21.910  0.00  0.00    +0.000 C 
ATOM      4  C   UNL     1       5.356  14.442  21.934  0.00  0.00    +0.000 C 
ATOM      5  C   UNL     1       4.245  15.237  21.254  0.00  0.00    +0.000 C 
ATOM      6  N   UNL     1       4.631  15.490  19.860  0.00  0.00    +0.000 N 
ATOM      7  C   UNL     1       3.972  15.075  18.698  0.00  0.00    +0.000 C 
ATOM      8  O   UNL     1       4.455  15.222  17.575  0.00  0.00    +0.000 OA
ATOM      9  C   UNL     1       5.769  16.394  19.705  0.00  0.00    +0.000 C 
ATOM     10  C   UNL     1       6.961  15.947  20.543  0.00  0.00    +0.000 C 
ENDROOT
BRANCH   1  18
ATOM     11  C   UNL     1      10.457  17.407  17.263  0.00  0.00    +0.000 C 
ATOM     12  N   UNL     1      10.465  16.083  16.689  0.00  0.00    +0.000 N 
ATOM     13  C   UNL     1       9.911  15.088  17.483  0.00  0.00    +0.000 A 
ATOM     14  N   UNL     1      10.406  13.863  17.277  0.00  0.00    +0.000 NA
ATOM     15  C   UNL     1       9.924  12.871  18.046  0.00  0.00    +0.000 A 
ATOM     16  C   UNL     1      10.481  11.498  17.826  0.00  0.00    +0.000 C 
ATOM     17  C   UNL     1       8.959  13.087  19.008  0.00  0.00    +0.000 A 
ATOM     18  C   UNL     1       8.518  14.378  19.176  0.00  0.00    +0.000 A 
ATOM     19  N   UNL     1       8.990  15.377  18.407  0.00  0.00    +0.000 NA
ATOM     20  H   UNL     1      11.368  15.729  16.390  0.00  0.00    +0.000 HD
ENDBRANCH   1  18
BRANCH   7  21
ATOM     21  C   UNL     1       2.649  14.393  18.777  0.00  0.00    +0.000 A 
ATOM     22  C   UNL     1       2.614  13.008  18.571  0.00  0.00    +0.000 A 
ATOM     23  C   UNL     1       1.405  12.324  18.575  0.00  0.00    +0.000 A 
ATOM     24  F   UNL     1       1.405  10.991  18.453  0.00  0.00    +0.000 F 
ATOM     25  C   UNL     1       0.199  12.998  18.692  0.00  0.00    +0.000 A 
ATOM     26  C   UNL     1       0.204  14.389  18.784  0.00  0.00    +0.000 A 
ATOM     27  C   UNL     1       1.427  15.094  18.842  0.00  0.00    +0.000 A 
BRANCH  27  28
ATOM     28  N   UNL     1       1.359  16.511  18.912  0.00  0.00    +0.000 N 
ATOM     29  N   UNL     1       1.347  17.154  20.118  0.00  0.00    +0.000 NA
ATOM     30  C   UNL     1       1.049  18.404  19.758  0.00  0.00    +0.000 A 
ATOM     31  C   UNL     1       1.083  18.515  18.366  0.00  0.00    +0.000 A 
ATOM     32  N   UNL     1       1.370  17.327  17.823  0.00  0.00    +0.000 NA
ENDBRANCH  27  28
ENDBRANCH   7  21
TORSDOF 3
ENDMDL
