MODEL 1
REMARK VINA RESULT:      -8.0      0.000      0.000
REMARK  Name = 
REMARK  5 active torsions:
REMARK  status: ('A' for Active; 'I' for Inactive)
REMARK    1  A    between atoms: C_1  and  C_2
REMARK    2  A    between atoms: C_5  and  N_6
REMARK    3  A    between atoms: N_6  and  S_7
REMARK    4  A    between atoms: S_7  and  C_10
REMARK    5  A    between atoms: C_18  and  C_19
REMARK                            x       y       z     vdW  Elec       q    Type
REMARK                         _______ _______ _______ _____ _____    ______ ____
ROOT
ATOM      1  N   UNL     1       5.462   3.619  16.644  0.00  0.00    +0.000 N 
ATOM      2  H   UNL     1       5.636   2.670  16.326  0.00  0.00    +0.000 HD
ENDROOT
BRANCH   1   7
ATOM      3  C   UNL     1       1.588   4.699  20.713  0.00  0.00    +0.000 C 
ATOM      4  C   UNL     1       2.590   4.397  19.632  0.00  0.00    +0.000 A 
ATOM      5  C   UNL     1       3.832   5.048  19.643  0.00  0.00    +0.000 A 
ATOM      6  C   UNL     1       4.788   4.778  18.663  0.00  0.00    +0.000 A 
ATOM      7  C   UNL     1       4.506   3.860  17.657  0.00  0.00    +0.000 A 
ATOM      8  C   UNL     1       3.271   3.217  17.618  0.00  0.00    +0.000 A 
ATOM      9  C   UNL     1       2.306   3.468  18.608  0.00  0.00    +0.000 A 
ATOM     10  C   UNL     1       0.990   2.744  18.549  0.00  0.00    +0.000 C 
ENDBRANCH   1   7
BRANCH   1  11
ATOM     11  S   UNL     1       6.608   4.770  16.242  0.00  0.00    +0.000 S 
ATOM     12  O   UNL     1       5.990   6.056  16.494  0.00  0.00    +0.000 OA
ATOM     13  O   UNL     1       7.879   4.423  16.840  0.00  0.00    +0.000 OA
BRANCH  11  14
ATOM     14  C   UNL     1       6.767   4.608  14.477  0.00  0.00    +0.000 A 
ATOM     15  C   UNL     1       7.694   5.408  13.795  0.00  0.00    +0.000 A 
ATOM     16  C   UNL     1       7.880   5.237  12.422  0.00  0.00    +0.000 A 
ATOM     17  C   UNL     1       7.147   4.266  11.737  0.00  0.00    +0.000 A 
ATOM     18  C   UNL     1       6.234   3.465  12.428  0.00  0.00    +0.000 A 
ATOM     19 CL   UNL     1       5.348   2.262  11.575  0.00  0.00    +0.000 Cl
ATOM     20  C   UNL     1       6.042   3.624  13.800  0.00  0.00    +0.000 A 
ENDBRANCH  11  14
ENDBRANCH   1  11
TORSDOF 3
ENDMDL
MODEL 2
REMARK VINA RESULT:      -8.0      0.935      1.386
REMARK  Name = 
REMARK  5 active torsions:
REMARK  status: ('A' for Active; 'I' for Inactive)
REMARK    1  A    between atoms: C_1  and  C_2
REMARK    2  A    between atoms: C_5  and  N_6
REMARK    3  A    between atoms: N_6  and  S_7
REMARK    4  A    between atoms: S_7  and  C_10
REMARK    5  A    between atoms: C_18  and  C_19
REMARK                            x       y       z     vdW  Elec       q    Type
REMARK                         _______ _______ _______ _____ _____    ______ ____
ROOT
ATOM      1  N   UNL     1       5.159   3.343  16.661  0.00  0.00    +0.000 N 
ATOM      2  H   UNL     1       5.472   2.424  16.362  0.00  0.00    +0.000 HD
ENDROOT
BRANCH   1   7
ATOM      3  C   UNL     1       0.698   3.758  20.220  0.00  0.00    +0.000 C 
ATOM      4  C   UNL     1       1.887   3.639  19.305  0.00  0.00    +0.000 A 
ATOM      5  C   UNL     1       1.774   4.061  17.971  0.00  0.00    +0.000 A 
ATOM      6  C   UNL     1       2.862   3.977  17.102  0.00  0.00    +0.000 A 
ATOM      7  C   UNL     1       4.071   3.461  17.556  0.00  0.00    +0.000 A 
ATOM      8  C   UNL     1       4.198   3.020  18.871  0.00  0.00    +0.000 A 
ATOM      9  C   UNL     1       3.114   3.113  19.761  0.00  0.00    +0.000 A 
ATOM     10  C   UNL     1       3.288   2.645  21.179  0.00  0.00    +0.000 C 
ENDBRANCH   1   7
BRANCH   1  11
ATOM     11  S   UNL     1       6.209   4.618  16.400  0.00  0.00    +0.000 S 
ATOM     12  O   UNL     1       5.437   5.824  16.620  0.00  0.00    +0.000 OA
ATOM     13  O   UNL     1       7.447   4.385  17.110  0.00  0.00    +0.000 OA
BRANCH  11  14
ATOM     14  C   UNL     1       6.551   4.533  14.655  0.00  0.00    +0.000 A 
ATOM     15  C   UNL     1       7.557   5.345  14.112  0.00  0.00    +0.000 A 
ATOM     16  C   UNL     1       7.883   5.232  12.760  0.00  0.00    +0.000 A 
ATOM     17  C   UNL     1       7.212   4.308  11.957  0.00  0.00    +0.000 A 
ATOM     18  C   UNL     1       6.220   3.494  12.511  0.00  0.00    +0.000 A 
ATOM     19 CL   UNL     1       5.411   2.348  11.514  0.00  0.00    +0.000 Cl
ATOM     20  C   UNL     1       5.887   3.595  13.861  0.00  0.00    +0.000 A 
ENDBRANCH  11  14
ENDBRANCH   1  11
TORSDOF 3
ENDMDL
MODEL 3
REMARK VINA RESULT:      -7.8      1.060      1.587
REMARK  Name = 
REMARK  5 active torsions:
REMARK  status: ('A' for Active; 'I' for Inactive)
REMARK    1  A    between atoms: C_1  and  C_2
REMARK    2  A    between atoms: C_5  and  N_6
REMARK    3  A    between atoms: N_6  and  S_7
REMARK    4  A    between atoms: S_7  and  C_10
REMARK    5  A    between atoms: C_18  and  C_19
REMARK                            x       y       z     vdW  Elec       q    Type
REMARK                         _______ _______ _______ _____ _____    ______ ____
ROOT
ATOM      1  N   UNL     1       4.197   4.039  16.376  0.00  0.00    +0.000 N 
ATOM      2  H   UNL     1       3.944   3.500  15.553  0.00  0.00    +0.000 HD
ENDROOT
BRANCH   1   7
ATOM      3  C   UNL     1       1.832   2.851  21.449  0.00  0.00    +0.000 C 
ATOM      4  C   UNL     1       2.447   3.190  20.118  0.00  0.00    +0.000 A 
ATOM      5  C   UNL     1       3.005   2.167  19.337  0.00  0.00    +0.000 A 
ATOM      6  C   UNL     1       3.569   2.447  18.091  0.00  0.00    +0.000 A 
ATOM      7  C   UNL     1       3.590   3.755  17.621  0.00  0.00    +0.000 A 
ATOM      8  C   UNL     1       3.058   4.787  18.389  0.00  0.00    +0.000 A 
ATOM      9  C   UNL     1       2.473   4.517  19.638  0.00  0.00    +0.000 A 
ATOM     10  C   UNL     1       1.891   5.651  20.436  0.00  0.00    +0.000 C 
ENDBRANCH   1   7
BRANCH   1  11
ATOM     11  S   UNL     1       5.605   4.938  16.284  0.00  0.00    +0.000 S 
ATOM     12  O   UNL     1       5.200   6.327  16.372  0.00  0.00    +0.000 OA
ATOM     13  O   UNL     1       6.594   4.391  17.186  0.00  0.00    +0.000 OA
BRANCH  11  14
ATOM     14  C   UNL     1       6.170   4.668  14.618  0.00  0.00    +0.000 A 
ATOM     15  C   UNL     1       7.336   5.308  14.176  0.00  0.00    +0.000 A 
ATOM     16  C   UNL     1       7.828   5.045  12.897  0.00  0.00    +0.000 A 
ATOM     17  C   UNL     1       7.162   4.142  12.067  0.00  0.00    +0.000 A 
ATOM     18  C   UNL     1       6.007   3.499  12.521  0.00  0.00    +0.000 A 
ATOM     19 CL   UNL     1       5.203   2.377  11.494  0.00  0.00    +0.000 Cl
ATOM     20  C   UNL     1       5.507   3.751  13.798  0.00  0.00    +0.000 A 
ENDBRANCH  11  14
ENDBRANCH   1  11
TORSDOF 3
ENDMDL
MODEL 4
REMARK VINA RESULT:      -7.8      1.028      1.717
REMARK  Name = 
REMARK  5 active torsions:
REMARK  status: ('A' for Active; 'I' for Inactive)
REMARK    1  A    between atoms: C_1  and  C_2
REMARK    2  A    between atoms: C_5  and  N_6
REMARK    3  A    between atoms: N_6  and  S_7
REMARK    4  A    between atoms: S_7  and  C_10
REMARK    5  A    between atoms: C_18  and  C_19
REMARK                            x       y       z     vdW  Elec       q    Type
REMARK                         _______ _______ _______ _____ _____    ______ ____
ROOT
ATOM      1  N   UNL     1       5.002   5.836  16.338  0.00  0.00    +0.000 N 
ATOM      2  H   UNL     1       4.716   6.506  15.630  0.00  0.00    +0.000 HD
ENDROOT
BRANCH   1   7
ATOM      3  C   UNL     1       1.130   3.112  19.551  0.00  0.00    +0.000 C 
ATOM      4  C   UNL     1       2.147   3.850  18.723  0.00  0.00    +0.000 A 
ATOM      5  C   UNL     1       2.663   3.246  17.567  0.00  0.00    +0.000 A 
ATOM      6  C   UNL     1       3.596   3.911  16.770  0.00  0.00    +0.000 A 
ATOM      7  C   UNL     1       4.028   5.183  17.128  0.00  0.00    +0.000 A 
ATOM      8  C   UNL     1       3.541   5.793  18.281  0.00  0.00    +0.000 A 
ATOM      9  C   UNL     1       2.590   5.140  19.084  0.00  0.00    +0.000 A 
ATOM     10  C   UNL     1       2.070   5.833  20.314  0.00  0.00    +0.000 C 
ENDBRANCH   1   7
BRANCH   1  11
ATOM     11  S   UNL     1       6.567   5.255  16.235  0.00  0.00    +0.000 S 
ATOM     12  O   UNL     1       7.432   6.375  16.545  0.00  0.00    +0.000 OA
ATOM     13  O   UNL     1       6.673   4.008  16.960  0.00  0.00    +0.000 OA
BRANCH  11  14
ATOM     14  C   UNL     1       6.774   4.904  14.503  0.00  0.00    +0.000 A 
ATOM     15  C   UNL     1       7.767   5.578  13.779  0.00  0.00    +0.000 A 
ATOM     16  C   UNL     1       7.987   5.257  12.439  0.00  0.00    +0.000 A 
ATOM     17  C   UNL     1       7.222   4.262  11.828  0.00  0.00    +0.000 A 
ATOM     18  C   UNL     1       6.243   3.586  12.561  0.00  0.00    +0.000 A 
ATOM     19 CL   UNL     1       5.317   2.351  11.800  0.00  0.00    +0.000 Cl
ATOM     20  C   UNL     1       6.016   3.896  13.901  0.00  0.00    +0.000 A 
ENDBRANCH  11  14
ENDBRANCH   1  11
TORSDOF 3
ENDMDL
MODEL 5
REMARK VINA RESULT:      -7.8      1.176      1.230
REMARK  Name = 
REMARK  5 active torsions:
REMARK  status: ('A' for Active; 'I' for Inactive)
REMARK    1  A    between atoms: C_1  and  C_2
REMARK    2  A    between atoms: C_5  and  N_6
REMARK    3  A    between atoms: N_6  and  S_7
REMARK    4  A    between atoms: S_7  and  C_10
REMARK    5  A    between atoms: C_18  and  C_19
REMARK                            x       y       z     vdW  Elec       q    Type
REMARK                         _______ _______ _______ _____ _____    ______ ____
ROOT
ATOM      1  N   UNL     1       5.161   5.999  16.261  0.00  0.00    +0.000 N 
ATOM      2  H   UNL     1       4.885   6.627  15.512  0.00  0.00    +0.000 HD
ENDROOT
BRANCH   1   7
ATOM      3  C   UNL     1       1.152   4.013  19.828  0.00  0.00    +0.000 C 
ATOM      4  C   UNL     1       2.210   4.510  18.881  0.00  0.00    +0.000 A 
ATOM      5  C   UNL     1       2.548   5.872  18.879  0.00  0.00    +0.000 A 
ATOM      6  C   UNL     1       3.536   6.360  18.023  0.00  0.00    +0.000 A 
ATOM      7  C   UNL     1       4.188   5.493  17.154  0.00  0.00    +0.000 A 
ATOM      8  C   UNL     1       3.854   4.141  17.128  0.00  0.00    +0.000 A 
ATOM      9  C   UNL     1       2.872   3.633  17.995  0.00  0.00    +0.000 A 
ATOM     10  C   UNL     1       2.547   2.165  17.955  0.00  0.00    +0.000 C 
ENDBRANCH   1   7
BRANCH   1  11
ATOM     11  S   UNL     1       6.670   5.289  16.130  0.00  0.00    +0.000 S 
ATOM     12  O   UNL     1       7.630   6.333  16.426  0.00  0.00    +0.000 OA
ATOM     13  O   UNL     1       6.685   4.036  16.851  0.00  0.00    +0.000 OA
BRANCH  11  14
ATOM     14  C   UNL     1       6.817   4.927  14.394  0.00  0.00    +0.000 A 
ATOM     15  C   UNL     1       7.774   5.608  13.629  0.00  0.00    +0.000 A 
ATOM     16  C   UNL     1       7.948   5.279  12.284  0.00  0.00    +0.000 A 
ATOM     17  C   UNL     1       7.173   4.270  11.709  0.00  0.00    +0.000 A 
ATOM     18  C   UNL     1       6.231   3.588  12.483  0.00  0.00    +0.000 A 
ATOM     19 CL   UNL     1       5.294   2.336  11.766  0.00  0.00    +0.000 Cl
ATOM     20  C   UNL     1       6.050   3.905  13.828  0.00  0.00    +0.000 A 
ENDBRANCH  11  14
ENDBRANCH   1  11
TORSDOF 3
ENDMDL
MODEL 6
REMARK VINA RESULT:      -7.8      2.942      6.847
REMARK  Name = 
REMARK  5 active torsions:
REMARK  status: ('A' for Active; 'I' for Inactive)
REMARK    1  A    between atoms: C_1  and  C_2
REMARK    2  A    between atoms: C_5  and  N_6
REMARK    3  A    between atoms: N_6  and  S_7
REMARK    4  A    between atoms: S_7  and  C_10
REMARK    5  A    between atoms: C_18  and  C_19
REMARK                            x       y       z     vdW  Elec       q    Type
REMARK                         _______ _______ _______ _____ _____    ______ ____
ROOT
ATOM      1  N   UNL     1       5.427   3.473  17.131  0.00  0.00    +0.000 N 
ATOM      2  H   UNL     1       5.074   2.523  17.202  0.00  0.00    +0.000 HD
ENDROOT
BRANCH   1   7
ATOM      3  C   UNL     1       7.791   5.277  12.243  0.00  0.00    +0.000 C 
ATOM      4  C   UNL     1       7.151   4.788  13.513  0.00  0.00    +0.000 A 
ATOM      5  C   UNL     1       7.645   5.233  14.749  0.00  0.00    +0.000 A 
ATOM      6  C   UNL     1       7.063   4.810  15.944  0.00  0.00    +0.000 A 
ATOM      7  C   UNL     1       5.988   3.929  15.916  0.00  0.00    +0.000 A 
ATOM      8  C   UNL     1       5.494   3.461  14.700  0.00  0.00    +0.000 A 
ATOM      9  C   UNL     1       6.061   3.892  13.489  0.00  0.00    +0.000 A 
ATOM     10  C   UNL     1       5.494   3.382  12.192  0.00  0.00    +0.000 C 
ENDBRANCH   1   7
BRANCH   1  11
ATOM     11  S   UNL     1       4.945   4.547  18.320  0.00  0.00    +0.000 S 
ATOM     12  O   UNL     1       5.828   4.319  19.446  0.00  0.00    +0.000 OA
ATOM     13  O   UNL     1       4.787   5.867  17.751  0.00  0.00    +0.000 OA
BRANCH  11  14
ATOM     14  C   UNL     1       3.336   3.955  18.796  0.00  0.00    +0.000 A 
ATOM     15  C   UNL     1       2.336   3.828  17.822  0.00  0.00    +0.000 A 
ATOM     16  C   UNL     1       1.094   3.294  18.170  0.00  0.00    +0.000 A 
ATOM     17  C   UNL     1       0.856   2.884  19.483  0.00  0.00    +0.000 A 
ATOM     18  C   UNL     1       1.864   3.003  20.444  0.00  0.00    +0.000 A 
ATOM     19 CL   UNL     1       1.563   2.479  22.055  0.00  0.00    +0.000 Cl
ATOM     20  C   UNL     1       3.109   3.531  20.108  0.00  0.00    +0.000 A 
ENDBRANCH  11  14
ENDBRANCH   1  11
TORSDOF 3
ENDMDL
MODEL 7
REMARK VINA RESULT:      -7.7      3.525      4.559
REMARK  Name = 
REMARK  5 active torsions:
REMARK  status: ('A' for Active; 'I' for Inactive)
REMARK    1  A    between atoms: C_1  and  C_2
REMARK    2  A    between atoms: C_5  and  N_6
REMARK    3  A    between atoms: N_6  and  S_7
REMARK    4  A    between atoms: S_7  and  C_10
REMARK    5  A    between atoms: C_18  and  C_19
REMARK                            x       y       z     vdW  Elec       q    Type
REMARK                         _______ _______ _______ _____ _____    ______ ____
ROOT
ATOM      1  N   UNL     1       2.338   3.547  18.418  0.00  0.00    +0.000 N 
ATOM      2  H   UNL     1       1.542   2.973  18.156  0.00  0.00    +0.000 HD
ENDROOT
BRANCH   1   7
ATOM      3  C   UNL     1       1.578   8.697  20.790  0.00  0.00    +0.000 C 
ATOM      4  C   UNL     1       1.785   7.355  20.142  0.00  0.00    +0.000 A 
ATOM      5  C   UNL     1       1.535   6.189  20.881  0.00  0.00    +0.000 A 
ATOM      6  C   UNL     1       1.703   4.929  20.304  0.00  0.00    +0.000 A 
ATOM      7  C   UNL     1       2.132   4.825  18.986  0.00  0.00    +0.000 A 
ATOM      8  C   UNL     1       2.402   5.970  18.241  0.00  0.00    +0.000 A 
ATOM      9  C   UNL     1       2.223   7.245  18.805  0.00  0.00    +0.000 A 
ATOM     10  C   UNL     1       2.506   8.463  17.970  0.00  0.00    +0.000 C 
ENDBRANCH   1   7
BRANCH   1  11
ATOM     11  S   UNL     1       3.816   2.772  18.540  0.00  0.00    +0.000 S 
ATOM     12  O   UNL     1       4.166   2.797  19.946  0.00  0.00    +0.000 OA
ATOM     13  O   UNL     1       3.777   1.528  17.803  0.00  0.00    +0.000 OA
BRANCH  11  14
ATOM     14  C   UNL     1       4.939   3.872  17.706  0.00  0.00    +0.000 A 
ATOM     15  C   UNL     1       4.815   4.061  16.323  0.00  0.00    +0.000 A 
ATOM     16  C   UNL     1       5.642   4.978  15.672  0.00  0.00    +0.000 A 
ATOM     17  C   UNL     1       6.583   5.705  16.402  0.00  0.00    +0.000 A 
ATOM     18  C   UNL     1       6.691   5.520  17.783  0.00  0.00    +0.000 A 
ATOM     19 CL   UNL     1       7.844   6.434  18.673  0.00  0.00    +0.000 Cl
ATOM     20  C   UNL     1       5.868   4.610  18.445  0.00  0.00    +0.000 A 
ENDBRANCH  11  14
ENDBRANCH   1  11
TORSDOF 3
ENDMDL
MODEL 8
REMARK VINA RESULT:      -7.7      3.739      4.948
REMARK  Name = 
REMARK  5 active torsions:
REMARK  status: ('A' for Active; 'I' for Inactive)
REMARK    1  A    between atoms: C_1  and  C_2
REMARK    2  A    between atoms: C_5  and  N_6
REMARK    3  A    between atoms: N_6  and  S_7
REMARK    4  A    between atoms: S_7  and  C_10
REMARK    5  A    between atoms: C_18  and  C_19
REMARK                            x       y       z     vdW  Elec       q    Type
REMARK                         _______ _______ _______ _____ _____    ______ ____
ROOT
ATOM      1  N   UNL     1       3.311   5.995  19.794  0.00  0.00    +0.000 N 
ATOM      2  H   UNL     1       4.106   6.038  20.425  0.00  0.00    +0.000 HD
ENDROOT
BRANCH   1   7
ATOM      3  C   UNL     1       0.250  10.675  18.581  0.00  0.00    +0.000 C 
ATOM      4  C   UNL     1       1.045   9.444  18.926  0.00  0.00    +0.000 A 
ATOM      5  C   UNL     1       1.897   8.883  17.963  0.00  0.00    +0.000 A 
ATOM      6  C   UNL     1       2.658   7.751  18.257  0.00  0.00    +0.000 A 
ATOM      7  C   UNL     1       2.567   7.164  19.514  0.00  0.00    +0.000 A 
ATOM      8  C   UNL     1       1.714   7.696  20.477  0.00  0.00    +0.000 A 
ATOM      9  C   UNL     1       0.953   8.844  20.200  0.00  0.00    +0.000 A 
ATOM     10  C   UNL     1       0.054   9.404  21.268  0.00  0.00    +0.000 C 
ENDBRANCH   1   7
BRANCH   1  11
ATOM     11  S   UNL     1       3.196   4.640  18.819  0.00  0.00    +0.000 S 
ATOM     12  O   UNL     1       3.246   3.500  19.711  0.00  0.00    +0.000 OA
ATOM     13  O   UNL     1       2.109   4.806  17.879  0.00  0.00    +0.000 OA
BRANCH  11  14
ATOM     14  C   UNL     1       4.722   4.649  17.903  0.00  0.00    +0.000 A 
ATOM     15  C   UNL     1       5.929   4.870  18.582  0.00  0.00    +0.000 A 
ATOM     16  C   UNL     1       7.137   4.805  17.886  0.00  0.00    +0.000 A 
ATOM     17  C   UNL     1       7.139   4.514  16.521  0.00  0.00    +0.000 A 
ATOM     18  C   UNL     1       5.932   4.282  15.856  0.00  0.00    +0.000 A 
ATOM     19 CL   UNL     1       5.949   3.909  14.177  0.00  0.00    +0.000 Cl
ATOM     20  C   UNL     1       4.719   4.341  16.540  0.00  0.00    +0.000 A 
ENDBRANCH  11  14
ENDBRANCH   1  11
TORSDOF 3
ENDMDL
MODEL 9
REMARK VINA RESULT:      -7.7      3.516      6.442
REMARK  Name = 
REMARK  5 active torsions:
REMARK  status: ('A' for Active; 'I' for Inactive)
REMARK    1  A    between atoms: C_1  and  C_2
REMARK    2  A    between atoms: C_5  and  N_6
REMARK    3  A    between atoms: N_6  and  S_7
REMARK    4  A    between atoms: S_7  and  C_10
REMARK    5  A    between atoms: C_18  and  C_19
REMARK                            x       y       z     vdW  Elec       q    Type
REMARK                         _______ _______ _______ _____ _____    ______ ____
ROOT
ATOM      1  N   UNL     1       4.082   2.775  18.423  0.00  0.00    +0.000 N 
ATOM      2  H   UNL     1       4.422   1.818  18.398  0.00  0.00    +0.000 HD
ENDROOT
BRANCH   1   7
ATOM      3  C   UNL     1       7.752   7.066  17.497  0.00  0.00    +0.000 C 
ATOM      4  C   UNL     1       6.785   5.933  17.713  0.00  0.00    +0.000 A 
ATOM      5  C   UNL     1       6.378   5.616  19.017  0.00  0.00    +0.000 A 
ATOM      6  C   UNL     1       5.471   4.581  19.249  0.00  0.00    +0.000 A 
ATOM      7  C   UNL     1       4.971   3.848  18.179  0.00  0.00    +0.000 A 
ATOM      8  C   UNL     1       5.376   4.136  16.879  0.00  0.00    +0.000 A 
ATOM      9  C   UNL     1       6.277   5.185  16.630  0.00  0.00    +0.000 A 
ATOM     10  C   UNL     1       6.682   5.483  15.212  0.00  0.00    +0.000 C 
ENDBRANCH   1   7
BRANCH   1  11
ATOM     11  S   UNL     1       2.425   2.988  18.343  0.00  0.00    +0.000 S 
ATOM     12  O   UNL     1       2.094   3.024  16.932  0.00  0.00    +0.000 OA
ATOM     13  O   UNL     1       1.770   2.061  19.239  0.00  0.00    +0.000 OA
BRANCH  11  14
ATOM     14  C   UNL     1       2.179   4.633  18.975  0.00  0.00    +0.000 A 
ATOM     15  C   UNL     1       1.878   4.809  20.332  0.00  0.00    +0.000 A 
ATOM     16  C   UNL     1       1.757   6.098  20.854  0.00  0.00    +0.000 A 
ATOM     17  C   UNL     1       1.942   7.204  20.023  0.00  0.00    +0.000 A 
ATOM     18  C   UNL     1       2.255   7.019  18.674  0.00  0.00    +0.000 A 
ATOM     19 CL   UNL     1       2.497   8.391  17.665  0.00  0.00    +0.000 Cl
ATOM     20  C   UNL     1       2.382   5.737  18.142  0.00  0.00    +0.000 A 
ENDBRANCH  11  14
ENDBRANCH   1  11
TORSDOF 3
ENDMDL
