MODEL 1
REMARK VINA RESULT:      -7.1      0.000      0.000
REMARK  Name = 
REMARK  2 active torsions:
REMARK  status: ('A' for Active; 'I' for Inactive)
REMARK    1  A    between atoms: N_12  and  C_13
REMARK    2  A    between atoms: C_13  and  C_14
REMARK                            x       y       z     vdW  Elec       q    Type
REMARK                         _______ _______ _______ _____ _____    ______ ____
ROOT
ATOM      1  O   UNL     1       3.121   5.721  17.642  0.00  0.00    +0.000 OA
ATOM      2  C   UNL     1       3.365   4.579  18.001  0.00  0.00    +0.000 C 
ATOM      3  C   UNL     1       2.441   3.424  17.781  0.00  0.00    +0.000 C 
ATOM      4  C   UNL     1       1.067   3.566  18.435  0.00  0.00    +0.000 C 
ATOM      5  C   UNL     1       1.109   4.141  19.854  0.00  0.00    +0.000 C 
ATOM      6  C   UNL     1       1.730   2.991  20.648  0.00  0.00    +0.000 C 
ATOM      7  C   UNL     1       1.950   1.930  19.567  0.00  0.00    +0.000 C 
ATOM      8  O   UNL     1       0.782   2.173  18.735  0.00  0.00    +0.000 OA
ATOM      9  C   UNL     1       3.063   2.279  18.578  0.00  0.00    +0.000 C 
ATOM     10  C   UNL     1       4.286   2.878  19.199  0.00  0.00    +0.000 C 
ATOM     11  O   UNL     1       4.970   2.317  20.040  0.00  0.00    +0.000 OA
ATOM     12  N   UNL     1       4.441   4.159  18.743  0.00  0.00    +0.000 N 
ENDROOT
BRANCH  12  13
ATOM     13  C   UNL     1       5.335   5.117  19.370  0.00  0.00    +0.000 C 
BRANCH  13  14
ATOM     14  C   UNL     1       6.512   5.492  18.528  0.00  0.00    +0.000 C 
ATOM     15  C   UNL     1       7.872   5.818  19.088  0.00  0.00    +0.000 C 
ATOM     16  O   UNL     1       7.569   4.518  18.568  0.00  0.00    +0.000 OA
ENDBRANCH  13  14
ENDBRANCH  12  13
TORSDOF 2
ENDMDL
MODEL 2
REMARK VINA RESULT:      -7.0      1.938      2.176
REMARK  Name = 
REMARK  2 active torsions:
REMARK  status: ('A' for Active; 'I' for Inactive)
REMARK    1  A    between atoms: N_12  and  C_13
REMARK    2  A    between atoms: C_13  and  C_14
REMARK                            x       y       z     vdW  Elec       q    Type
REMARK                         _______ _______ _______ _____ _____    ______ ____
ROOT
ATOM      1  O   UNL     1       1.481   3.754  17.073  0.00  0.00    +0.000 OA
ATOM      2  C   UNL     1       2.233   3.290  17.916  0.00  0.00    +0.000 C 
ATOM      3  C   UNL     1       1.775   2.453  19.067  0.00  0.00    +0.000 C 
ATOM      4  C   UNL     1       0.794   3.145  20.014  0.00  0.00    +0.000 C 
ATOM      5  C   UNL     1       1.155   4.599  20.332  0.00  0.00    +0.000 C 
ATOM      6  C   UNL     1       2.397   4.437  21.211  0.00  0.00    +0.000 C 
ATOM      7  C   UNL     1       2.560   2.915  21.266  0.00  0.00    +0.000 C 
ATOM      8  O   UNL     1       1.162   2.513  21.270  0.00  0.00    +0.000 OA
ATOM      9  C   UNL     1       3.015   2.296  19.944  0.00  0.00    +0.000 C 
ATOM     10  C   UNL     1       4.080   3.067  19.227  0.00  0.00    +0.000 C 
ATOM     11  O   UNL     1       5.181   3.309  19.694  0.00  0.00    +0.000 OA
ATOM     12  N   UNL     1       3.582   3.518  18.034  0.00  0.00    +0.000 N 
ENDROOT
BRANCH  12  13
ATOM     13  C   UNL     1       4.238   4.544  17.243  0.00  0.00    +0.000 C 
BRANCH  13  14
ATOM     14  C   UNL     1       5.216   4.011  16.245  0.00  0.00    +0.000 C 
ATOM     15  C   UNL     1       5.860   4.850  15.173  0.00  0.00    +0.000 C 
ATOM     16  O   UNL     1       6.537   4.557  16.402  0.00  0.00    +0.000 OA
ENDBRANCH  13  14
ENDBRANCH  12  13
TORSDOF 2
ENDMDL
MODEL 3
REMARK VINA RESULT:      -6.8      2.031      5.148
REMARK  Name = 
REMARK  2 active torsions:
REMARK  status: ('A' for Active; 'I' for Inactive)
REMARK    1  A    between atoms: N_12  and  C_13
REMARK    2  A    between atoms: C_13  and  C_14
REMARK                            x       y       z     vdW  Elec       q    Type
REMARK                         _______ _______ _______ _____ _____    ______ ____
ROOT
ATOM      1  O   UNL     1       6.541   5.125  19.845  0.00  0.00    +0.000 OA
ATOM      2  C   UNL     1       6.136   4.643  18.798  0.00  0.00    +0.000 C 
ATOM      3  C   UNL     1       6.907   4.672  17.517  0.00  0.00    +0.000 C 
ATOM      4  C   UNL     1       7.236   6.071  16.996  0.00  0.00    +0.000 C 
ATOM      5  C   UNL     1       6.080   7.068  17.115  0.00  0.00    +0.000 C 
ATOM      6  C   UNL     1       5.099   6.551  16.062  0.00  0.00    +0.000 C 
ATOM      7  C   UNL     1       5.840   5.336  15.496  0.00  0.00    +0.000 C 
ATOM      8  O   UNL     1       7.209   5.823  15.565  0.00  0.00    +0.000 OA
ATOM      9  C   UNL     1       5.924   4.158  16.468  0.00  0.00    +0.000 C 
ATOM     10  C   UNL     1       4.666   3.889  17.234  0.00  0.00    +0.000 C 
ATOM     11  O   UNL     1       3.597   3.612  16.715  0.00  0.00    +0.000 OA
ATOM     12  N   UNL     1       4.899   4.095  18.567  0.00  0.00    +0.000 N 
ENDROOT
BRANCH  12  13
ATOM     13  C   UNL     1       3.831   4.222  19.543  0.00  0.00    +0.000 C 
BRANCH  13  14
ATOM     14  C   UNL     1       3.470   2.939  20.220  0.00  0.00    +0.000 C 
ATOM     15  C   UNL     1       2.312   2.792  21.172  0.00  0.00    +0.000 C 
ATOM     16  O   UNL     1       2.202   2.413  19.794  0.00  0.00    +0.000 OA
ENDBRANCH  13  14
ENDBRANCH  12  13
TORSDOF 2
ENDMDL
MODEL 4
REMARK VINA RESULT:      -6.8      1.694      2.289
REMARK  Name = 
REMARK  2 active torsions:
REMARK  status: ('A' for Active; 'I' for Inactive)
REMARK    1  A    between atoms: N_12  and  C_13
REMARK    2  A    between atoms: C_13  and  C_14
REMARK                            x       y       z     vdW  Elec       q    Type
REMARK                         _______ _______ _______ _____ _____    ______ ____
ROOT
ATOM      1  O   UNL     1       1.448   3.802  17.228  0.00  0.00    +0.000 OA
ATOM      2  C   UNL     1       2.149   3.252  18.064  0.00  0.00    +0.000 C 
ATOM      3  C   UNL     1       1.607   2.483  19.226  0.00  0.00    +0.000 C 
ATOM      4  C   UNL     1       0.731   3.294  20.182  0.00  0.00    +0.000 C 
ATOM      5  C   UNL     1       1.271   4.694  20.486  0.00  0.00    +0.000 C 
ATOM      6  C   UNL     1       2.495   4.385  21.350  0.00  0.00    +0.000 C 
ATOM      7  C   UNL     1       2.472   2.855  21.412  0.00  0.00    +0.000 C 
ATOM      8  O   UNL     1       1.035   2.626  21.436  0.00  0.00    +0.000 OA
ATOM      9  C   UNL     1       2.831   2.179  20.088  0.00  0.00    +0.000 C 
ATOM     10  C   UNL     1       3.972   2.811  19.353  0.00  0.00    +0.000 C 
ATOM     11  O   UNL     1       5.100   2.918  19.805  0.00  0.00    +0.000 OA
ATOM     12  N   UNL     1       3.517   3.314  18.164  0.00  0.00    +0.000 N 
ENDROOT
BRANCH  12  13
ATOM     13  C   UNL     1       4.283   4.248  17.358  0.00  0.00    +0.000 C 
BRANCH  13  14
ATOM     14  C   UNL     1       4.476   5.586  17.996  0.00  0.00    +0.000 C 
ATOM     15  C   UNL     1       4.770   6.847  17.226  0.00  0.00    +0.000 C 
ATOM     16  O   UNL     1       3.443   6.527  17.660  0.00  0.00    +0.000 OA
ENDBRANCH  13  14
ENDBRANCH  12  13
TORSDOF 2
ENDMDL
MODEL 5
REMARK VINA RESULT:      -6.7      2.002      4.932
REMARK  Name = 
REMARK  2 active torsions:
REMARK  status: ('A' for Active; 'I' for Inactive)
REMARK    1  A    between atoms: N_12  and  C_13
REMARK    2  A    between atoms: C_13  and  C_14
REMARK                            x       y       z     vdW  Elec       q    Type
REMARK                         _______ _______ _______ _____ _____    ______ ____
ROOT
ATOM      1  O   UNL     1       3.025   3.926  17.085  0.00  0.00    +0.000 OA
ATOM      2  C   UNL     1       3.896   4.631  17.570  0.00  0.00    +0.000 C 
ATOM      3  C   UNL     1       4.593   5.722  16.821  0.00  0.00    +0.000 C 
ATOM      4  C   UNL     1       5.356   5.263  15.578  0.00  0.00    +0.000 C 
ATOM      5  C   UNL     1       6.142   3.964  15.774  0.00  0.00    +0.000 C 
ATOM      6  C   UNL     1       7.273   4.410  16.703  0.00  0.00    +0.000 C 
ATOM      7  C   UNL     1       6.965   5.897  16.899  0.00  0.00    +0.000 C 
ATOM      8  O   UNL     1       6.447   6.223  15.579  0.00  0.00    +0.000 OA
ATOM      9  C   UNL     1       5.723   6.162  17.750  0.00  0.00    +0.000 C 
ATOM     10  C   UNL     1       5.586   5.277  18.950  0.00  0.00    +0.000 C 
ATOM     11  O   UNL     1       6.405   5.218  19.852  0.00  0.00    +0.000 OA
ATOM     12  N   UNL     1       4.465   4.504  18.812  0.00  0.00    +0.000 N 
ENDROOT
BRANCH  12  13
ATOM     13  C   UNL     1       4.208   3.335  19.636  0.00  0.00    +0.000 C 
BRANCH  13  14
ATOM     14  C   UNL     1       3.077   3.505  20.598  0.00  0.00    +0.000 C 
ATOM     15  C   UNL     1       1.935   2.532  20.728  0.00  0.00    +0.000 C 
ATOM     16  O   UNL     1       3.052   2.499  21.624  0.00  0.00    +0.000 OA
ENDBRANCH  13  14
ENDBRANCH  12  13
TORSDOF 2
ENDMDL
MODEL 6
REMARK VINA RESULT:      -6.6      1.690      2.066
REMARK  Name = 
REMARK  2 active torsions:
REMARK  status: ('A' for Active; 'I' for Inactive)
REMARK    1  A    between atoms: N_12  and  C_13
REMARK    2  A    between atoms: C_13  and  C_14
REMARK                            x       y       z     vdW  Elec       q    Type
REMARK                         _______ _______ _______ _____ _____    ______ ____
ROOT
ATOM      1  O   UNL     1       3.157   6.226  19.562  0.00  0.00    +0.000 OA
ATOM      2  C   UNL     1       3.227   5.460  18.612  0.00  0.00    +0.000 C 
ATOM      3  C   UNL     1       2.117   4.550  18.195  0.00  0.00    +0.000 C 
ATOM      4  C   UNL     1       1.684   3.537  19.256  0.00  0.00    +0.000 C 
ATOM      5  C   UNL     1       2.848   2.888  20.009  0.00  0.00    +0.000 C 
ATOM      6  C   UNL     1       3.466   1.991  18.935  0.00  0.00    +0.000 C 
ATOM      7  C   UNL     1       2.563   2.260  17.728  0.00  0.00    +0.000 C 
ATOM      8  O   UNL     1       1.285   2.430  18.403  0.00  0.00    +0.000 OA
ATOM      9  C   UNL     1       2.738   3.654  17.126  0.00  0.00    +0.000 C 
ATOM     10  C   UNL     1       4.158   4.119  17.027  0.00  0.00    +0.000 C 
ATOM     11  O   UNL     1       5.022   3.543  16.387  0.00  0.00    +0.000 OA
ATOM     12  N   UNL     1       4.329   5.213  17.832  0.00  0.00    +0.000 N 
ENDROOT
BRANCH  12  13
ATOM     13  C   UNL     1       5.638   5.719  18.206  0.00  0.00    +0.000 C 
BRANCH  13  14
ATOM     14  C   UNL     1       6.190   6.736  17.261  0.00  0.00    +0.000 C 
ATOM     15  C   UNL     1       7.495   7.458  17.476  0.00  0.00    +0.000 C 
ATOM     16  O   UNL     1       7.406   6.312  16.620  0.00  0.00    +0.000 OA
ENDBRANCH  13  14
ENDBRANCH  12  13
TORSDOF 2
ENDMDL
MODEL 7
REMARK VINA RESULT:      -6.5      0.991      1.082
REMARK  Name = 
REMARK  2 active torsions:
REMARK  status: ('A' for Active; 'I' for Inactive)
REMARK    1  A    between atoms: N_12  and  C_13
REMARK    2  A    between atoms: C_13  and  C_14
REMARK                            x       y       z     vdW  Elec       q    Type
REMARK                         _______ _______ _______ _____ _____    ______ ____
ROOT
ATOM      1  O   UNL     1       3.128   6.231  18.236  0.00  0.00    +0.000 OA
ATOM      2  C   UNL     1       3.290   5.050  18.503  0.00  0.00    +0.000 C 
ATOM      3  C   UNL     1       2.177   4.053  18.564  0.00  0.00    +0.000 C 
ATOM      4  C   UNL     1       1.095   4.361  19.599  0.00  0.00    +0.000 C 
ATOM      5  C   UNL     1       1.639   4.854  20.942  0.00  0.00    +0.000 C 
ATOM      6  C   UNL     1       2.284   3.590  21.512  0.00  0.00    +0.000 C 
ATOM      7  C   UNL     1       2.012   2.561  20.411  0.00  0.00    +0.000 C 
ATOM      8  O   UNL     1       0.701   3.011  19.966  0.00  0.00    +0.000 OA
ATOM      9  C   UNL     1       2.824   2.793  19.137  0.00  0.00    +0.000 C 
ATOM     10  C   UNL     1       4.252   3.178  19.367  0.00  0.00    +0.000 C 
ATOM     11  O   UNL     1       5.059   2.484  19.964  0.00  0.00    +0.000 OA
ATOM     12  N   UNL     1       4.459   4.444  18.889  0.00  0.00    +0.000 N 
ENDROOT
BRANCH  12  13
ATOM     13  C   UNL     1       5.634   5.231  19.224  0.00  0.00    +0.000 C 
BRANCH  13  14
ATOM     14  C   UNL     1       6.552   5.474  18.070  0.00  0.00    +0.000 C 
ATOM     15  C   UNL     1       7.748   4.613  17.755  0.00  0.00    +0.000 C 
ATOM     16  O   UNL     1       6.498   4.436  17.076  0.00  0.00    +0.000 OA
ENDBRANCH  13  14
ENDBRANCH  12  13
TORSDOF 2
ENDMDL
MODEL 8
REMARK VINA RESULT:      -6.5      1.109      2.684
REMARK  Name = 
REMARK  2 active torsions:
REMARK  status: ('A' for Active; 'I' for Inactive)
REMARK    1  A    between atoms: N_12  and  C_13
REMARK    2  A    between atoms: C_13  and  C_14
REMARK                            x       y       z     vdW  Elec       q    Type
REMARK                         _______ _______ _______ _____ _____    ______ ____
ROOT
ATOM      1  O   UNL     1       5.145   2.416  20.124  0.00  0.00    +0.000 OA
ATOM      2  C   UNL     1       4.370   3.331  19.889  0.00  0.00    +0.000 C 
ATOM      3  C   UNL     1       2.883   3.201  19.970  0.00  0.00    +0.000 C 
ATOM      4  C   UNL     1       2.277   2.160  19.028  0.00  0.00    +0.000 C 
ATOM      5  C   UNL     1       2.883   2.163  17.622  0.00  0.00    +0.000 C 
ATOM      6  C   UNL     1       2.348   3.475  17.045  0.00  0.00    +0.000 C 
ATOM      7  C   UNL     1       1.515   4.026  18.206  0.00  0.00    +0.000 C 
ATOM      8  O   UNL     1       0.993   2.782  18.752  0.00  0.00    +0.000 OA
ATOM      9  C   UNL     1       2.353   4.510  19.389  0.00  0.00    +0.000 C 
ATOM     10  C   UNL     1       3.582   5.277  19.013  0.00  0.00    +0.000 C 
ATOM     11  O   UNL     1       3.570   6.315  18.372  0.00  0.00    +0.000 OA
ATOM     12  N   UNL     1       4.688   4.581  19.420  0.00  0.00    +0.000 N 
ENDROOT
BRANCH  12  13
ATOM     13  C   UNL     1       6.028   4.884  18.948  0.00  0.00    +0.000 C 
BRANCH  13  14
ATOM     14  C   UNL     1       6.277   4.486  17.529  0.00  0.00    +0.000 C 
ATOM     15  C   UNL     1       6.825   5.420  16.481  0.00  0.00    +0.000 C 
ATOM     16  O   UNL     1       7.671   4.495  17.176  0.00  0.00    +0.000 OA
ENDBRANCH  13  14
ENDBRANCH  12  13
TORSDOF 2
ENDMDL
MODEL 9
REMARK VINA RESULT:      -6.5      1.183      2.545
REMARK  Name = 
REMARK  2 active torsions:
REMARK  status: ('A' for Active; 'I' for Inactive)
REMARK    1  A    between atoms: N_12  and  C_13
REMARK    2  A    between atoms: C_13  and  C_14
REMARK                            x       y       z     vdW  Elec       q    Type
REMARK                         _______ _______ _______ _____ _____    ______ ____
ROOT
ATOM      1  O   UNL     1       4.957   2.007  19.636  0.00  0.00    +0.000 OA
ATOM      2  C   UNL     1       4.343   3.042  19.842  0.00  0.00    +0.000 C 
ATOM      3  C   UNL     1       3.106   3.122  20.679  0.00  0.00    +0.000 C 
ATOM      4  C   UNL     1       1.936   2.274  20.179  0.00  0.00    +0.000 C 
ATOM      5  C   UNL     1       1.733   2.325  18.662  0.00  0.00    +0.000 C 
ATOM      6  C   UNL     1       1.216   3.750  18.454  0.00  0.00    +0.000 C 
ATOM      7  C   UNL     1       1.199   4.301  19.883  0.00  0.00    +0.000 C 
ATOM      8  O   UNL     1       0.821   3.100  20.611  0.00  0.00    +0.000 OA
ATOM      9  C   UNL     1       2.591   4.543  20.467  0.00  0.00    +0.000 C 
ATOM     10  C   UNL     1       3.570   5.157  19.515  0.00  0.00    +0.000 C 
ATOM     11  O   UNL     1       3.414   6.243  18.980  0.00  0.00    +0.000 OA
ATOM     12  N   UNL     1       4.589   4.273  19.286  0.00  0.00    +0.000 N 
ENDROOT
BRANCH  12  13
ATOM     13  C   UNL     1       5.532   4.422  18.191  0.00  0.00    +0.000 C 
BRANCH  13  14
ATOM     14  C   UNL     1       6.934   4.699  18.629  0.00  0.00    +0.000 C 
ATOM     15  C   UNL     1       7.535   6.080  18.691  0.00  0.00    +0.000 C 
ATOM     16  O   UNL     1       7.006   5.440  19.860  0.00  0.00    +0.000 OA
ENDBRANCH  13  14
ENDBRANCH  12  13
TORSDOF 2
ENDMDL
