MODEL 1
REMARK VINA RESULT:      -7.3      0.000      0.000
REMARK  Name = 
REMARK  6 active torsions:
REMARK  status: ('A' for Active; 'I' for Inactive)
REMARK    1  A    between atoms: C_1  and  C_2
REMARK    2  A    between atoms: C_2  and  O_3
REMARK    3  A    between atoms: O_3  and  C_4
REMARK    4  A    between atoms: C_4  and  C_6
REMARK    5  A    between atoms: C_17  and  N_18
REMARK    6  A    between atoms: N_21  and  C_22
REMARK                            x       y       z     vdW  Elec       q    Type
REMARK                         _______ _______ _______ _____ _____    ______ ____
ROOT
ATOM      1  C   UNL     1       5.937   5.309  17.722  0.00  0.00    +0.000 A 
ATOM      2  C   UNL     1       6.944   6.140  17.246  0.00  0.00    +0.000 A 
ATOM      3  N   UNL     1       7.396   6.135  15.980  0.00  0.00    +0.000 NA
ATOM      4  C   UNL     1       6.846   5.269  15.131  0.00  0.00    +0.000 A 
ATOM      5  C   UNL     1       7.436   5.201  13.876  0.00  0.00    +0.000 A 
ATOM      6  C   UNL     1       6.969   4.325  12.913  0.00  0.00    +0.000 A 
ATOM      7  F   UNL     1       7.605   4.227  11.738  0.00  0.00    +0.000 F 
ATOM      8  C   UNL     1       5.844   3.571  13.164  0.00  0.00    +0.000 A 
ATOM      9  F   UNL     1       5.372   2.722  12.241  0.00  0.00    +0.000 F 
ATOM     10  C   UNL     1       5.199   3.673  14.392  0.00  0.00    +0.000 A 
ATOM     11  C   UNL     1       5.730   4.446  15.460  0.00  0.00    +0.000 A 
ATOM     12  C   UNL     1       5.239   4.462  16.825  0.00  0.00    +0.000 A 
ENDROOT
BRANCH  12  13
ATOM     13  N   UNL     1       4.092   3.730  17.184  0.00  0.00    +0.000 N 
ATOM     14  C   UNL     1       2.762   4.020  16.595  0.00  0.00    +0.000 C 
ATOM     15  C   UNL     1       1.692   3.768  17.695  0.00  0.00    +0.000 C 
ATOM     16  N   UNL     1       1.679   2.347  18.104  0.00  0.00    +0.000 NA
ATOM     17  C   UNL     1       0.679   2.085  19.134  0.00  0.00    +0.000 C 
ATOM     18  C   UNL     1       3.025   1.958  18.580  0.00  0.00    +0.000 C 
ATOM     19  C   UNL     1       4.151   2.296  17.574  0.00  0.00    +0.000 C 
ENDBRANCH  12  13
BRANCH   1  20
ATOM     20  C   UNL     1       5.848   5.217  19.193  0.00  0.00    +0.000 C 
ATOM     21  O   UNL     1       6.832   5.157  19.910  0.00  0.00    +0.000 OA
BRANCH  20  22
ATOM     22  O   UNL     1       4.555   5.220  19.611  0.00  0.00    +0.000 OA
BRANCH  22  24
ATOM     23  C   UNL     1       2.427   6.439  19.914  0.00  0.00    +0.000 C 
ATOM     24  C   UNL     1       3.810   6.406  19.278  0.00  0.00    +0.000 C 
ENDBRANCH  22  24
ENDBRANCH  20  22
ENDBRANCH   1  20
TORSDOF 4
ENDMDL
MODEL 2
REMARK VINA RESULT:      -6.9      3.703      6.372
REMARK  Name = 
REMARK  6 active torsions:
REMARK  status: ('A' for Active; 'I' for Inactive)
REMARK    1  A    between atoms: C_1  and  C_2
REMARK    2  A    between atoms: C_2  and  O_3
REMARK    3  A    between atoms: O_3  and  C_4
REMARK    4  A    between atoms: C_4  and  C_6
REMARK    5  A    between atoms: C_17  and  N_18
REMARK    6  A    between atoms: N_21  and  C_22
REMARK                            x       y       z     vdW  Elec       q    Type
REMARK                         _______ _______ _______ _____ _____    ______ ____
ROOT
ATOM      1  C   UNL     1       3.423   4.630  19.557  0.00  0.00    +0.000 A 
ATOM      2  C   UNL     1       2.547   4.780  20.624  0.00  0.00    +0.000 A 
ATOM      3  N   UNL     1       1.814   5.884  20.854  0.00  0.00    +0.000 NA
ATOM      4  C   UNL     1       1.946   6.902  20.005  0.00  0.00    +0.000 A 
ATOM      5  C   UNL     1       1.280   8.068  20.356  0.00  0.00    +0.000 A 
ATOM      6  C   UNL     1       1.358   9.201  19.568  0.00  0.00    +0.000 A 
ATOM      7  F   UNL     1       0.767  10.334  19.970  0.00  0.00    +0.000 F 
ATOM      8  C   UNL     1       2.029   9.151  18.366  0.00  0.00    +0.000 A 
ATOM      9  F   UNL     1       2.110  10.236  17.584  0.00  0.00    +0.000 F 
ATOM     10  C   UNL     1       2.648   7.972  17.964  0.00  0.00    +0.000 A 
ATOM     11  C   UNL     1       2.720   6.833  18.811  0.00  0.00    +0.000 A 
ATOM     12  C   UNL     1       3.502   5.636  18.561  0.00  0.00    +0.000 A 
ENDROOT
BRANCH  12  13
ATOM     13  N   UNL     1       4.220   5.485  17.361  0.00  0.00    +0.000 N 
ATOM     14  C   UNL     1       3.952   4.367  16.424  0.00  0.00    +0.000 C 
ATOM     15  C   UNL     1       5.305   3.951  15.782  0.00  0.00    +0.000 C 
ATOM     16  N   UNL     1       5.872   5.057  14.979  0.00  0.00    +0.000 NA
ATOM     17  C   UNL     1       7.143   4.689  14.364  0.00  0.00    +0.000 C 
ATOM     18  C   UNL     1       6.040   6.252  15.836  0.00  0.00    +0.000 C 
ATOM     19  C   UNL     1       4.752   6.645  16.598  0.00  0.00    +0.000 C 
ENDBRANCH  12  13
BRANCH   1  20
ATOM     20  C   UNL     1       4.383   3.515  19.690  0.00  0.00    +0.000 C 
ATOM     21  O   UNL     1       5.589   3.674  19.629  0.00  0.00    +0.000 OA
BRANCH  20  22
ATOM     22  O   UNL     1       3.743   2.335  19.896  0.00  0.00    +0.000 OA
BRANCH  22  24
ATOM     23  C   UNL     1       1.707   1.825  18.591  0.00  0.00    +0.000 C 
ATOM     24  C   UNL     1       3.220   1.708  18.710  0.00  0.00    +0.000 C 
ENDBRANCH  22  24
ENDBRANCH  20  22
ENDBRANCH   1  20
TORSDOF 4
ENDMDL
MODEL 3
REMARK VINA RESULT:      -6.8      3.708      6.055
REMARK  Name = 
REMARK  6 active torsions:
REMARK  status: ('A' for Active; 'I' for Inactive)
REMARK    1  A    between atoms: C_1  and  C_2
REMARK    2  A    between atoms: C_2  and  O_3
REMARK    3  A    between atoms: O_3  and  C_4
REMARK    4  A    between atoms: C_4  and  C_6
REMARK    5  A    between atoms: C_17  and  N_18
REMARK    6  A    between atoms: N_21  and  C_22
REMARK                            x       y       z     vdW  Elec       q    Type
REMARK                         _______ _______ _______ _____ _____    ______ ____
ROOT
ATOM      1  C   UNL     1       4.365   5.607  16.949  0.00  0.00    +0.000 A 
ATOM      2  C   UNL     1       4.714   4.363  16.439  0.00  0.00    +0.000 A 
ATOM      3  N   UNL     1       4.168   3.200  16.836  0.00  0.00    +0.000 NA
ATOM      4  C   UNL     1       3.239   3.247  17.788  0.00  0.00    +0.000 A 
ATOM      5  C   UNL     1       2.804   2.018  18.265  0.00  0.00    +0.000 A 
ATOM      6  C   UNL     1       1.857   1.934  19.269  0.00  0.00    +0.000 A 
ATOM      7  F   UNL     1       1.512   0.737  19.760  0.00  0.00    +0.000 F 
ATOM      8  C   UNL     1       1.263   3.083  19.744  0.00  0.00    +0.000 A 
ATOM      9  F   UNL     1       0.338   3.022  20.711  0.00  0.00    +0.000 F 
ATOM     10  C   UNL     1       1.637   4.321  19.232  0.00  0.00    +0.000 A 
ATOM     11  C   UNL     1       2.709   4.463  18.311  0.00  0.00    +0.000 A 
ATOM     12  C   UNL     1       3.294   5.716  17.872  0.00  0.00    +0.000 A 
ENDROOT
BRANCH  12  13
ATOM     13  N   UNL     1       2.758   6.945  18.296  0.00  0.00    +0.000 N 
ATOM     14  C   UNL     1       2.813   7.375  19.714  0.00  0.00    +0.000 C 
ATOM     15  C   UNL     1       1.513   8.174  20.018  0.00  0.00    +0.000 C 
ATOM     16  N   UNL     1       1.443   9.403  19.199  0.00  0.00    +0.000 NA
ATOM     17  C   UNL     1       0.232  10.171  19.470  0.00  0.00    +0.000 C 
ATOM     18  C   UNL     1       1.519   9.046  17.765  0.00  0.00    +0.000 C 
ATOM     19  C   UNL     1       2.732   8.148  17.421  0.00  0.00    +0.000 C 
ENDBRANCH  12  13
BRANCH   1  20
ATOM     20  C   UNL     1       5.320   6.694  16.652  0.00  0.00    +0.000 C 
ATOM     21  O   UNL     1       5.404   7.216  15.555  0.00  0.00    +0.000 OA
BRANCH  20  22
ATOM     22  O   UNL     1       6.054   7.019  17.748  0.00  0.00    +0.000 OA
BRANCH  22  24
ATOM     23  C   UNL     1       7.983   8.563  17.819  0.00  0.00    +0.000 C 
ATOM     24  C   UNL     1       7.468   7.163  17.516  0.00  0.00    +0.000 C 
ENDBRANCH  22  24
ENDBRANCH  20  22
ENDBRANCH   1  20
TORSDOF 4
ENDMDL
MODEL 4
REMARK VINA RESULT:      -6.6      7.079      9.533
REMARK  Name = 
REMARK  6 active torsions:
REMARK  status: ('A' for Active; 'I' for Inactive)
REMARK    1  A    between atoms: C_1  and  C_2
REMARK    2  A    between atoms: C_2  and  O_3
REMARK    3  A    between atoms: O_3  and  C_4
REMARK    4  A    between atoms: C_4  and  C_6
REMARK    5  A    between atoms: C_17  and  N_18
REMARK    6  A    between atoms: N_21  and  C_22
REMARK                            x       y       z     vdW  Elec       q    Type
REMARK                         _______ _______ _______ _____ _____    ______ ____
ROOT
ATOM      1  C   UNL     1      -0.779  11.497  20.443  0.00  0.00    +0.000 A 
ATOM      2  C   UNL     1      -1.979  12.182  20.586  0.00  0.00    +0.000 A 
ATOM      3  N   UNL     1      -2.973  12.167  19.682  0.00  0.00    +0.000 NA
ATOM      4  C   UNL     1      -2.790  11.455  18.572  0.00  0.00    +0.000 A 
ATOM      5  C   UNL     1      -3.779  11.579  17.607  0.00  0.00    +0.000 A 
ATOM      6  C   UNL     1      -3.692  10.906  16.401  0.00  0.00    +0.000 A 
ATOM      7  F   UNL     1      -4.623  11.104  15.460  0.00  0.00    +0.000 F 
ATOM      8  C   UNL     1      -2.655  10.025  16.186  0.00  0.00    +0.000 A 
ATOM      9  F   UNL     1      -2.557   9.358  15.028  0.00  0.00    +0.000 F 
ATOM     10  C   UNL     1      -1.688   9.836  17.168  0.00  0.00    +0.000 A 
ATOM     11  C   UNL     1      -1.658  10.616  18.355  0.00  0.00    +0.000 A 
ATOM     12  C   UNL     1      -0.591  10.627  19.338  0.00  0.00    +0.000 A 
ENDROOT
BRANCH  12  13
ATOM     13  N   UNL     1       0.511   9.761  19.213  0.00  0.00    +0.000 N 
ATOM     14  C   UNL     1       1.622  10.041  18.272  0.00  0.00    +0.000 C 
ATOM     15  C   UNL     1       2.129   8.679  17.718  0.00  0.00    +0.000 C 
ATOM     16  N   UNL     1       2.685   7.840  18.802  0.00  0.00    +0.000 NA
ATOM     17  C   UNL     1       3.169   6.557  18.305  0.00  0.00    +0.000 C 
ATOM     18  C   UNL     1       1.655   7.635  19.845  0.00  0.00    +0.000 C 
ATOM     19  C   UNL     1       1.026   8.955  20.352  0.00  0.00    +0.000 C 
ENDBRANCH  12  13
BRANCH   1  20
ATOM     20  C   UNL     1       0.301  11.931  21.352  0.00  0.00    +0.000 C 
ATOM     21  O   UNL     1       1.365  12.366  20.950  0.00  0.00    +0.000 OA
BRANCH  20  22
ATOM     22  O   UNL     1      -0.064  11.790  22.653  0.00  0.00    +0.000 OA
BRANCH  22  24
ATOM     23  C   UNL     1       0.009   9.476  23.517  0.00  0.00    +0.000 C 
ATOM     24  C   UNL     1      -0.833  10.609  22.948  0.00  0.00    +0.000 C 
ENDBRANCH  22  24
ENDBRANCH  20  22
ENDBRANCH   1  20
TORSDOF 4
ENDMDL
MODEL 5
REMARK VINA RESULT:      -6.5      3.775      6.545
REMARK  Name = 
REMARK  6 active torsions:
REMARK  status: ('A' for Active; 'I' for Inactive)
REMARK    1  A    between atoms: C_1  and  C_2
REMARK    2  A    between atoms: C_2  and  O_3
REMARK    3  A    between atoms: O_3  and  C_4
REMARK    4  A    between atoms: C_4  and  C_6
REMARK    5  A    between atoms: C_17  and  N_18
REMARK    6  A    between atoms: N_21  and  C_22
REMARK                            x       y       z     vdW  Elec       q    Type
REMARK                         _______ _______ _______ _____ _____    ______ ____
ROOT
ATOM      1  C   UNL     1       3.583   2.977  19.875  0.00  0.00    +0.000 A 
ATOM      2  C   UNL     1       2.550   2.997  20.803  0.00  0.00    +0.000 A 
ATOM      3  N   UNL     1       1.800   4.079  21.080  0.00  0.00    +0.000 NA
ATOM      4  C   UNL     1       2.076   5.206  20.427  0.00  0.00    +0.000 A 
ATOM      5  C   UNL     1       1.374   6.329  20.842  0.00  0.00    +0.000 A 
ATOM      6  C   UNL     1       1.586   7.563  20.256  0.00  0.00    +0.000 A 
ATOM      7  F   UNL     1       0.950   8.643  20.729  0.00  0.00    +0.000 F 
ATOM      8  C   UNL     1       2.440   7.670  19.180  0.00  0.00    +0.000 A 
ATOM      9  F   UNL     1       2.654   8.855  18.595  0.00  0.00    +0.000 F 
ATOM     10  C   UNL     1       3.104   6.543  18.706  0.00  0.00    +0.000 A 
ATOM     11  C   UNL     1       3.029   5.289  19.371  0.00  0.00    +0.000 A 
ATOM     12  C   UNL     1       3.829   4.117  19.068  0.00  0.00    +0.000 A 
ENDROOT
BRANCH  12  13
ATOM     13  N   UNL     1       4.728   4.121  17.986  0.00  0.00    +0.000 N 
ATOM     14  C   UNL     1       6.187   4.296  18.182  0.00  0.00    +0.000 C 
ATOM     15  C   UNL     1       6.736   5.102  16.970  0.00  0.00    +0.000 C 
ATOM     16  N   UNL     1       6.559   4.349  15.709  0.00  0.00    +0.000 NA
ATOM     17  C   UNL     1       7.069   5.086  14.558  0.00  0.00    +0.000 C 
ATOM     18  C   UNL     1       5.126   4.027  15.524  0.00  0.00    +0.000 C 
ATOM     19  C   UNL     1       4.492   3.327  16.750  0.00  0.00    +0.000 C 
ENDBRANCH  12  13
BRANCH   1  20
ATOM     20  C   UNL     1       4.499   1.824  19.986  0.00  0.00    +0.000 C 
ATOM     21  O   UNL     1       4.534   0.929  19.160  0.00  0.00    +0.000 OA
BRANCH  20  22
ATOM     22  O   UNL     1       5.275   1.914  21.097  0.00  0.00    +0.000 OA
BRANCH  22  24
ATOM     23  C   UNL     1       6.448   0.008  22.146  0.00  0.00    +0.000 C 
ATOM     24  C   UNL     1       5.160   0.810  22.014  0.00  0.00    +0.000 C 
ENDBRANCH  22  24
ENDBRANCH  20  22
ENDBRANCH   1  20
TORSDOF 4
ENDMDL
MODEL 6
REMARK VINA RESULT:      -6.4      7.316      9.732
REMARK  Name = 
REMARK  6 active torsions:
REMARK  status: ('A' for Active; 'I' for Inactive)
REMARK    1  A    between atoms: C_1  and  C_2
REMARK    2  A    between atoms: C_2  and  O_3
REMARK    3  A    between atoms: O_3  and  C_4
REMARK    4  A    between atoms: C_4  and  C_6
REMARK    5  A    between atoms: C_17  and  N_18
REMARK    6  A    between atoms: N_21  and  C_22
REMARK                            x       y       z     vdW  Elec       q    Type
REMARK                         _______ _______ _______ _____ _____    ______ ____
ROOT
ATOM      1  C   UNL     1      -0.955  11.582  20.480  0.00  0.00    +0.000 A 
ATOM      2  C   UNL     1      -2.154  12.279  20.562  0.00  0.00    +0.000 A 
ATOM      3  N   UNL     1      -3.118  12.242  19.625  0.00  0.00    +0.000 NA
ATOM      4  C   UNL     1      -2.902  11.495  18.545  0.00  0.00    +0.000 A 
ATOM      5  C   UNL     1      -3.858  11.596  17.543  0.00  0.00    +0.000 A 
ATOM      6  C   UNL     1      -3.735  10.887  16.362  0.00  0.00    +0.000 A 
ATOM      7  F   UNL     1      -4.633  11.062  15.384  0.00  0.00    +0.000 F 
ATOM      8  C   UNL     1      -2.698   9.993  16.208  0.00  0.00    +0.000 A 
ATOM      9  F   UNL     1      -2.566   9.291  15.075  0.00  0.00    +0.000 F 
ATOM     10  C   UNL     1      -1.766   9.828  17.227  0.00  0.00    +0.000 A 
ATOM     11  C   UNL     1      -1.769  10.644  18.391  0.00  0.00    +0.000 A 
ATOM     12  C   UNL     1      -0.736  10.678  19.409  0.00  0.00    +0.000 A 
ENDROOT
BRANCH  12  13
ATOM     13  N   UNL     1       0.363   9.802  19.347  0.00  0.00    +0.000 N 
ATOM     14  C   UNL     1       1.468  10.002  18.378  0.00  0.00    +0.000 C 
ATOM     15  C   UNL     1       1.968   8.598  17.933  0.00  0.00    +0.000 C 
ATOM     16  N   UNL     1       2.531   7.849  19.078  0.00  0.00    +0.000 NA
ATOM     17  C   UNL     1       3.009   6.529  18.684  0.00  0.00    +0.000 C 
ATOM     18  C   UNL     1       1.508   7.732  20.142  0.00  0.00    +0.000 C 
ATOM     19  C   UNL     1       0.885   9.091  20.544  0.00  0.00    +0.000 C 
ENDBRANCH  12  13
BRANCH   1  20
ATOM     20  C   UNL     1       0.097  12.037  21.412  0.00  0.00    +0.000 C 
ATOM     21  O   UNL     1       0.003  11.915  22.620  0.00  0.00    +0.000 OA
BRANCH  20  22
ATOM     22  O   UNL     1       1.147  12.580  20.743  0.00  0.00    +0.000 OA
BRANCH  22  24
ATOM     23  C   UNL     1       0.944  14.283  18.964  0.00  0.00    +0.000 C 
ATOM     24  C   UNL     1       1.027  13.986  20.454  0.00  0.00    +0.000 C 
ENDBRANCH  22  24
ENDBRANCH  20  22
ENDBRANCH   1  20
TORSDOF 4
ENDMDL
MODEL 7
REMARK VINA RESULT:      -6.2      1.071      1.370
REMARK  Name = 
REMARK  6 active torsions:
REMARK  status: ('A' for Active; 'I' for Inactive)
REMARK    1  A    between atoms: C_1  and  C_2
REMARK    2  A    between atoms: C_2  and  O_3
REMARK    3  A    between atoms: O_3  and  C_4
REMARK    4  A    between atoms: C_4  and  C_6
REMARK    5  A    between atoms: C_17  and  N_18
REMARK    6  A    between atoms: N_21  and  C_22
REMARK                            x       y       z     vdW  Elec       q    Type
REMARK                         _______ _______ _______ _____ _____    ______ ____
ROOT
ATOM      1  C   UNL     1       6.163   4.936  17.651  0.00  0.00    +0.000 A 
ATOM      2  C   UNL     1       7.339   5.512  17.188  0.00  0.00    +0.000 A 
ATOM      3  N   UNL     1       7.717   5.532  15.898  0.00  0.00    +0.000 NA
ATOM      4  C   UNL     1       6.914   4.952  15.009  0.00  0.00    +0.000 A 
ATOM      5  C   UNL     1       7.407   4.872  13.715  0.00  0.00    +0.000 A 
ATOM      6  C   UNL     1       6.676   4.272  12.705  0.00  0.00    +0.000 A 
ATOM      7  F   UNL     1       7.209   4.143  11.484  0.00  0.00    +0.000 F 
ATOM      8  C   UNL     1       5.398   3.827  12.962  0.00  0.00    +0.000 A 
ATOM      9  F   UNL     1       4.671   3.250  11.996  0.00  0.00    +0.000 F 
ATOM     10  C   UNL     1       4.859   3.957  14.238  0.00  0.00    +0.000 A 
ATOM     11  C   UNL     1       5.629   4.429  15.336  0.00  0.00    +0.000 A 
ATOM     12  C   UNL     1       5.220   4.419  16.727  0.00  0.00    +0.000 A 
ENDROOT
BRANCH  12  13
ATOM     13  N   UNL     1       3.932   3.987  17.094  0.00  0.00    +0.000 N 
ATOM     14  C   UNL     1       2.811   4.939  17.280  0.00  0.00    +0.000 C 
ATOM     15  C   UNL     1       1.917   4.401  18.433  0.00  0.00    +0.000 C 
ATOM     16  N   UNL     1       1.317   3.097  18.073  0.00  0.00    +0.000 NA
ATOM     17  C   UNL     1       0.471   2.573  19.140  0.00  0.00    +0.000 C 
ATOM     18  C   UNL     1       2.392   2.134  17.745  0.00  0.00    +0.000 C 
ATOM     19  C   UNL     1       3.387   2.665  16.685  0.00  0.00    +0.000 C 
ENDBRANCH  12  13
BRANCH   1  20
ATOM     20  C   UNL     1       6.115   4.701  19.109  0.00  0.00    +0.000 C 
ATOM     21  O   UNL     1       6.540   5.504  19.920  0.00  0.00    +0.000 OA
BRANCH  20  22
ATOM     22  O   UNL     1       5.536   3.506  19.397  0.00  0.00    +0.000 OA
BRANCH  22  24
ATOM     23  C   UNL     1       3.995   2.175  20.798  0.00  0.00    +0.000 C 
ATOM     24  C   UNL     1       4.506   3.553  20.402  0.00  0.00    +0.000 C 
ENDBRANCH  22  24
ENDBRANCH  20  22
ENDBRANCH   1  20
TORSDOF 4
ENDMDL
MODEL 8
REMARK VINA RESULT:      -6.2      3.627      6.268
REMARK  Name = 
REMARK  6 active torsions:
REMARK  status: ('A' for Active; 'I' for Inactive)
REMARK    1  A    between atoms: C_1  and  C_2
REMARK    2  A    between atoms: C_2  and  O_3
REMARK    3  A    between atoms: O_3  and  C_4
REMARK    4  A    between atoms: C_4  and  C_6
REMARK    5  A    between atoms: C_17  and  N_18
REMARK    6  A    between atoms: N_21  and  C_22
REMARK                            x       y       z     vdW  Elec       q    Type
REMARK                         _______ _______ _______ _____ _____    ______ ____
ROOT
ATOM      1  C   UNL     1       3.850   4.587  19.453  0.00  0.00    +0.000 A 
ATOM      2  C   UNL     1       3.043   4.680  20.580  0.00  0.00    +0.000 A 
ATOM      3  N   UNL     1       2.216   5.708  20.837  0.00  0.00    +0.000 NA
ATOM      4  C   UNL     1       2.177   6.706  19.957  0.00  0.00    +0.000 A 
ATOM      5  C   UNL     1       1.419   7.807  20.328  0.00  0.00    +0.000 A 
ATOM      6  C   UNL     1       1.318   8.917  19.508  0.00  0.00    +0.000 A 
ATOM      7  F   UNL     1       0.641   9.994  19.927  0.00  0.00    +0.000 F 
ATOM      8  C   UNL     1       1.901   8.898  18.261  0.00  0.00    +0.000 A 
ATOM      9  F   UNL     1       1.809   9.959  17.449  0.00  0.00    +0.000 F 
ATOM     10  C   UNL     1       2.611   7.777  17.842  0.00  0.00    +0.000 A 
ATOM     11  C   UNL     1       2.865   6.680  18.708  0.00  0.00    +0.000 A 
ATOM     12  C   UNL     1       3.749   5.563  18.430  0.00  0.00    +0.000 A 
ENDROOT
BRANCH  12  13
ATOM     13  N   UNL     1       4.390   5.448  17.183  0.00  0.00    +0.000 N 
ATOM     14  C   UNL     1       4.061   4.359  16.232  0.00  0.00    +0.000 C 
ATOM     15  C   UNL     1       5.371   3.964  15.492  0.00  0.00    +0.000 C 
ATOM     16  N   UNL     1       5.887   5.093  14.689  0.00  0.00    +0.000 NA
ATOM     17  C   UNL     1       7.115   4.745  13.984  0.00  0.00    +0.000 C 
ATOM     18  C   UNL     1       6.110   6.263  15.568  0.00  0.00    +0.000 C 
ATOM     19  C   UNL     1       4.873   6.632  16.422  0.00  0.00    +0.000 C 
ENDBRANCH  12  13
BRANCH   1  20
ATOM     20  C   UNL     1       4.930   3.583  19.540  0.00  0.00    +0.000 C 
ATOM     21  O   UNL     1       4.765   2.479  20.029  0.00  0.00    +0.000 OA
BRANCH  20  22
ATOM     22  O   UNL     1       6.086   4.053  19.003  0.00  0.00    +0.000 OA
BRANCH  22  24
ATOM     23  C   UNL     1       7.754   5.871  18.865  0.00  0.00    +0.000 C 
ATOM     24  C   UNL     1       6.641   5.207  19.663  0.00  0.00    +0.000 C 
ENDBRANCH  22  24
ENDBRANCH  20  22
ENDBRANCH   1  20
TORSDOF 4
ENDMDL
MODEL 9
REMARK VINA RESULT:      -6.2      2.881      4.852
REMARK  Name = 
REMARK  6 active torsions:
REMARK  status: ('A' for Active; 'I' for Inactive)
REMARK    1  A    between atoms: C_1  and  C_2
REMARK    2  A    between atoms: C_2  and  O_3
REMARK    3  A    between atoms: O_3  and  C_4
REMARK    4  A    between atoms: C_4  and  C_6
REMARK    5  A    between atoms: C_17  and  N_18
REMARK    6  A    between atoms: N_21  and  C_22
REMARK                            x       y       z     vdW  Elec       q    Type
REMARK                         _______ _______ _______ _____ _____    ______ ____
ROOT
ATOM      1  C   UNL     1       2.538   4.024  18.333  0.00  0.00    +0.000 A 
ATOM      2  C   UNL     1       3.207   2.901  17.863  0.00  0.00    +0.000 A 
ATOM      3  N   UNL     1       4.412   2.930  17.267  0.00  0.00    +0.000 NA
ATOM      4  C   UNL     1       4.996   4.116  17.110  0.00  0.00    +0.000 A 
ATOM      5  C   UNL     1       6.169   4.116  16.368  0.00  0.00    +0.000 A 
ATOM      6  C   UNL     1       6.857   5.289  16.117  0.00  0.00    +0.000 A 
ATOM      7  F   UNL     1       7.944   5.268  15.335  0.00  0.00    +0.000 F 
ATOM      8  C   UNL     1       6.428   6.467  16.687  0.00  0.00    +0.000 A 
ATOM      9  F   UNL     1       7.085   7.613  16.461  0.00  0.00    +0.000 F 
ATOM     10  C   UNL     1       5.291   6.478  17.488  0.00  0.00    +0.000 A 
ATOM     11  C   UNL     1       4.472   5.328  17.649  0.00  0.00    +0.000 A 
ATOM     12  C   UNL     1       3.176   5.290  18.300  0.00  0.00    +0.000 A 
ENDROOT
BRANCH  12  13
ATOM     13  N   UNL     1       2.649   6.439  18.918  0.00  0.00    +0.000 N 
ATOM     14  C   UNL     1       2.653   6.607  20.391  0.00  0.00    +0.000 C 
ATOM     15  C   UNL     1       1.360   7.376  20.785  0.00  0.00    +0.000 C 
ATOM     16  N   UNL     1       1.351   8.733  20.198  0.00  0.00    +0.000 NA
ATOM     17  C   UNL     1       0.147   9.475  20.556  0.00  0.00    +0.000 C 
ATOM     18  C   UNL     1       1.480   8.636  18.727  0.00  0.00    +0.000 C 
ATOM     19  C   UNL     1       2.687   7.779  18.273  0.00  0.00    +0.000 C 
ENDBRANCH  12  13
BRANCH   1  20
ATOM     20  C   UNL     1       1.102   3.824  18.613  0.00  0.00    +0.000 C 
ATOM     21  O   UNL     1       0.294   3.546  17.744  0.00  0.00    +0.000 OA
BRANCH  20  22
ATOM     22  O   UNL     1       0.830   3.977  19.935  0.00  0.00    +0.000 OA
BRANCH  22  24
ATOM     23  C   UNL     1       2.241   3.098  21.764  0.00  0.00    +0.000 C 
ATOM     24  C   UNL     1       1.130   2.834  20.757  0.00  0.00    +0.000 C 
ENDBRANCH  22  24
ENDBRANCH  20  22
ENDBRANCH   1  20
TORSDOF 4
ENDMDL
