MODEL 1
REMARK VINA RESULT:      -7.0      0.000      0.000
REMARK  Name = 
REMARK  10 active torsions:
REMARK  status: ('A' for Active; 'I' for Inactive)
REMARK    1  A    between atoms: C_1  and  O_2
REMARK    2  A    between atoms: O_2  and  C_3
REMARK    3  A    between atoms: C_8  and  C_9
REMARK    4  A    between atoms: C_9  and  N_10
REMARK    5  A    between atoms: N_10  and  C_11
REMARK    6  A    between atoms: C_11  and  C_12
REMARK    7  A    between atoms: N_14  and  C_15
REMARK    8  A    between atoms: C_18  and  N_19
REMARK    9  A    between atoms: N_19  and  C_20
REMARK   10  A    between atoms: N_19  and  C_21
REMARK                            x       y       z     vdW  Elec       q    Type
REMARK                         _______ _______ _______ _____ _____    ______ ____
ROOT
ATOM      1  C   UNL     1       4.289   5.555  18.157  0.00  0.00    +0.000 C 
ATOM      2  O   UNL     1       5.019   5.682  19.138  0.00  0.00    +0.000 OA
ATOM      3  N   UNL     1       3.069   6.181  17.947  0.00  0.00    +0.000 N 
ATOM      4  H   UNL     1       2.521   5.869  17.157  0.00  0.00    +0.000 HD
ENDROOT
BRANCH   3   5
ATOM      5  C   UNL     1       2.428   7.077  18.828  0.00  0.00    +0.000 A 
ATOM      6  C   UNL     1       2.077   6.753  20.132  0.00  0.00    +0.000 A 
ATOM      7  C   UNL     1       1.375   7.669  20.930  0.00  0.00    +0.000 A 
ATOM      8  C   UNL     1       0.999   8.941  20.473  0.00  0.00    +0.000 A 
ATOM      9  C   UNL     1       1.399   9.256  19.166  0.00  0.00    +0.000 A 
ATOM     10  C   UNL     1       2.107   8.348  18.356  0.00  0.00    +0.000 A 
BRANCH   8  11
ATOM     11  N   UNL     1       0.241   9.794  21.258  0.00  0.00    +0.000 N 
ATOM     12  C   UNL     1       0.133   9.607  22.703  0.00  0.00    +0.000 C 
ATOM     13  C   UNL     1      -0.244  11.080  20.771  0.00  0.00    +0.000 C 
ENDBRANCH   8  11
ENDBRANCH   3   5
BRANCH   1  14
ATOM     14  C   UNL     1       4.653   4.560  17.050  0.00  0.00    +0.000 C 
BRANCH  14  15
ATOM     15  N   UNL     1       4.889   3.217  17.602  0.00  0.00    +0.000 NA
ATOM     16  H   UNL     1       5.237   3.329  18.559  0.00  0.00    +0.000 HD
BRANCH  15  17
ATOM     17  C   UNL     1       3.667   2.399  17.668  0.00  0.00    +0.000 C 
BRANCH  17  23
ATOM     18  C   UNL     1       3.488   2.577  20.209  0.00  0.00    +0.000 A 
ATOM     19  C   UNL     1       2.713   2.789  21.361  0.00  0.00    +0.000 A 
ATOM     20  C   UNL     1       1.354   3.096  21.269  0.00  0.00    +0.000 A 
ATOM     21  C   UNL     1       0.756   3.204  20.021  0.00  0.00    +0.000 A 
ATOM     22  C   UNL     1       1.507   2.973  18.867  0.00  0.00    +0.000 A 
ATOM     23  C   UNL     1       2.871   2.630  18.939  0.00  0.00    +0.000 A 
BRANCH  18  25
ATOM     24  C   UNL     1       5.209   1.164  21.018  0.00  0.00    +0.000 C 
ATOM     25  O   UNL     1       4.826   2.298  20.242  0.00  0.00    +0.000 OA
ENDBRANCH  18  25
ENDBRANCH  17  23
ENDBRANCH  15  17
ENDBRANCH  14  15
ENDBRANCH   1  14
TORSDOF 7
ENDMDL
MODEL 2
REMARK VINA RESULT:      -6.9      0.225      1.017
REMARK  Name = 
REMARK  10 active torsions:
REMARK  status: ('A' for Active; 'I' for Inactive)
REMARK    1  A    between atoms: C_1  and  O_2
REMARK    2  A    between atoms: O_2  and  C_3
REMARK    3  A    between atoms: C_8  and  C_9
REMARK    4  A    between atoms: C_9  and  N_10
REMARK    5  A    between atoms: N_10  and  C_11
REMARK    6  A    between atoms: C_11  and  C_12
REMARK    7  A    between atoms: N_14  and  C_15
REMARK    8  A    between atoms: C_18  and  N_19
REMARK    9  A    between atoms: N_19  and  C_20
REMARK   10  A    between atoms: N_19  and  C_21
REMARK                            x       y       z     vdW  Elec       q    Type
REMARK                         _______ _______ _______ _____ _____    ______ ____
ROOT
ATOM      1  C   UNL     1       4.348   5.603  18.124  0.00  0.00    +0.000 C 
ATOM      2  O   UNL     1       5.002   5.734  19.156  0.00  0.00    +0.000 OA
ATOM      3  N   UNL     1       3.147   6.228  17.820  0.00  0.00    +0.000 N 
ATOM      4  H   UNL     1       2.661   5.912  16.991  0.00  0.00    +0.000 HD
ENDROOT
BRANCH   3   5
ATOM      5  C   UNL     1       2.442   7.126  18.646  0.00  0.00    +0.000 A 
ATOM      6  C   UNL     1       2.053   8.397  18.243  0.00  0.00    +0.000 A 
ATOM      7  C   UNL     1       1.418   9.267  19.142  0.00  0.00    +0.000 A 
ATOM      8  C   UNL     1       1.135   8.913  20.470  0.00  0.00    +0.000 A 
ATOM      9  C   UNL     1       1.504   7.611  20.839  0.00  0.00    +0.000 A 
ATOM     10  C   UNL     1       2.138   6.727  19.947  0.00  0.00    +0.000 A 
BRANCH   8  11
ATOM     11  N   UNL     1       0.574   9.820  21.354  0.00  0.00    +0.000 N 
ATOM     12  C   UNL     1       0.294   9.459  22.742  0.00  0.00    +0.000 C 
ATOM     13  C   UNL     1       0.505  11.249  21.070  0.00  0.00    +0.000 C 
ENDBRANCH   8  11
ENDBRANCH   3   5
BRANCH   1  14
ATOM     14  C   UNL     1       4.795   4.605  17.051  0.00  0.00    +0.000 C 
BRANCH  14  15
ATOM     15  N   UNL     1       4.919   3.248  17.609  0.00  0.00    +0.000 NA
ATOM     16  H   UNL     1       5.235   3.338  18.579  0.00  0.00    +0.000 HD
BRANCH  15  17
ATOM     17  C   UNL     1       3.643   2.513  17.624  0.00  0.00    +0.000 C 
BRANCH  17  23
ATOM     18  C   UNL     1       3.493   2.531  20.174  0.00  0.00    +0.000 A 
ATOM     19  C   UNL     1       2.739   2.706  21.345  0.00  0.00    +0.000 A 
ATOM     20  C   UNL     1       1.398   3.089  21.289  0.00  0.00    +0.000 A 
ATOM     21  C   UNL     1       0.797   3.313  20.057  0.00  0.00    +0.000 A 
ATOM     22  C   UNL     1       1.526   3.120  18.882  0.00  0.00    +0.000 A 
ATOM     23  C   UNL     1       2.870   2.701  18.916  0.00  0.00    +0.000 A 
BRANCH  18  25
ATOM     24  C   UNL     1       5.208   1.228  21.159  0.00  0.00    +0.000 C 
ATOM     25  O   UNL     1       4.814   2.180  20.173  0.00  0.00    +0.000 OA
ENDBRANCH  18  25
ENDBRANCH  17  23
ENDBRANCH  15  17
ENDBRANCH  14  15
ENDBRANCH   1  14
TORSDOF 7
ENDMDL
MODEL 3
REMARK VINA RESULT:      -6.7      1.974      3.724
REMARK  Name = 
REMARK  10 active torsions:
REMARK  status: ('A' for Active; 'I' for Inactive)
REMARK    1  A    between atoms: C_1  and  O_2
REMARK    2  A    between atoms: O_2  and  C_3
REMARK    3  A    between atoms: C_8  and  C_9
REMARK    4  A    between atoms: C_9  and  N_10
REMARK    5  A    between atoms: N_10  and  C_11
REMARK    6  A    between atoms: C_11  and  C_12
REMARK    7  A    between atoms: N_14  and  C_15
REMARK    8  A    between atoms: C_18  and  N_19
REMARK    9  A    between atoms: N_19  and  C_20
REMARK   10  A    between atoms: N_19  and  C_21
REMARK                            x       y       z     vdW  Elec       q    Type
REMARK                         _______ _______ _______ _____ _____    ______ ____
ROOT
ATOM      1  C   UNL     1       1.804   4.478  20.569  0.00  0.00    +0.000 C 
ATOM      2  O   UNL     1       0.623   4.353  20.251  0.00  0.00    +0.000 OA
ATOM      3  N   UNL     1       2.562   5.637  20.494  0.00  0.00    +0.000 N 
ATOM      4  H   UNL     1       3.556   5.549  20.660  0.00  0.00    +0.000 HD
ENDROOT
BRANCH   3   5
ATOM      5  C   UNL     1       2.123   6.893  20.026  0.00  0.00    +0.000 A 
ATOM      6  C   UNL     1       2.393   7.376  18.753  0.00  0.00    +0.000 A 
ATOM      7  C   UNL     1       1.988   8.666  18.378  0.00  0.00    +0.000 A 
ATOM      8  C   UNL     1       1.295   9.526  19.244  0.00  0.00    +0.000 A 
ATOM      9  C   UNL     1       1.002   8.999  20.511  0.00  0.00    +0.000 A 
ATOM     10  C   UNL     1       1.399   7.705  20.898  0.00  0.00    +0.000 A 
BRANCH   8  11
ATOM     11  N   UNL     1       0.974  10.820  18.872  0.00  0.00    +0.000 N 
ATOM     12  C   UNL     1       1.994  11.751  18.394  0.00  0.00    +0.000 C 
ATOM     13  C   UNL     1      -0.400  11.250  18.642  0.00  0.00    +0.000 C 
ENDBRANCH   8  11
ENDBRANCH   3   5
BRANCH   1  14
ATOM     14  C   UNL     1       2.612   3.259  21.024  0.00  0.00    +0.000 C 
BRANCH  14  15
ATOM     15  N   UNL     1       3.225   2.571  19.877  0.00  0.00    +0.000 NA
ATOM     16  H   UNL     1       2.709   2.846  19.036  0.00  0.00    +0.000 HD
BRANCH  15  17
ATOM     17  C   UNL     1       4.636   2.939  19.673  0.00  0.00    +0.000 C 
BRANCH  17  23
ATOM     18  C   UNL     1       5.717   4.947  18.522  0.00  0.00    +0.000 A 
ATOM     19  C   UNL     1       5.872   5.758  17.386  0.00  0.00    +0.000 A 
ATOM     20  C   UNL     1       5.211   5.461  16.193  0.00  0.00    +0.000 A 
ATOM     21  C   UNL     1       4.394   4.341  16.118  0.00  0.00    +0.000 A 
ATOM     22  C   UNL     1       4.211   3.538  17.245  0.00  0.00    +0.000 A 
ATOM     23  C   UNL     1       4.842   3.839  18.468  0.00  0.00    +0.000 A 
BRANCH  18  25
ATOM     24  C   UNL     1       7.686   5.691  19.608  0.00  0.00    +0.000 C 
ATOM     25  O   UNL     1       6.359   5.178  19.706  0.00  0.00    +0.000 OA
ENDBRANCH  18  25
ENDBRANCH  17  23
ENDBRANCH  15  17
ENDBRANCH  14  15
ENDBRANCH   1  14
TORSDOF 7
ENDMDL
MODEL 4
REMARK VINA RESULT:      -6.4      2.400      4.263
REMARK  Name = 
REMARK  10 active torsions:
REMARK  status: ('A' for Active; 'I' for Inactive)
REMARK    1  A    between atoms: C_1  and  O_2
REMARK    2  A    between atoms: O_2  and  C_3
REMARK    3  A    between atoms: C_8  and  C_9
REMARK    4  A    between atoms: C_9  and  N_10
REMARK    5  A    between atoms: N_10  and  C_11
REMARK    6  A    between atoms: C_11  and  C_12
REMARK    7  A    between atoms: N_14  and  C_15
REMARK    8  A    between atoms: C_18  and  N_19
REMARK    9  A    between atoms: N_19  and  C_20
REMARK   10  A    between atoms: N_19  and  C_21
REMARK                            x       y       z     vdW  Elec       q    Type
REMARK                         _______ _______ _______ _____ _____    ______ ____
ROOT
ATOM      1  C   UNL     1       2.138   4.198  17.795  0.00  0.00    +0.000 C 
ATOM      2  O   UNL     1       0.974   4.319  17.418  0.00  0.00    +0.000 OA
ATOM      3  N   UNL     1       2.881   5.135  18.497  0.00  0.00    +0.000 N 
ATOM      4  H   UNL     1       3.868   4.946  18.614  0.00  0.00    +0.000 HD
ENDROOT
BRANCH   3   5
ATOM      5  C   UNL     1       2.445   6.412  18.904  0.00  0.00    +0.000 A 
ATOM      6  C   UNL     1       2.006   6.701  20.189  0.00  0.00    +0.000 A 
ATOM      7  C   UNL     1       1.515   7.977  20.506  0.00  0.00    +0.000 A 
ATOM      8  C   UNL     1       1.446   9.018  19.568  0.00  0.00    +0.000 A 
ATOM      9  C   UNL     1       1.931   8.710  18.288  0.00  0.00    +0.000 A 
ATOM     10  C   UNL     1       2.429   7.436  17.958  0.00  0.00    +0.000 A 
BRANCH   8  11
ATOM     11  N   UNL     1       0.888  10.243  19.890  0.00  0.00    +0.000 N 
ATOM     12  C   UNL     1       0.218  11.065  18.885  0.00  0.00    +0.000 C 
ATOM     13  C   UNL     1       0.659  10.660  21.270  0.00  0.00    +0.000 C 
ENDBRANCH   8  11
ENDBRANCH   3   5
BRANCH   1  14
ATOM     14  C   UNL     1       2.943   2.950  17.418  0.00  0.00    +0.000 C 
BRANCH  14  15
ATOM     15  N   UNL     1       4.350   3.083  17.830  0.00  0.00    +0.000 NA
ATOM     16  H   UNL     1       4.707   2.143  18.026  0.00  0.00    +0.000 HD
BRANCH  15  17
ATOM     17  C   UNL     1       5.202   3.672  16.784  0.00  0.00    +0.000 C 
BRANCH  17  23
ATOM     18  C   UNL     1       6.602   5.787  16.479  0.00  0.00    +0.000 A 
ATOM     19  C   UNL     1       7.461   6.762  17.011  0.00  0.00    +0.000 A 
ATOM     20  C   UNL     1       7.816   6.752  18.361  0.00  0.00    +0.000 A 
ATOM     21  C   UNL     1       7.306   5.771  19.199  0.00  0.00    +0.000 A 
ATOM     22  C   UNL     1       6.469   4.780  18.682  0.00  0.00    +0.000 A 
ATOM     23  C   UNL     1       6.126   4.753  17.316  0.00  0.00    +0.000 A 
BRANCH  18  25
ATOM     24  C   UNL     1       7.008   4.987  14.287  0.00  0.00    +0.000 C 
ATOM     25  O   UNL     1       6.204   5.765  15.172  0.00  0.00    +0.000 OA
ENDBRANCH  18  25
ENDBRANCH  17  23
ENDBRANCH  15  17
ENDBRANCH  14  15
ENDBRANCH   1  14
TORSDOF 7
ENDMDL
MODEL 5
REMARK VINA RESULT:      -6.4      1.257      2.182
REMARK  Name = 
REMARK  10 active torsions:
REMARK  status: ('A' for Active; 'I' for Inactive)
REMARK    1  A    between atoms: C_1  and  O_2
REMARK    2  A    between atoms: O_2  and  C_3
REMARK    3  A    between atoms: C_8  and  C_9
REMARK    4  A    between atoms: C_9  and  N_10
REMARK    5  A    between atoms: N_10  and  C_11
REMARK    6  A    between atoms: C_11  and  C_12
REMARK    7  A    between atoms: N_14  and  C_15
REMARK    8  A    between atoms: C_18  and  N_19
REMARK    9  A    between atoms: N_19  and  C_20
REMARK   10  A    between atoms: N_19  and  C_21
REMARK                            x       y       z     vdW  Elec       q    Type
REMARK                         _______ _______ _______ _____ _____    ______ ____
ROOT
ATOM      1  C   UNL     1       4.905   5.268  18.524  0.00  0.00    +0.000 C 
ATOM      2  O   UNL     1       5.413   5.537  19.611  0.00  0.00    +0.000 OA
ATOM      3  N   UNL     1       3.788   5.867  17.962  0.00  0.00    +0.000 N 
ATOM      4  H   UNL     1       3.409   5.442  17.125  0.00  0.00    +0.000 HD
ENDROOT
BRANCH   3   5
ATOM      5  C   UNL     1       3.012   6.894  18.538  0.00  0.00    +0.000 A 
ATOM      6  C   UNL     1       2.416   6.797  19.788  0.00  0.00    +0.000 A 
ATOM      7  C   UNL     1       1.596   7.829  20.269  0.00  0.00    +0.000 A 
ATOM      8  C   UNL     1       1.340   8.998  19.538  0.00  0.00    +0.000 A 
ATOM      9  C   UNL     1       1.985   9.087  18.295  0.00  0.00    +0.000 A 
ATOM     10  C   UNL     1       2.813   8.061  17.802  0.00  0.00    +0.000 A 
BRANCH   8  11
ATOM     11  N   UNL     1       0.467   9.965  20.007  0.00  0.00    +0.000 N 
ATOM     12  C   UNL     1      -0.139  10.947  19.110  0.00  0.00    +0.000 C 
ATOM     13  C   UNL     1      -0.138   9.896  21.333  0.00  0.00    +0.000 C 
ENDBRANCH   8  11
ENDBRANCH   3   5
BRANCH   1  14
ATOM     14  C   UNL     1       5.455   4.111  17.684  0.00  0.00    +0.000 C 
BRANCH  14  15
ATOM     15  N   UNL     1       4.385   3.173  17.309  0.00  0.00    +0.000 NA
ATOM     16  H   UNL     1       4.665   2.712  16.438  0.00  0.00    +0.000 HD
BRANCH  15  17
ATOM     17  C   UNL     1       4.163   2.122  18.315  0.00  0.00    +0.000 C 
BRANCH  17  23
ATOM     18  C   UNL     1       1.846   2.949  19.004  0.00  0.00    +0.000 A 
ATOM     19  C   UNL     1       0.936   3.315  20.009  0.00  0.00    +0.000 A 
ATOM     20  C   UNL     1       1.276   3.217  21.360  0.00  0.00    +0.000 A 
ATOM     21  C   UNL     1       2.528   2.740  21.722  0.00  0.00    +0.000 A 
ATOM     22  C   UNL     1       3.453   2.395  20.735  0.00  0.00    +0.000 A 
ATOM     23  C   UNL     1       3.143   2.519  19.367  0.00  0.00    +0.000 A 
BRANCH  18  25
ATOM     24  C   UNL     1       0.990   4.226  17.202  0.00  0.00    +0.000 C 
ATOM     25  O   UNL     1       1.557   3.004  17.669  0.00  0.00    +0.000 OA
ENDBRANCH  18  25
ENDBRANCH  17  23
ENDBRANCH  15  17
ENDBRANCH  14  15
ENDBRANCH   1  14
TORSDOF 7
ENDMDL
MODEL 6
REMARK VINA RESULT:      -6.4      1.977      4.020
REMARK  Name = 
REMARK  10 active torsions:
REMARK  status: ('A' for Active; 'I' for Inactive)
REMARK    1  A    between atoms: C_1  and  O_2
REMARK    2  A    between atoms: O_2  and  C_3
REMARK    3  A    between atoms: C_8  and  C_9
REMARK    4  A    between atoms: C_9  and  N_10
REMARK    5  A    between atoms: N_10  and  C_11
REMARK    6  A    between atoms: C_11  and  C_12
REMARK    7  A    between atoms: N_14  and  C_15
REMARK    8  A    between atoms: C_18  and  N_19
REMARK    9  A    between atoms: N_19  and  C_20
REMARK   10  A    between atoms: N_19  and  C_21
REMARK                            x       y       z     vdW  Elec       q    Type
REMARK                         _______ _______ _______ _____ _____    ______ ____
ROOT
ATOM      1  C   UNL     1       2.535   4.930  19.853  0.00  0.00    +0.000 C 
ATOM      2  O   UNL     1       1.344   4.628  19.793  0.00  0.00    +0.000 OA
ATOM      3  N   UNL     1       3.070   6.206  19.749  0.00  0.00    +0.000 N 
ATOM      4  H   UNL     1       4.076   6.278  19.678  0.00  0.00    +0.000 HD
ENDROOT
BRANCH   3   5
ATOM      5  C   UNL     1       2.348   7.399  19.544  0.00  0.00    +0.000 A 
ATOM      6  C   UNL     1       1.634   8.047  20.544  0.00  0.00    +0.000 A 
ATOM      7  C   UNL     1       0.877   9.192  20.253  0.00  0.00    +0.000 A 
ATOM      8  C   UNL     1       0.803   9.746  18.966  0.00  0.00    +0.000 A 
ATOM      9  C   UNL     1       1.564   9.095  17.983  0.00  0.00    +0.000 A 
ATOM     10  C   UNL     1       2.330   7.947  18.263  0.00  0.00    +0.000 A 
BRANCH   8  11
ATOM     11  N   UNL     1      -0.012  10.832  18.694  0.00  0.00    +0.000 N 
ATOM     12  C   UNL     1      -1.400  10.660  18.274  0.00  0.00    +0.000 C 
ATOM     13  C   UNL     1       0.342  12.192  19.087  0.00  0.00    +0.000 C 
ENDBRANCH   8  11
ENDBRANCH   3   5
BRANCH   1  14
ATOM     14  C   UNL     1       3.602   3.837  19.968  0.00  0.00    +0.000 C 
BRANCH  14  15
ATOM     15  N   UNL     1       3.915   3.261  18.651  0.00  0.00    +0.000 NA
ATOM     16  H   UNL     1       3.331   2.428  18.528  0.00  0.00    +0.000 HD
BRANCH  15  17
ATOM     17  C   UNL     1       3.622   4.178  17.537  0.00  0.00    +0.000 C 
BRANCH  17  23
ATOM     18  C   UNL     1       5.900   5.267  17.155  0.00  0.00    +0.000 A 
ATOM     19  C   UNL     1       7.003   5.517  16.322  0.00  0.00    +0.000 A 
ATOM     20  C   UNL     1       7.088   4.951  15.049  0.00  0.00    +0.000 A 
ATOM     21  C   UNL     1       6.072   4.120  14.596  0.00  0.00    +0.000 A 
ATOM     22  C   UNL     1       4.958   3.880  15.402  0.00  0.00    +0.000 A 
ATOM     23  C   UNL     1       4.838   4.468  16.676  0.00  0.00    +0.000 A 
BRANCH  18  25
ATOM     24  C   UNL     1       6.905   5.593  19.275  0.00  0.00    +0.000 C 
ATOM     25  O   UNL     1       5.780   5.775  18.418  0.00  0.00    +0.000 OA
ENDBRANCH  18  25
ENDBRANCH  17  23
ENDBRANCH  15  17
ENDBRANCH  14  15
ENDBRANCH   1  14
TORSDOF 7
ENDMDL
MODEL 7
REMARK VINA RESULT:      -6.4      3.321      4.803
REMARK  Name = 
REMARK  10 active torsions:
REMARK  status: ('A' for Active; 'I' for Inactive)
REMARK    1  A    between atoms: C_1  and  O_2
REMARK    2  A    between atoms: O_2  and  C_3
REMARK    3  A    between atoms: C_8  and  C_9
REMARK    4  A    between atoms: C_9  and  N_10
REMARK    5  A    between atoms: N_10  and  C_11
REMARK    6  A    between atoms: C_11  and  C_12
REMARK    7  A    between atoms: N_14  and  C_15
REMARK    8  A    between atoms: C_18  and  N_19
REMARK    9  A    between atoms: N_19  and  C_20
REMARK   10  A    between atoms: N_19  and  C_21
REMARK                            x       y       z     vdW  Elec       q    Type
REMARK                         _______ _______ _______ _____ _____    ______ ____
ROOT
ATOM      1  C   UNL     1       1.091   9.397  18.707  0.00  0.00    +0.000 C 
ATOM      2  O   UNL     1       0.846   9.287  19.907  0.00  0.00    +0.000 OA
ATOM      3  N   UNL     1       0.264   9.950  17.741  0.00  0.00    +0.000 N 
ATOM      4  H   UNL     1       0.547   9.843  16.776  0.00  0.00    +0.000 HD
ENDROOT
BRANCH   3   5
ATOM      5  C   UNL     1      -1.025  10.481  17.951  0.00  0.00    +0.000 A 
ATOM      6  C   UNL     1      -1.286  11.558  18.788  0.00  0.00    +0.000 A 
ATOM      7  C   UNL     1      -2.603  11.989  19.008  0.00  0.00    +0.000 A 
ATOM      8  C   UNL     1      -3.712  11.378  18.405  0.00  0.00    +0.000 A 
ATOM      9  C   UNL     1      -3.418  10.316  17.535  0.00  0.00    +0.000 A 
ATOM     10  C   UNL     1      -2.101   9.877  17.302  0.00  0.00    +0.000 A 
BRANCH   8  11
ATOM     11  N   UNL     1      -5.005  11.777  18.699  0.00  0.00    +0.000 N 
ATOM     12  C   UNL     1      -6.164  11.094  18.129  0.00  0.00    +0.000 C 
ATOM     13  C   UNL     1      -5.312  12.681  19.802  0.00  0.00    +0.000 C 
ENDBRANCH   8  11
ENDBRANCH   3   5
BRANCH   1  14
ATOM     14  C   UNL     1       2.386   8.816  18.130  0.00  0.00    +0.000 C 
BRANCH  14  15
ATOM     15  N   UNL     1       2.288   7.356  17.975  0.00  0.00    +0.000 NA
ATOM     16  H   UNL     1       2.844   7.092  17.156  0.00  0.00    +0.000 HD
BRANCH  15  17
ATOM     17  C   UNL     1       2.824   6.618  19.131  0.00  0.00    +0.000 C 
BRANCH  17  23
ATOM     18  C   UNL     1       2.505   4.233  18.274  0.00  0.00    +0.000 A 
ATOM     19  C   UNL     1       1.947   2.953  18.424  0.00  0.00    +0.000 A 
ATOM     20  C   UNL     1       1.184   2.625  19.546  0.00  0.00    +0.000 A 
ATOM     21  C   UNL     1       0.978   3.573  20.539  0.00  0.00    +0.000 A 
ATOM     22  C   UNL     1       1.506   4.858  20.395  0.00  0.00    +0.000 A 
ATOM     23  C   UNL     1       2.250   5.219  19.255  0.00  0.00    +0.000 A 
BRANCH  18  25
ATOM     24  C   UNL     1       4.516   3.904  17.068  0.00  0.00    +0.000 C 
ATOM     25  O   UNL     1       3.278   4.598  17.208  0.00  0.00    +0.000 OA
ENDBRANCH  18  25
ENDBRANCH  17  23
ENDBRANCH  15  17
ENDBRANCH  14  15
ENDBRANCH   1  14
TORSDOF 7
ENDMDL
MODEL 8
REMARK VINA RESULT:      -6.3      1.871      4.048
REMARK  Name = 
REMARK  10 active torsions:
REMARK  status: ('A' for Active; 'I' for Inactive)
REMARK    1  A    between atoms: C_1  and  O_2
REMARK    2  A    between atoms: O_2  and  C_3
REMARK    3  A    between atoms: C_8  and  C_9
REMARK    4  A    between atoms: C_9  and  N_10
REMARK    5  A    between atoms: N_10  and  C_11
REMARK    6  A    between atoms: C_11  and  C_12
REMARK    7  A    between atoms: N_14  and  C_15
REMARK    8  A    between atoms: C_18  and  N_19
REMARK    9  A    between atoms: N_19  and  C_20
REMARK   10  A    between atoms: N_19  and  C_21
REMARK                            x       y       z     vdW  Elec       q    Type
REMARK                         _______ _______ _______ _____ _____    ______ ____
ROOT
ATOM      1  C   UNL     1       2.317   4.002  19.216  0.00  0.00    +0.000 C 
ATOM      2  O   UNL     1       1.212   3.908  18.685  0.00  0.00    +0.000 OA
ATOM      3  N   UNL     1       2.925   5.167  19.661  0.00  0.00    +0.000 N 
ATOM      4  H   UNL     1       3.892   5.101  19.949  0.00  0.00    +0.000 HD
ENDROOT
BRANCH   3   5
ATOM      5  C   UNL     1       2.392   6.470  19.579  0.00  0.00    +0.000 A 
ATOM      6  C   UNL     1       2.478   7.264  18.444  0.00  0.00    +0.000 A 
ATOM      7  C   UNL     1       1.991   8.580  18.455  0.00  0.00    +0.000 A 
ATOM      8  C   UNL     1       1.394   9.159  19.585  0.00  0.00    +0.000 A 
ATOM      9  C   UNL     1       1.286   8.322  20.706  0.00  0.00    +0.000 A 
ATOM     10  C   UNL     1       1.767   6.999  20.707  0.00  0.00    +0.000 A 
BRANCH   8  11
ATOM     11  N   UNL     1       0.991  10.484  19.589  0.00  0.00    +0.000 N 
ATOM     12  C   UNL     1       0.298  11.067  20.735  0.00  0.00    +0.000 C 
ATOM     13  C   UNL     1       1.478  11.452  18.613  0.00  0.00    +0.000 C 
ENDBRANCH   8  11
ENDBRANCH   3   5
BRANCH   1  14
ATOM     14  C   UNL     1       3.209   2.765  19.360  0.00  0.00    +0.000 C 
BRANCH  14  15
ATOM     15  N   UNL     1       4.223   2.715  18.295  0.00  0.00    +0.000 NA
ATOM     16  H   UNL     1       4.331   1.736  18.013  0.00  0.00    +0.000 HD
BRANCH  15  17
ATOM     17  C   UNL     1       3.838   3.482  17.098  0.00  0.00    +0.000 C 
BRANCH  17  23
ATOM     18  C   UNL     1       5.830   5.081  17.077  0.00  0.00    +0.000 A 
ATOM     19  C   UNL     1       6.912   5.664  16.399  0.00  0.00    +0.000 A 
ATOM     20  C   UNL     1       7.232   5.288  15.093  0.00  0.00    +0.000 A 
ATOM     21  C   UNL     1       6.477   4.316  14.452  0.00  0.00    +0.000 A 
ATOM     22  C   UNL     1       5.383   3.743  15.103  0.00  0.00    +0.000 A 
ATOM     23  C   UNL     1       5.023   4.132  16.408  0.00  0.00    +0.000 A 
BRANCH  18  25
ATOM     24  C   UNL     1       6.547   5.350  19.318  0.00  0.00    +0.000 C 
ATOM     25  O   UNL     1       5.489   5.394  18.363  0.00  0.00    +0.000 OA
ENDBRANCH  18  25
ENDBRANCH  17  23
ENDBRANCH  15  17
ENDBRANCH  14  15
ENDBRANCH   1  14
TORSDOF 7
ENDMDL
MODEL 9
REMARK VINA RESULT:      -6.3      2.183      4.169
REMARK  Name = 
REMARK  10 active torsions:
REMARK  status: ('A' for Active; 'I' for Inactive)
REMARK    1  A    between atoms: C_1  and  O_2
REMARK    2  A    between atoms: O_2  and  C_3
REMARK    3  A    between atoms: C_8  and  C_9
REMARK    4  A    between atoms: C_9  and  N_10
REMARK    5  A    between atoms: N_10  and  C_11
REMARK    6  A    between atoms: C_11  and  C_12
REMARK    7  A    between atoms: N_14  and  C_15
REMARK    8  A    between atoms: C_18  and  N_19
REMARK    9  A    between atoms: N_19  and  C_20
REMARK   10  A    between atoms: N_19  and  C_21
REMARK                            x       y       z     vdW  Elec       q    Type
REMARK                         _______ _______ _______ _____ _____    ______ ____
ROOT
ATOM      1  C   UNL     1       2.217   4.193  19.688  0.00  0.00    +0.000 C 
ATOM      2  O   UNL     1       1.240   4.087  18.948  0.00  0.00    +0.000 OA
ATOM      3  N   UNL     1       2.777   5.374  20.153  0.00  0.00    +0.000 N 
ATOM      4  H   UNL     1       3.661   5.303  20.640  0.00  0.00    +0.000 HD
ENDROOT
BRANCH   3   5
ATOM      5  C   UNL     1       2.339   6.680  19.855  0.00  0.00    +0.000 A 
ATOM      6  C   UNL     1       1.635   7.477  20.749  0.00  0.00    +0.000 A 
ATOM      7  C   UNL     1       1.165   8.741  20.361  0.00  0.00    +0.000 A 
ATOM      8  C   UNL     1       1.378   9.269  19.078  0.00  0.00    +0.000 A 
ATOM      9  C   UNL     1       2.123   8.459  18.208  0.00  0.00    +0.000 A 
ATOM     10  C   UNL     1       2.604   7.192  18.586  0.00  0.00    +0.000 A 
BRANCH   8  11
ATOM     11  N   UNL     1       0.837  10.487  18.701  0.00  0.00    +0.000 N 
ATOM     12  C   UNL     1      -0.606  10.715  18.703  0.00  0.00    +0.000 C 
ATOM     13  C   UNL     1       1.645  11.694  18.570  0.00  0.00    +0.000 C 
ENDBRANCH   8  11
ENDBRANCH   3   5
BRANCH   1  14
ATOM     14  C   UNL     1       2.997   2.947  20.116  0.00  0.00    +0.000 C 
BRANCH  14  15
ATOM     15  N   UNL     1       4.391   3.007  19.647  0.00  0.00    +0.000 NA
ATOM     16  H   UNL     1       4.806   2.081  19.784  0.00  0.00    +0.000 HD
BRANCH  15  17
ATOM     17  C   UNL     1       4.502   3.335  18.216  0.00  0.00    +0.000 C 
BRANCH  17  23
ATOM     18  C   UNL     1       6.023   4.624  16.619  0.00  0.00    +0.000 A 
ATOM     19  C   UNL     1       7.011   5.599  16.403  0.00  0.00    +0.000 A 
ATOM     20  C   UNL     1       7.510   6.366  17.457  0.00  0.00    +0.000 A 
ATOM     21  C   UNL     1       7.019   6.173  18.741  0.00  0.00    +0.000 A 
ATOM     22  C   UNL     1       6.054   5.192  18.977  0.00  0.00    +0.000 A 
ATOM     23  C   UNL     1       5.562   4.385  17.933  0.00  0.00    +0.000 A 
BRANCH  18  25
ATOM     24  C   UNL     1       5.682   4.345  14.292  0.00  0.00    +0.000 C 
ATOM     25  O   UNL     1       5.484   3.864  15.619  0.00  0.00    +0.000 OA
ENDBRANCH  18  25
ENDBRANCH  17  23
ENDBRANCH  15  17
ENDBRANCH  14  15
ENDBRANCH   1  14
TORSDOF 7
ENDMDL
