MODEL 1
REMARK VINA RESULT:      -7.5      0.000      0.000
REMARK  Name = 
REMARK  5 active torsions:
REMARK  status: ('A' for Active; 'I' for Inactive)
REMARK    1  A    between atoms: C_1  and  O_2
REMARK    2  A    between atoms: O_2  and  C_3
REMARK    3  A    between atoms: C_8  and  C_9
REMARK    4  A    between atoms: C_14  and  C_15
REMARK    5  A    between atoms: C_15  and  C_17
REMARK                            x       y       z     vdW  Elec       q    Type
REMARK                         _______ _______ _______ _____ _____    ______ ____
ROOT
ATOM      1  C   UNL     1       4.179   3.664  17.977  0.00  0.00    +0.000 C 
ATOM      2  O   UNL     1       3.892   3.132  16.897  0.00  0.00    +0.000 OA
ATOM      3  N   UNL     1       5.354   4.440  18.085  0.00  0.00    +0.000 N 
ATOM      4  C   UNL     1       6.016   4.747  16.816  0.00  0.00    +0.000 C 
ATOM      5  C   UNL     1       7.504   5.040  16.966  0.00  0.00    +0.000 C 
ATOM      6  C   UNL     1       7.765   6.147  17.987  0.00  0.00    +0.000 C 
ATOM      7  C   UNL     1       7.115   5.745  19.317  0.00  0.00    +0.000 C 
ATOM      8  C   UNL     1       5.643   5.350  19.187  0.00  0.00    +0.000 C 
ENDROOT
BRANCH   1  14
ATOM      9  C   UNL     1       3.583   2.724  20.341  0.00  0.00    +0.000 A 
ATOM     10  C   UNL     1       2.592   2.603  21.334  0.00  0.00    +0.000 A 
ATOM     11  C   UNL     1       1.311   3.129  21.152  0.00  0.00    +0.000 A 
ATOM     12  C   UNL     1       0.990   3.762  19.964  0.00  0.00    +0.000 A 
ATOM     13  C   UNL     1       1.946   3.843  18.952  0.00  0.00    +0.000 A 
ATOM     14  C   UNL     1       3.253   3.321  19.109  0.00  0.00    +0.000 A 
BRANCH   9  16
ATOM     15  C   UNL     1       5.096   0.995  21.031  0.00  0.00    +0.000 C 
ATOM     16  O   UNL     1       4.869   2.310  20.542  0.00  0.00    +0.000 OA
ENDBRANCH   9  16
ENDBRANCH   1  14
BRANCH   6  17
ATOM     17  C   UNL     1       7.294   7.516  17.487  0.00  0.00    +0.000 C 
ATOM     18  O   UNL     1       6.349   7.642  16.710  0.00  0.00    +0.000 OA
BRANCH  17  19
ATOM     19  C   UNL     1       7.991   8.754  17.953  0.00  0.00    +0.000 A 
ATOM     20  C   UNL     1       7.684   9.968  17.320  0.00  0.00    +0.000 A 
ATOM     21  C   UNL     1       8.292  11.157  17.734  0.00  0.00    +0.000 A 
ATOM     22  C   UNL     1       9.196  11.129  18.787  0.00  0.00    +0.000 A 
ATOM     23  F   UNL     1       9.773  12.269  19.193  0.00  0.00    +0.000 F 
ATOM     24  C   UNL     1       9.503   9.938  19.435  0.00  0.00    +0.000 A 
ATOM     25  C   UNL     1       8.901   8.746  19.020  0.00  0.00    +0.000 A 
ENDBRANCH  17  19
ENDBRANCH   6  17
TORSDOF 4
ENDMDL
MODEL 2
REMARK VINA RESULT:      -7.4      0.892      1.911
REMARK  Name = 
REMARK  5 active torsions:
REMARK  status: ('A' for Active; 'I' for Inactive)
REMARK    1  A    between atoms: C_1  and  O_2
REMARK    2  A    between atoms: O_2  and  C_3
REMARK    3  A    between atoms: C_8  and  C_9
REMARK    4  A    between atoms: C_14  and  C_15
REMARK    5  A    between atoms: C_15  and  C_17
REMARK                            x       y       z     vdW  Elec       q    Type
REMARK                         _______ _______ _______ _____ _____    ______ ____
ROOT
ATOM      1  C   UNL     1       4.252   3.626  18.317  0.00  0.00    +0.000 C 
ATOM      2  O   UNL     1       4.067   2.920  17.317  0.00  0.00    +0.000 OA
ATOM      3  N   UNL     1       5.436   4.387  18.427  0.00  0.00    +0.000 N 
ATOM      4  C   UNL     1       6.247   4.456  17.209  0.00  0.00    +0.000 C 
ATOM      5  C   UNL     1       7.720   4.744  17.479  0.00  0.00    +0.000 C 
ATOM      6  C   UNL     1       7.908   6.005  18.320  0.00  0.00    +0.000 C 
ATOM      7  C   UNL     1       7.099   5.853  19.615  0.00  0.00    +0.000 C 
ATOM      8  C   UNL     1       5.636   5.468  19.384  0.00  0.00    +0.000 C 
ENDROOT
BRANCH   1  14
ATOM      9  C   UNL     1       1.883   4.019  19.345  0.00  0.00    +0.000 A 
ATOM     10  C   UNL     1       0.989   3.682  20.380  0.00  0.00    +0.000 A 
ATOM     11  C   UNL     1       1.347   2.789  21.392  0.00  0.00    +0.000 A 
ATOM     12  C   UNL     1       2.616   2.236  21.402  0.00  0.00    +0.000 A 
ATOM     13  C   UNL     1       3.530   2.600  20.413  0.00  0.00    +0.000 A 
ATOM     14  C   UNL     1       3.193   3.501  19.374  0.00  0.00    +0.000 A 
BRANCH   9  16
ATOM     15  C   UNL     1       2.154   6.064  18.122  0.00  0.00    +0.000 C 
ATOM     16  O   UNL     1       1.515   4.806  18.293  0.00  0.00    +0.000 OA
ENDBRANCH   9  16
ENDBRANCH   1  14
BRANCH   6  17
ATOM     17  C   UNL     1       7.548   7.275  17.544  0.00  0.00    +0.000 C 
ATOM     18  O   UNL     1       6.804   7.258  16.564  0.00  0.00    +0.000 OA
BRANCH  17  19
ATOM     19  C   UNL     1       8.105   8.592  17.980  0.00  0.00    +0.000 A 
ATOM     20  C   UNL     1       7.729   9.742  17.268  0.00  0.00    +0.000 A 
ATOM     21  C   UNL     1       8.205  11.000  17.650  0.00  0.00    +0.000 A 
ATOM     22  C   UNL     1       9.047  11.104  18.749  0.00  0.00    +0.000 A 
ATOM     23  F   UNL     1       9.497  12.310  19.124  0.00  0.00    +0.000 F 
ATOM     24  C   UNL     1       9.420   9.978  19.474  0.00  0.00    +0.000 A 
ATOM     25  C   UNL     1       8.950   8.719  19.092  0.00  0.00    +0.000 A 
ENDBRANCH  17  19
ENDBRANCH   6  17
TORSDOF 4
ENDMDL
MODEL 3
REMARK VINA RESULT:      -7.2      4.603      6.362
REMARK  Name = 
REMARK  5 active torsions:
REMARK  status: ('A' for Active; 'I' for Inactive)
REMARK    1  A    between atoms: C_1  and  O_2
REMARK    2  A    between atoms: O_2  and  C_3
REMARK    3  A    between atoms: C_8  and  C_9
REMARK    4  A    between atoms: C_14  and  C_15
REMARK    5  A    between atoms: C_15  and  C_17
REMARK                            x       y       z     vdW  Elec       q    Type
REMARK                         _______ _______ _______ _____ _____    ______ ____
ROOT
ATOM      1  C   UNL     1       2.400   6.744  19.667  0.00  0.00    +0.000 C 
ATOM      2  O   UNL     1       1.874   6.039  20.538  0.00  0.00    +0.000 OA
ATOM      3  N   UNL     1       3.579   6.302  19.026  0.00  0.00    +0.000 N 
ATOM      4  C   UNL     1       3.946   4.909  19.290  0.00  0.00    +0.000 C 
ATOM      5  C   UNL     1       5.434   4.632  19.108  0.00  0.00    +0.000 C 
ATOM      6  C   UNL     1       5.928   5.064  17.728  0.00  0.00    +0.000 C 
ATOM      7  C   UNL     1       5.585   6.546  17.529  0.00  0.00    +0.000 C 
ATOM      8  C   UNL     1       4.117   6.878  17.800  0.00  0.00    +0.000 C 
ENDROOT
BRANCH   1  14
ATOM      9  C   UNL     1       1.289   8.974  20.451  0.00  0.00    +0.000 A 
ATOM     10  C   UNL     1       0.819  10.244  20.064  0.00  0.00    +0.000 A 
ATOM     11  C   UNL     1       0.865  10.664  18.733  0.00  0.00    +0.000 A 
ATOM     12  C   UNL     1       1.357   9.811  17.760  0.00  0.00    +0.000 A 
ATOM     13  C   UNL     1       1.778   8.531  18.121  0.00  0.00    +0.000 A 
ATOM     14  C   UNL     1       1.744   8.079  19.463  0.00  0.00    +0.000 A 
BRANCH   9  16
ATOM     15  C   UNL     1       0.521   9.249  22.707  0.00  0.00    +0.000 C 
ATOM     16  O   UNL     1       1.349   8.588  21.759  0.00  0.00    +0.000 OA
ENDBRANCH   9  16
ENDBRANCH   1  14
BRANCH   6  17
ATOM     17  C   UNL     1       5.374   4.173  16.612  0.00  0.00    +0.000 C 
ATOM     18  O   UNL     1       4.445   3.388  16.798  0.00  0.00    +0.000 OA
BRANCH  17  19
ATOM     19  C   UNL     1       5.964   4.251  15.241  0.00  0.00    +0.000 A 
ATOM     20  C   UNL     1       5.293   3.606  14.190  0.00  0.00    +0.000 A 
ATOM     21  C   UNL     1       5.793   3.668  12.886  0.00  0.00    +0.000 A 
ATOM     22  C   UNL     1       6.956   4.384  12.635  0.00  0.00    +0.000 A 
ATOM     23  F   UNL     1       7.432   4.453  11.384  0.00  0.00    +0.000 F 
ATOM     24  C   UNL     1       7.627   5.040  13.661  0.00  0.00    +0.000 A 
ATOM     25  C   UNL     1       7.133   4.976  14.967  0.00  0.00    +0.000 A 
ENDBRANCH  17  19
ENDBRANCH   6  17
TORSDOF 4
ENDMDL
MODEL 4
REMARK VINA RESULT:      -7.1      1.093      2.134
REMARK  Name = 
REMARK  5 active torsions:
REMARK  status: ('A' for Active; 'I' for Inactive)
REMARK    1  A    between atoms: C_1  and  O_2
REMARK    2  A    between atoms: O_2  and  C_3
REMARK    3  A    between atoms: C_8  and  C_9
REMARK    4  A    between atoms: C_14  and  C_15
REMARK    5  A    between atoms: C_15  and  C_17
REMARK                            x       y       z     vdW  Elec       q    Type
REMARK                         _______ _______ _______ _____ _____    ______ ____
ROOT
ATOM      1  C   UNL     1       4.111   3.795  18.230  0.00  0.00    +0.000 C 
ATOM      2  O   UNL     1       3.881   3.120  17.218  0.00  0.00    +0.000 OA
ATOM      3  N   UNL     1       5.318   4.521  18.327  0.00  0.00    +0.000 N 
ATOM      4  C   UNL     1       6.098   4.600  17.090  0.00  0.00    +0.000 C 
ATOM      5  C   UNL     1       7.585   4.841  17.328  0.00  0.00    +0.000 C 
ATOM      6  C   UNL     1       7.829   6.076  18.195  0.00  0.00    +0.000 C 
ATOM      7  C   UNL     1       7.050   5.912  19.507  0.00  0.00    +0.000 C 
ATOM      8  C   UNL     1       5.573   5.572  19.305  0.00  0.00    +0.000 C 
ENDROOT
BRANCH   1  14
ATOM      9  C   UNL     1       2.058   4.589  19.636  0.00  0.00    +0.000 A 
ATOM     10  C   UNL     1       1.096   4.233  20.602  0.00  0.00    +0.000 A 
ATOM     11  C   UNL     1       1.087   2.967  21.190  0.00  0.00    +0.000 A 
ATOM     12  C   UNL     1       2.055   2.041  20.842  0.00  0.00    +0.000 A 
ATOM     13  C   UNL     1       3.045   2.396  19.925  0.00  0.00    +0.000 A 
ATOM     14  C   UNL     1       3.077   3.672  19.312  0.00  0.00    +0.000 A 
BRANCH   9  16
ATOM     15  C   UNL     1       2.266   6.978  19.704  0.00  0.00    +0.000 C 
ATOM     16  O   UNL     1       2.019   5.783  18.975  0.00  0.00    +0.000 OA
ENDBRANCH   9  16
ENDBRANCH   1  14
BRANCH   6  17
ATOM     17  C   UNL     1       7.484   7.374  17.459  0.00  0.00    +0.000 C 
ATOM     18  O   UNL     1       6.746   7.396  16.476  0.00  0.00    +0.000 OA
BRANCH  17  19
ATOM     19  C   UNL     1       8.049   8.671  17.943  0.00  0.00    +0.000 A 
ATOM     20  C   UNL     1       8.906   8.650  19.055  0.00  0.00    +0.000 A 
ATOM     21  C   UNL     1       9.477   9.833  19.533  0.00  0.00    +0.000 A 
ATOM     22  C   UNL     1       9.197  11.031  18.891  0.00  0.00    +0.000 A 
ATOM     23  F   UNL     1       9.751  12.167  19.341  0.00  0.00    +0.000 F 
ATOM     24  C   UNL     1       8.361  11.071  17.781  0.00  0.00    +0.000 A 
ATOM     25  C   UNL     1       7.784   9.891  17.304  0.00  0.00    +0.000 A 
ENDBRANCH  17  19
ENDBRANCH   6  17
TORSDOF 4
ENDMDL
MODEL 5
REMARK VINA RESULT:      -7.0      3.813      5.342
REMARK  Name = 
REMARK  5 active torsions:
REMARK  status: ('A' for Active; 'I' for Inactive)
REMARK    1  A    between atoms: C_1  and  O_2
REMARK    2  A    between atoms: O_2  and  C_3
REMARK    3  A    between atoms: C_8  and  C_9
REMARK    4  A    between atoms: C_14  and  C_15
REMARK    5  A    between atoms: C_15  and  C_17
REMARK                            x       y       z     vdW  Elec       q    Type
REMARK                         _______ _______ _______ _____ _____    ______ ____
ROOT
ATOM      1  C   UNL     1       4.012   2.764  18.506  0.00  0.00    +0.000 C 
ATOM      2  O   UNL     1       4.258   1.587  18.209  0.00  0.00    +0.000 OA
ATOM      3  N   UNL     1       4.810   3.802  17.977  0.00  0.00    +0.000 N 
ATOM      4  C   UNL     1       5.731   3.398  16.913  0.00  0.00    +0.000 C 
ATOM      5  C   UNL     1       6.937   4.319  16.776  0.00  0.00    +0.000 C 
ATOM      6  C   UNL     1       6.521   5.779  16.598  0.00  0.00    +0.000 C 
ATOM      7  C   UNL     1       5.618   6.174  17.774  0.00  0.00    +0.000 C 
ATOM      8  C   UNL     1       4.449   5.214  18.002  0.00  0.00    +0.000 C 
ENDROOT
BRANCH   1  14
ATOM      9  C   UNL     1       1.537   3.136  19.256  0.00  0.00    +0.000 A 
ATOM     10  C   UNL     1       0.632   3.143  20.335  0.00  0.00    +0.000 A 
ATOM     11  C   UNL     1       1.053   2.882  21.641  0.00  0.00    +0.000 A 
ATOM     12  C   UNL     1       2.391   2.635  21.895  0.00  0.00    +0.000 A 
ATOM     13  C   UNL     1       3.307   2.677  20.844  0.00  0.00    +0.000 A 
ATOM     14  C   UNL     1       2.908   2.936  19.510  0.00  0.00    +0.000 A 
BRANCH   9  16
ATOM     15  C   UNL     1       1.144   4.583  17.383  0.00  0.00    +0.000 C 
ATOM     16  O   UNL     1       1.127   3.285  17.962  0.00  0.00    +0.000 OA
ENDBRANCH   9  16
ENDBRANCH   1  14
BRANCH   6  17
ATOM     17  C   UNL     1       5.864   6.029  15.238  0.00  0.00    +0.000 C 
ATOM     18  O   UNL     1       5.087   6.964  15.045  0.00  0.00    +0.000 OA
BRANCH  17  19
ATOM     19  C   UNL     1       6.171   5.122  14.090  0.00  0.00    +0.000 A 
ATOM     20  C   UNL     1       7.418   5.248  13.457  0.00  0.00    +0.000 A 
ATOM     21  C   UNL     1       7.762   4.409  12.393  0.00  0.00    +0.000 A 
ATOM     22  C   UNL     1       6.861   3.440  11.973  0.00  0.00    +0.000 A 
ATOM     23  F   UNL     1       7.192   2.626  10.959  0.00  0.00    +0.000 F 
ATOM     24  C   UNL     1       5.627   3.291  12.595  0.00  0.00    +0.000 A 
ATOM     25  C   UNL     1       5.278   4.132  13.656  0.00  0.00    +0.000 A 
ENDBRANCH  17  19
ENDBRANCH   6  17
TORSDOF 4
ENDMDL
MODEL 6
REMARK VINA RESULT:      -7.0      4.955      6.881
REMARK  Name = 
REMARK  5 active torsions:
REMARK  status: ('A' for Active; 'I' for Inactive)
REMARK    1  A    between atoms: C_1  and  O_2
REMARK    2  A    between atoms: O_2  and  C_3
REMARK    3  A    between atoms: C_8  and  C_9
REMARK    4  A    between atoms: C_14  and  C_15
REMARK    5  A    between atoms: C_15  and  C_17
REMARK                            x       y       z     vdW  Elec       q    Type
REMARK                         _______ _______ _______ _____ _____    ______ ____
ROOT
ATOM      1  C   UNL     1       1.307   8.895  19.312  0.00  0.00    +0.000 C 
ATOM      2  O   UNL     1       1.207   9.554  18.268  0.00  0.00    +0.000 OA
ATOM      3  N   UNL     1       1.789   7.569  19.259  0.00  0.00    +0.000 N 
ATOM      4  C   UNL     1       2.363   7.167  17.973  0.00  0.00    +0.000 C 
ATOM      5  C   UNL     1       2.326   5.660  17.740  0.00  0.00    +0.000 C 
ATOM      6  C   UNL     1       2.985   4.892  18.885  0.00  0.00    +0.000 C 
ATOM      7  C   UNL     1       2.301   5.294  20.199  0.00  0.00    +0.000 C 
ATOM      8  C   UNL     1       2.232   6.806  20.418  0.00  0.00    +0.000 C 
ENDROOT
BRANCH   1  14
ATOM      9  C   UNL     1       0.730  10.973  20.786  0.00  0.00    +0.000 A 
ATOM     10  C   UNL     1       0.085  11.437  21.949  0.00  0.00    +0.000 A 
ATOM     11  C   UNL     1      -0.562  10.561  22.823  0.00  0.00    +0.000 A 
ATOM     12  C   UNL     1      -0.552   9.201  22.564  0.00  0.00    +0.000 A 
ATOM     13  C   UNL     1       0.127   8.722  21.444  0.00  0.00    +0.000 A 
ATOM     14  C   UNL     1       0.789   9.588  20.540  0.00  0.00    +0.000 A 
BRANCH   9  16
ATOM     15  C   UNL     1       0.481  12.889  19.364  0.00  0.00    +0.000 C 
ATOM     16  O   UNL     1       1.276  11.824  19.868  0.00  0.00    +0.000 OA
ENDBRANCH   9  16
ENDBRANCH   1  14
BRANCH   6  17
ATOM     17  C   UNL     1       4.502   5.098  18.921  0.00  0.00    +0.000 C 
ATOM     18  O   UNL     1       5.112   5.315  19.967  0.00  0.00    +0.000 OA
BRANCH  17  19
ATOM     19  C   UNL     1       5.288   5.031  17.650  0.00  0.00    +0.000 A 
ATOM     20  C   UNL     1       6.271   6.007  17.424  0.00  0.00    +0.000 A 
ATOM     21  C   UNL     1       7.047   5.975  16.261  0.00  0.00    +0.000 A 
ATOM     22  C   UNL     1       6.845   4.961  15.335  0.00  0.00    +0.000 A 
ATOM     23  F   UNL     1       7.594   4.922  14.224  0.00  0.00    +0.000 F 
ATOM     24  C   UNL     1       5.884   3.979  15.548  0.00  0.00    +0.000 A 
ATOM     25  C   UNL     1       5.103   4.010  16.706  0.00  0.00    +0.000 A 
ENDBRANCH  17  19
ENDBRANCH   6  17
TORSDOF 4
ENDMDL
MODEL 7
REMARK VINA RESULT:      -7.0      4.894      6.851
REMARK  Name = 
REMARK  5 active torsions:
REMARK  status: ('A' for Active; 'I' for Inactive)
REMARK    1  A    between atoms: C_1  and  O_2
REMARK    2  A    between atoms: O_2  and  C_3
REMARK    3  A    between atoms: C_8  and  C_9
REMARK    4  A    between atoms: C_14  and  C_15
REMARK    5  A    between atoms: C_15  and  C_17
REMARK                            x       y       z     vdW  Elec       q    Type
REMARK                         _______ _______ _______ _____ _____    ______ ____
ROOT
ATOM      1  C   UNL     1       1.346   8.906  19.364  0.00  0.00    +0.000 C 
ATOM      2  O   UNL     1       1.304   9.609  18.345  0.00  0.00    +0.000 OA
ATOM      3  N   UNL     1       1.802   7.573  19.277  0.00  0.00    +0.000 N 
ATOM      4  C   UNL     1       2.422   7.210  18.001  0.00  0.00    +0.000 C 
ATOM      5  C   UNL     1       2.364   5.715  17.705  0.00  0.00    +0.000 C 
ATOM      6  C   UNL     1       2.957   4.887  18.844  0.00  0.00    +0.000 C 
ATOM      7  C   UNL     1       2.226   5.250  20.143  0.00  0.00    +0.000 C 
ATOM      8  C   UNL     1       2.180   6.753  20.422  0.00  0.00    +0.000 C 
ENDROOT
BRANCH   1  14
ATOM      9  C   UNL     1       0.705  10.938  20.876  0.00  0.00    +0.000 A 
ATOM     10  C   UNL     1       0.027  11.363  22.035  0.00  0.00    +0.000 A 
ATOM     11  C   UNL     1      -0.625  10.456  22.873  0.00  0.00    +0.000 A 
ATOM     12  C   UNL     1      -0.589   9.103  22.581  0.00  0.00    +0.000 A 
ATOM     13  C   UNL     1       0.122   8.662  21.465  0.00  0.00    +0.000 A 
ATOM     14  C   UNL     1       0.791   9.560  20.597  0.00  0.00    +0.000 A 
BRANCH   9  16
ATOM     15  C   UNL     1       1.881  12.994  20.494  0.00  0.00    +0.000 C 
ATOM     16  O   UNL     1       1.258  11.819  19.992  0.00  0.00    +0.000 OA
ENDBRANCH   9  16
ENDBRANCH   1  14
BRANCH   6  17
ATOM     17  C   UNL     1       4.475   5.057  18.951  0.00  0.00    +0.000 C 
ATOM     18  O   UNL     1       5.044   5.215  20.030  0.00  0.00    +0.000 OA
BRANCH  17  19
ATOM     19  C   UNL     1       5.313   5.026  17.713  0.00  0.00    +0.000 A 
ATOM     20  C   UNL     1       5.064   4.020  16.766  0.00  0.00    +0.000 A 
ATOM     21  C   UNL     1       5.805   3.961  15.582  0.00  0.00    +0.000 A 
ATOM     22  C   UNL     1       6.784   4.915  15.344  0.00  0.00    +0.000 A 
ATOM     23  F   UNL     1       7.490   4.867  14.205  0.00  0.00    +0.000 F 
ATOM     24  C   UNL     1       7.037   5.926  16.263  0.00  0.00    +0.000 A 
ATOM     25  C   UNL     1       6.302   5.986  17.451  0.00  0.00    +0.000 A 
ENDBRANCH  17  19
ENDBRANCH   6  17
TORSDOF 4
ENDMDL
MODEL 8
REMARK VINA RESULT:      -6.8      7.303      8.850
REMARK  Name = 
REMARK  5 active torsions:
REMARK  status: ('A' for Active; 'I' for Inactive)
REMARK    1  A    between atoms: C_1  and  O_2
REMARK    2  A    between atoms: O_2  and  C_3
REMARK    3  A    between atoms: C_8  and  C_9
REMARK    4  A    between atoms: C_14  and  C_15
REMARK    5  A    between atoms: C_15  and  C_17
REMARK                            x       y       z     vdW  Elec       q    Type
REMARK                         _______ _______ _______ _____ _____    ______ ____
ROOT
ATOM      1  C   UNL     1       0.198  12.180  20.776  0.00  0.00    +0.000 C 
ATOM      2  O   UNL     1       1.060  12.993  21.134  0.00  0.00    +0.000 OA
ATOM      3  N   UNL     1       0.510  11.215  19.794  0.00  0.00    +0.000 N 
ATOM      4  C   UNL     1       1.931  11.112  19.452  0.00  0.00    +0.000 C 
ATOM      5  C   UNL     1       2.178  10.547  18.058  0.00  0.00    +0.000 C 
ATOM      6  C   UNL     1       1.479   9.202  17.858  0.00  0.00    +0.000 C 
ATOM      7  C   UNL     1      -0.015   9.380  18.156  0.00  0.00    +0.000 C 
ATOM      8  C   UNL     1      -0.298  10.036  19.509  0.00  0.00    +0.000 C 
ENDROOT
BRANCH   1  14
ATOM      9  C   UNL     1      -1.595  11.998  22.667  0.00  0.00    +0.000 A 
ATOM     10  C   UNL     1      -2.866  12.410  23.115  0.00  0.00    +0.000 A 
ATOM     11  C   UNL     1      -3.666  13.263  22.353  0.00  0.00    +0.000 A 
ATOM     12  C   UNL     1      -3.223  13.699  21.117  0.00  0.00    +0.000 A 
ATOM     13  C   UNL     1      -1.990  13.258  20.637  0.00  0.00    +0.000 A 
ATOM     14  C   UNL     1      -1.156  12.395  21.389  0.00  0.00    +0.000 A 
BRANCH   9  16
ATOM     15  C   UNL     1      -0.662   9.853  23.199  0.00  0.00    +0.000 C 
ATOM     16  O   UNL     1      -0.757  11.250  23.443  0.00  0.00    +0.000 OA
ENDBRANCH   9  16
ENDBRANCH   1  14
BRANCH   6  17
ATOM     17  C   UNL     1       2.121   8.089  18.691  0.00  0.00    +0.000 C 
ATOM     18  O   UNL     1       1.956   7.999  19.907  0.00  0.00    +0.000 OA
BRANCH  17  19
ATOM     19  C   UNL     1       2.977   7.063  18.021  0.00  0.00    +0.000 A 
ATOM     20  C   UNL     1       2.617   5.712  18.148  0.00  0.00    +0.000 A 
ATOM     21  C   UNL     1       3.373   4.715  17.522  0.00  0.00    +0.000 A 
ATOM     22  C   UNL     1       4.477   5.074  16.762  0.00  0.00    +0.000 A 
ATOM     23  F   UNL     1       5.197   4.122  16.152  0.00  0.00    +0.000 F 
ATOM     24  C   UNL     1       4.841   6.408  16.614  0.00  0.00    +0.000 A 
ATOM     25  C   UNL     1       4.092   7.406  17.243  0.00  0.00    +0.000 A 
ENDBRANCH  17  19
ENDBRANCH   6  17
TORSDOF 4
ENDMDL
MODEL 9
REMARK VINA RESULT:      -6.8      4.567      6.876
REMARK  Name = 
REMARK  5 active torsions:
REMARK  status: ('A' for Active; 'I' for Inactive)
REMARK    1  A    between atoms: C_1  and  O_2
REMARK    2  A    between atoms: O_2  and  C_3
REMARK    3  A    between atoms: C_8  and  C_9
REMARK    4  A    between atoms: C_14  and  C_15
REMARK    5  A    between atoms: C_15  and  C_17
REMARK                            x       y       z     vdW  Elec       q    Type
REMARK                         _______ _______ _______ _____ _____    ______ ____
ROOT
ATOM      1  C   UNL     1       1.633   8.291  19.416  0.00  0.00    +0.000 C 
ATOM      2  O   UNL     1       2.011   8.993  18.469  0.00  0.00    +0.000 OA
ATOM      3  N   UNL     1       1.727   6.884  19.327  0.00  0.00    +0.000 N 
ATOM      4  C   UNL     1       2.501   6.384  18.189  0.00  0.00    +0.000 C 
ATOM      5  C   UNL     1       2.117   4.968  17.773  0.00  0.00    +0.000 C 
ATOM      6  C   UNL     1       2.196   3.991  18.946  0.00  0.00    +0.000 C 
ATOM      7  C   UNL     1       1.313   4.522  20.083  0.00  0.00    +0.000 C 
ATOM      8  C   UNL     1       1.605   5.976  20.460  0.00  0.00    +0.000 C 
ENDROOT
BRANCH   1  14
ATOM      9  C   UNL     1      -0.113   9.905  20.497  0.00  0.00    +0.000 A 
ATOM     10  C   UNL     1      -0.634  10.428  21.697  0.00  0.00    +0.000 A 
ATOM     11  C   UNL     1      -0.112  10.062  22.939  0.00  0.00    +0.000 A 
ATOM     12  C   UNL     1       0.958   9.186  23.004  0.00  0.00    +0.000 A 
ATOM     13  C   UNL     1       1.517   8.701  21.822  0.00  0.00    +0.000 A 
ATOM     14  C   UNL     1       1.007   9.053  20.549  0.00  0.00    +0.000 A 
BRANCH   9  16
ATOM     15  C   UNL     1      -1.659  11.194  19.192  0.00  0.00    +0.000 C 
ATOM     16  O   UNL     1      -0.677  10.169  19.283  0.00  0.00    +0.000 OA
ENDBRANCH   9  16
ENDBRANCH   1  14
BRANCH   6  17
ATOM     17  C   UNL     1       3.640   3.735  19.387  0.00  0.00    +0.000 C 
ATOM     18  O   UNL     1       3.920   3.308  20.507  0.00  0.00    +0.000 OA
BRANCH  17  19
ATOM     19  C   UNL     1       4.763   4.001  18.436  0.00  0.00    +0.000 A 
ATOM     20  C   UNL     1       4.656   3.508  17.126  0.00  0.00    +0.000 A 
ATOM     21  C   UNL     1       5.669   3.748  16.193  0.00  0.00    +0.000 A 
ATOM     22  C   UNL     1       6.779   4.490  16.570  0.00  0.00    +0.000 A 
ATOM     23  F   UNL     1       7.748   4.731  15.674  0.00  0.00    +0.000 F 
ATOM     24  C   UNL     1       6.897   4.998  17.859  0.00  0.00    +0.000 A 
ATOM     25  C   UNL     1       5.889   4.755  18.796  0.00  0.00    +0.000 A 
ENDBRANCH  17  19
ENDBRANCH   6  17
TORSDOF 4
ENDMDL
