MODEL 1
REMARK VINA RESULT:      -8.1      0.000      0.000
REMARK  Name = 
REMARK  7 active torsions:
REMARK  status: ('A' for Active; 'I' for Inactive)
REMARK    1  A    between atoms: N_1  and  C_2
REMARK    2  A    between atoms: C_2  and  C_3
REMARK    3  A    between atoms: C_6  and  C_7
REMARK    4  A    between atoms: C_7  and  N_8
REMARK    5  A    between atoms: N_8  and  C_9
REMARK    6  A    between atoms: N_8  and  C_19
REMARK    7  A    between atoms: C_9  and  C_10
REMARK                            x       y       z     vdW  Elec       q    Type
REMARK                         _______ _______ _______ _____ _____    ______ ____
ROOT
ATOM      1  N   UNL     1       4.217   5.843  18.773  0.00  0.00    +0.000 NA
ENDROOT
BRANCH   1   2
ATOM      2  C   UNL     1       3.846   4.385  18.645  0.00  0.00    +0.000 C 
ATOM      3  C   UNL     1       3.349   4.066  17.204  0.00  0.00    +0.000 C 
ATOM      4  C   UNL     1       2.953   2.601  17.064  0.00  0.00    +0.000 C 
ATOM      5  C   UNL     1       1.768   2.291  17.970  0.00  0.00    +0.000 C 
ATOM      6  C   UNL     1       1.959   2.803  19.370  0.00  0.00    +0.000 A 
ATOM      7  C   UNL     1       1.128   2.290  20.387  0.00  0.00    +0.000 A 
ATOM      8  C   UNL     1       1.275   2.736  21.696  0.00  0.00    +0.000 A 
ATOM      9  C   UNL     1       2.253   3.670  21.951  0.00  0.00    +0.000 A 
ATOM     10  N   UNL     1       3.072   4.174  21.003  0.00  0.00    +0.000 NA
ATOM     11  C   UNL     1       2.893   3.787  19.707  0.00  0.00    +0.000 A 
ENDBRANCH   1   2
BRANCH   1  12
ATOM     12  C   UNL     1       5.620   6.067  18.360  0.00  0.00    +0.000 C 
BRANCH  12  16
ATOM     13  C   UNL     1       6.440   4.680  14.323  0.00  0.00    +0.000 A 
ATOM     14  C   UNL     1       7.088   4.083  15.414  0.00  0.00    +0.000 A 
ATOM     15  C   UNL     1       6.897   4.568  16.720  0.00  0.00    +0.000 A 
ATOM     16  C   UNL     1       6.048   5.658  16.959  0.00  0.00    +0.000 A 
ATOM     17  C   UNL     1       5.428   6.271  15.858  0.00  0.00    +0.000 A 
ATOM     18  C   UNL     1       5.618   5.788  14.560  0.00  0.00    +0.000 A 
BRANCH  13  19
ATOM     19  C   UNL     1       6.575   4.132  12.923  0.00  0.00    +0.000 C 
BRANCH  19  20
ATOM     20  N   UNL     1       6.057   2.771  12.810  0.00  0.00    +0.000 NA
ATOM     21  H   UNL     1       6.644   2.143  13.355  0.00  0.00    +0.000 HD
ATOM     22  H   UNL     1       5.134   2.731  13.242  0.00  0.00    +0.000 HD
ENDBRANCH  19  20
ENDBRANCH  13  19
ENDBRANCH  12  16
ENDBRANCH   1  12
BRANCH   1  23
ATOM     23  C   UNL     1       3.316   6.777  18.040  0.00  0.00    +0.000 C 
BRANCH  23  24
ATOM     24  C   UNL     1       2.441   7.681  18.878  0.00  0.00    +0.000 A 
ATOM     25  N   UNL     1       1.768   8.750  18.489  0.00  0.00    +0.000 NA
ATOM     26  C   UNL     1       1.084   9.190  19.599  0.00  0.00    +0.000 A 
ATOM     27  C   UNL     1       0.191  10.264  19.746  0.00  0.00    +0.000 A 
ATOM     28  C   UNL     1      -0.346  10.529  21.015  0.00  0.00    +0.000 A 
ATOM     29  C   UNL     1       0.024   9.761  22.120  0.00  0.00    +0.000 A 
ATOM     30  C   UNL     1       0.890   8.669  21.989  0.00  0.00    +0.000 A 
ATOM     31  C   UNL     1       1.370   8.396  20.703  0.00  0.00    +0.000 A 
ATOM     32  N   UNL     1       2.137   7.384  20.189  0.00  0.00    +0.000 N 
ATOM     33  H   UNL     1       2.453   6.552  20.673  0.00  0.00    +0.000 HD
ENDBRANCH  23  24
ENDBRANCH   1  23
TORSDOF 7
ENDMDL
MODEL 2
REMARK VINA RESULT:      -8.0      0.463      1.154
REMARK  Name = 
REMARK  7 active torsions:
REMARK  status: ('A' for Active; 'I' for Inactive)
REMARK    1  A    between atoms: N_1  and  C_2
REMARK    2  A    between atoms: C_2  and  C_3
REMARK    3  A    between atoms: C_6  and  C_7
REMARK    4  A    between atoms: C_7  and  N_8
REMARK    5  A    between atoms: N_8  and  C_9
REMARK    6  A    between atoms: N_8  and  C_19
REMARK    7  A    between atoms: C_9  and  C_10
REMARK                            x       y       z     vdW  Elec       q    Type
REMARK                         _______ _______ _______ _____ _____    ______ ____
ROOT
ATOM      1  N   UNL     1       4.083   5.936  18.689  0.00  0.00    +0.000 NA
ENDROOT
BRANCH   1   2
ATOM      2  C   UNL     1       3.732   4.474  18.558  0.00  0.00    +0.000 C 
ATOM      3  C   UNL     1       3.160   4.168  17.143  0.00  0.00    +0.000 C 
ATOM      4  C   UNL     1       2.782   2.698  17.001  0.00  0.00    +0.000 C 
ATOM      5  C   UNL     1       1.656   2.352  17.968  0.00  0.00    +0.000 C 
ATOM      6  C   UNL     1       1.917   2.845  19.363  0.00  0.00    +0.000 A 
ATOM      7  C   UNL     1       1.156   2.301  20.416  0.00  0.00    +0.000 A 
ATOM      8  C   UNL     1       1.368   2.729  21.722  0.00  0.00    +0.000 A 
ATOM      9  C   UNL     1       2.343   3.677  21.937  0.00  0.00    +0.000 A 
ATOM     10  N   UNL     1       3.097   4.212  20.953  0.00  0.00    +0.000 NA
ATOM     11  C   UNL     1       2.851   3.841  19.663  0.00  0.00    +0.000 A 
ENDBRANCH   1   2
BRANCH   1  12
ATOM     12  C   UNL     1       5.451   6.195  18.188  0.00  0.00    +0.000 C 
BRANCH  12  16
ATOM     13  C   UNL     1       6.204   4.361  14.320  0.00  0.00    +0.000 A 
ATOM     14  C   UNL     1       6.782   3.819  15.477  0.00  0.00    +0.000 A 
ATOM     15  C   UNL     1       6.616   4.442  16.726  0.00  0.00    +0.000 A 
ATOM     16  C   UNL     1       5.861   5.619  16.842  0.00  0.00    +0.000 A 
ATOM     17  C   UNL     1       5.313   6.173  15.674  0.00  0.00    +0.000 A 
ATOM     18  C   UNL     1       5.479   5.553  14.432  0.00  0.00    +0.000 A 
BRANCH  13  19
ATOM     19  C   UNL     1       6.311   3.671  12.981  0.00  0.00    +0.000 C 
BRANCH  19  20
ATOM     20  N   UNL     1       7.215   4.368  12.070  0.00  0.00    +0.000 NA
ATOM     21  H   UNL     1       7.568   3.708  11.380  0.00  0.00    +0.000 HD
ATOM     22  H   UNL     1       6.684   5.060  11.543  0.00  0.00    +0.000 HD
ENDBRANCH  19  20
ENDBRANCH  13  19
ENDBRANCH  12  16
ENDBRANCH   1  12
BRANCH   1  23
ATOM     23  C   UNL     1       3.117   6.865  18.037  0.00  0.00    +0.000 C 
BRANCH  23  24
ATOM     24  C   UNL     1       2.267   7.719  18.950  0.00  0.00    +0.000 A 
ATOM     25  N   UNL     1       1.977   7.510  20.223  0.00  0.00    +0.000 NA
ATOM     26  C   UNL     1       1.226   8.593  20.621  0.00  0.00    +0.000 A 
ATOM     27  C   UNL     1       0.682   8.904  21.878  0.00  0.00    +0.000 A 
ATOM     28  C   UNL     1      -0.091  10.067  22.011  0.00  0.00    +0.000 A 
ATOM     29  C   UNL     1      -0.346  10.884  20.908  0.00  0.00    +0.000 A 
ATOM     30  C   UNL     1       0.211  10.606  19.654  0.00  0.00    +0.000 A 
ATOM     31  C   UNL     1       1.020   9.468  19.563  0.00  0.00    +0.000 A 
ATOM     32  N   UNL     1       1.787   8.949  18.553  0.00  0.00    +0.000 N 
ATOM     33  H   UNL     1       1.976   9.370  17.651  0.00  0.00    +0.000 HD
ENDBRANCH  23  24
ENDBRANCH   1  23
TORSDOF 7
ENDMDL
MODEL 3
REMARK VINA RESULT:      -8.0      3.088      8.908
REMARK  Name = 
REMARK  7 active torsions:
REMARK  status: ('A' for Active; 'I' for Inactive)
REMARK    1  A    between atoms: N_1  and  C_2
REMARK    2  A    between atoms: C_2  and  C_3
REMARK    3  A    between atoms: C_6  and  C_7
REMARK    4  A    between atoms: C_7  and  N_8
REMARK    5  A    between atoms: N_8  and  C_9
REMARK    6  A    between atoms: N_8  and  C_19
REMARK    7  A    between atoms: C_9  and  C_10
REMARK                            x       y       z     vdW  Elec       q    Type
REMARK                         _______ _______ _______ _____ _____    ______ ____
ROOT
ATOM      1  N   UNL     1       0.710   9.214  19.385  0.00  0.00    +0.000 NA
ENDROOT
BRANCH   1   2
ATOM      2  C   UNL     1       0.649   9.772  20.786  0.00  0.00    +0.000 C 
ATOM      3  C   UNL     1      -0.475   9.077  21.610  0.00  0.00    +0.000 C 
ATOM      4  C   UNL     1      -0.561   9.645  23.022  0.00  0.00    +0.000 C 
ATOM      5  C   UNL     1      -0.957  11.116  22.971  0.00  0.00    +0.000 C 
ATOM      6  C   UNL     1      -0.144  11.901  21.982  0.00  0.00    +0.000 A 
ATOM      7  C   UNL     1      -0.150  13.307  22.081  0.00  0.00    +0.000 A 
ATOM      8  C   UNL     1       0.591  14.071  21.186  0.00  0.00    +0.000 A 
ATOM      9  C   UNL     1       1.324  13.407  20.228  0.00  0.00    +0.000 A 
ATOM     10  N   UNL     1       1.360  12.063  20.111  0.00  0.00    +0.000 NA
ATOM     11  C   UNL     1       0.587  11.310  20.948  0.00  0.00    +0.000 A 
ENDBRANCH   1   2
BRANCH   1  12
ATOM     12  C   UNL     1       0.277  10.226  18.396  0.00  0.00    +0.000 C 
BRANCH  12  16
ATOM     13  C   UNL     1      -3.860  11.111  17.397  0.00  0.00    +0.000 A 
ATOM     14  C   UNL     1      -3.270  11.702  18.524  0.00  0.00    +0.000 A 
ATOM     15  C   UNL     1      -1.959  11.368  18.910  0.00  0.00    +0.000 A 
ATOM     16  C   UNL     1      -1.212  10.441  18.169  0.00  0.00    +0.000 A 
ATOM     17  C   UNL     1      -1.821   9.830  17.061  0.00  0.00    +0.000 A 
ATOM     18  C   UNL     1      -3.124  10.162  16.678  0.00  0.00    +0.000 A 
BRANCH  13  19
ATOM     19  C   UNL     1      -5.238  11.507  16.924  0.00  0.00    +0.000 C 
BRANCH  19  20
ATOM     20  N   UNL     1      -5.646  12.812  17.438  0.00  0.00    +0.000 NA
ATOM     21  H   UNL     1      -5.862  13.427  16.657  0.00  0.00    +0.000 HD
ATOM     22  H   UNL     1      -6.518  12.706  17.956  0.00  0.00    +0.000 HD
ENDBRANCH  19  20
ENDBRANCH  13  19
ENDBRANCH  12  16
ENDBRANCH   1  12
BRANCH   1  23
ATOM     23  C   UNL     1       2.037   8.658  18.997  0.00  0.00    +0.000 C 
BRANCH  23  24
ATOM     24  C   UNL     1       2.250   7.178  19.220  0.00  0.00    +0.000 A 
ATOM     25  N   UNL     1       2.694   6.282  18.355  0.00  0.00    +0.000 NA
ATOM     26  C   UNL     1       2.767   5.094  19.049  0.00  0.00    +0.000 A 
ATOM     27  C   UNL     1       3.205   3.827  18.631  0.00  0.00    +0.000 A 
ATOM     28  C   UNL     1       3.138   2.756  19.534  0.00  0.00    +0.000 A 
ATOM     29  C   UNL     1       2.614   2.935  20.815  0.00  0.00    +0.000 A 
ATOM     30  C   UNL     1       2.199   4.196  21.260  0.00  0.00    +0.000 A 
ATOM     31  C   UNL     1       2.325   5.256  20.356  0.00  0.00    +0.000 A 
ATOM     32  N   UNL     1       2.117   6.606  20.467  0.00  0.00    +0.000 N 
ATOM     33  H   UNL     1       1.889   7.121  21.308  0.00  0.00    +0.000 HD
ENDBRANCH  23  24
ENDBRANCH   1  23
TORSDOF 7
ENDMDL
MODEL 4
REMARK VINA RESULT:      -8.0      2.304      3.411
REMARK  Name = 
REMARK  7 active torsions:
REMARK  status: ('A' for Active; 'I' for Inactive)
REMARK    1  A    between atoms: N_1  and  C_2
REMARK    2  A    between atoms: C_2  and  C_3
REMARK    3  A    between atoms: C_6  and  C_7
REMARK    4  A    between atoms: C_7  and  N_8
REMARK    5  A    between atoms: N_8  and  C_9
REMARK    6  A    between atoms: N_8  and  C_19
REMARK    7  A    between atoms: C_9  and  C_10
REMARK                            x       y       z     vdW  Elec       q    Type
REMARK                         _______ _______ _______ _____ _____    ______ ____
ROOT
ATOM      1  N   UNL     1       4.801   5.372  18.065  0.00  0.00    +0.000 NA
ENDROOT
BRANCH   1   2
ATOM      2  C   UNL     1       4.409   3.954  18.401  0.00  0.00    +0.000 C 
ATOM      3  C   UNL     1       4.142   3.134  17.105  0.00  0.00    +0.000 C 
ATOM      4  C   UNL     1       3.725   1.703  17.429  0.00  0.00    +0.000 C 
ATOM      5  C   UNL     1       2.399   1.702  18.180  0.00  0.00    +0.000 C 
ATOM      6  C   UNL     1       2.377   2.680  19.320  0.00  0.00    +0.000 A 
ATOM      7  C   UNL     1       1.377   2.538  20.303  0.00  0.00    +0.000 A 
ATOM      8  C   UNL     1       1.324   3.421  21.375  0.00  0.00    +0.000 A 
ATOM      9  C   UNL     1       2.278   4.411  21.440  0.00  0.00    +0.000 A 
ATOM     10  N   UNL     1       3.256   4.570  20.523  0.00  0.00    +0.000 NA
ATOM     11  C   UNL     1       3.276   3.745  19.436  0.00  0.00    +0.000 A 
ENDBRANCH   1   2
BRANCH   1  12
ATOM     12  C   UNL     1       6.127   5.409  17.409  0.00  0.00    +0.000 C 
BRANCH  12  16
ATOM     13  C   UNL     1       8.522   8.834  18.604  0.00  0.00    +0.000 A 
ATOM     14  C   UNL     1       7.670   8.928  17.494  0.00  0.00    +0.000 A 
ATOM     15  C   UNL     1       6.947   7.809  17.043  0.00  0.00    +0.000 A 
ATOM     16  C   UNL     1       7.058   6.575  17.700  0.00  0.00    +0.000 A 
ATOM     17  C   UNL     1       7.937   6.481  18.791  0.00  0.00    +0.000 A 
ATOM     18  C   UNL     1       8.656   7.594  19.239  0.00  0.00    +0.000 A 
BRANCH  13  19
ATOM     19  C   UNL     1       9.252  10.038  19.148  0.00  0.00    +0.000 C 
BRANCH  19  20
ATOM     20  N   UNL     1       9.314  11.131  18.180  0.00  0.00    +0.000 NA
ATOM     21  H   UNL     1       9.509  10.749  17.257  0.00  0.00    +0.000 HD
ATOM     22  H   UNL     1       8.394  11.564  18.112  0.00  0.00    +0.000 HD
ENDBRANCH  19  20
ENDBRANCH  13  19
ENDBRANCH  12  16
ENDBRANCH   1  12
BRANCH   1  23
ATOM     23  C   UNL     1       3.804   6.112  17.241  0.00  0.00    +0.000 C 
BRANCH  23  24
ATOM     24  C   UNL     1       3.017   7.201  17.934  0.00  0.00    +0.000 A 
ATOM     25  N   UNL     1       2.648   8.373  17.446  0.00  0.00    +0.000 NA
ATOM     26  C   UNL     1       1.906   8.976  18.437  0.00  0.00    +0.000 A 
ATOM     27  C   UNL     1       1.243  10.214  18.444  0.00  0.00    +0.000 A 
ATOM     28  C   UNL     1       0.583  10.621  19.614  0.00  0.00    +0.000 A 
ATOM     29  C   UNL     1       0.613   9.828  20.762  0.00  0.00    +0.000 A 
ATOM     30  C   UNL     1       1.244   8.578  20.765  0.00  0.00    +0.000 A 
ATOM     31  C   UNL     1       1.849   8.175  19.570  0.00  0.00    +0.000 A 
ATOM     32  N   UNL     1       2.459   7.012  19.180  0.00  0.00    +0.000 N 
ATOM     33  H   UNL     1       2.518   6.148  19.705  0.00  0.00    +0.000 HD
ENDBRANCH  23  24
ENDBRANCH   1  23
TORSDOF 7
ENDMDL
MODEL 5
REMARK VINA RESULT:      -7.8      3.084      8.933
REMARK  Name = 
REMARK  7 active torsions:
REMARK  status: ('A' for Active; 'I' for Inactive)
REMARK    1  A    between atoms: N_1  and  C_2
REMARK    2  A    between atoms: C_2  and  C_3
REMARK    3  A    between atoms: C_6  and  C_7
REMARK    4  A    between atoms: C_7  and  N_8
REMARK    5  A    between atoms: N_8  and  C_9
REMARK    6  A    between atoms: N_8  and  C_19
REMARK    7  A    between atoms: C_9  and  C_10
REMARK                            x       y       z     vdW  Elec       q    Type
REMARK                         _______ _______ _______ _____ _____    ______ ____
ROOT
ATOM      1  N   UNL     1       0.717   9.169  19.431  0.00  0.00    +0.000 NA
ENDROOT
BRANCH   1   2
ATOM      2  C   UNL     1       0.642   9.755  20.820  0.00  0.00    +0.000 C 
ATOM      3  C   UNL     1      -0.504   9.091  21.639  0.00  0.00    +0.000 C 
ATOM      4  C   UNL     1      -0.604   9.687  23.039  0.00  0.00    +0.000 C 
ATOM      5  C   UNL     1      -0.979  11.162  22.954  0.00  0.00    +0.000 C 
ATOM      6  C   UNL     1      -0.140  11.917  21.963  0.00  0.00    +0.000 A 
ATOM      7  C   UNL     1      -0.128  13.325  22.036  0.00  0.00    +0.000 A 
ATOM      8  C   UNL     1       0.637  14.061  21.138  0.00  0.00    +0.000 A 
ATOM      9  C   UNL     1       1.376  13.369  20.205  0.00  0.00    +0.000 A 
ATOM     10  N   UNL     1       1.396  12.022  20.114  0.00  0.00    +0.000 NA
ATOM     11  C   UNL     1       0.599  11.297  20.952  0.00  0.00    +0.000 A 
ENDBRANCH   1   2
BRANCH   1  12
ATOM     12  C   UNL     1       0.309  10.167  18.417  0.00  0.00    +0.000 C 
BRANCH  12  16
ATOM     13  C   UNL     1      -3.804  11.100  17.366  0.00  0.00    +0.000 A 
ATOM     14  C   UNL     1      -3.220  11.686  18.499  0.00  0.00    +0.000 A 
ATOM     15  C   UNL     1      -1.919  11.337  18.902  0.00  0.00    +0.000 A 
ATOM     16  C   UNL     1      -1.174  10.399  18.172  0.00  0.00    +0.000 A 
ATOM     17  C   UNL     1      -1.777   9.794  17.058  0.00  0.00    +0.000 A 
ATOM     18  C   UNL     1      -3.071  10.141  16.659  0.00  0.00    +0.000 A 
BRANCH  13  19
ATOM     19  C   UNL     1      -5.172  11.512  16.876  0.00  0.00    +0.000 C 
BRANCH  19  20
ATOM     20  N   UNL     1      -5.614  12.773  17.466  0.00  0.00    +0.000 NA
ATOM     21  H   UNL     1      -6.574  12.956  17.182  0.00  0.00    +0.000 HD
ATOM     22  H   UNL     1      -5.641  12.672  18.480  0.00  0.00    +0.000 HD
ENDBRANCH  19  20
ENDBRANCH  13  19
ENDBRANCH  12  16
ENDBRANCH   1  12
BRANCH   1  23
ATOM     23  C   UNL     1       2.044   8.593  19.073  0.00  0.00    +0.000 C 
BRANCH  23  24
ATOM     24  C   UNL     1       2.291   7.153  19.461  0.00  0.00    +0.000 A 
ATOM     25  N   UNL     1       1.818   6.500  20.508  0.00  0.00    +0.000 NA
ATOM     26  C   UNL     1       2.279   5.208  20.387  0.00  0.00    +0.000 A 
ATOM     27  C   UNL     1       2.053   4.086  21.200  0.00  0.00    +0.000 A 
ATOM     28  C   UNL     1       2.685   2.876  20.875  0.00  0.00    +0.000 A 
ATOM     29  C   UNL     1       3.550   2.795  19.783  0.00  0.00    +0.000 A 
ATOM     30  C   UNL     1       3.766   3.895  18.943  0.00  0.00    +0.000 A 
ATOM     31  C   UNL     1       3.083   5.074  19.262  0.00  0.00    +0.000 A 
ATOM     32  N   UNL     1       2.976   6.287  18.635  0.00  0.00    +0.000 N 
ATOM     33  H   UNL     1       3.340   6.538  17.724  0.00  0.00    +0.000 HD
ENDBRANCH  23  24
ENDBRANCH   1  23
TORSDOF 7
ENDMDL
MODEL 6
REMARK VINA RESULT:      -7.8      2.963      7.597
REMARK  Name = 
REMARK  7 active torsions:
REMARK  status: ('A' for Active; 'I' for Inactive)
REMARK    1  A    between atoms: N_1  and  C_2
REMARK    2  A    between atoms: C_2  and  C_3
REMARK    3  A    between atoms: C_6  and  C_7
REMARK    4  A    between atoms: C_7  and  N_8
REMARK    5  A    between atoms: N_8  and  C_9
REMARK    6  A    between atoms: N_8  and  C_19
REMARK    7  A    between atoms: C_9  and  C_10
REMARK                            x       y       z     vdW  Elec       q    Type
REMARK                         _______ _______ _______ _____ _____    ______ ____
ROOT
ATOM      1  N   UNL     1       1.292   8.484  19.943  0.00  0.00    +0.000 NA
ENDROOT
BRANCH   1   2
ATOM      2  C   UNL     1       2.368   7.541  19.463  0.00  0.00    +0.000 C 
ATOM      3  C   UNL     1       2.876   7.956  18.051  0.00  0.00    +0.000 C 
ATOM      4  C   UNL     1       3.951   7.001  17.544  0.00  0.00    +0.000 C 
ATOM      5  C   UNL     1       3.367   5.605  17.362  0.00  0.00    +0.000 C 
ATOM      6  C   UNL     1       2.572   5.149  18.552  0.00  0.00    +0.000 A 
ATOM      7  C   UNL     1       2.282   3.775  18.674  0.00  0.00    +0.000 A 
ATOM      8  C   UNL     1       1.552   3.312  19.762  0.00  0.00    +0.000 A 
ATOM      9  C   UNL     1       1.145   4.232  20.702  0.00  0.00    +0.000 A 
ATOM     10  N   UNL     1       1.414   5.553  20.622  0.00  0.00    +0.000 NA
ATOM     11  C   UNL     1       2.077   6.022  19.525  0.00  0.00    +0.000 A 
ENDBRANCH   1   2
BRANCH   1  12
ATOM     12  C   UNL     1       1.496   8.835  21.366  0.00  0.00    +0.000 C 
BRANCH  12  16
ATOM     13  C   UNL     1      -1.320  11.799  22.842  0.00  0.00    +0.000 A 
ATOM     14  C   UNL     1      -0.223  12.200  22.065  0.00  0.00    +0.000 A 
ATOM     15  C   UNL     1       0.742  11.268  21.644  0.00  0.00    +0.000 A 
ATOM     16  C   UNL     1       0.624   9.914  21.989  0.00  0.00    +0.000 A 
ATOM     17  C   UNL     1      -0.459   9.526  22.794  0.00  0.00    +0.000 A 
ATOM     18  C   UNL     1      -1.418  10.453  23.212  0.00  0.00    +0.000 A 
BRANCH  13  19
ATOM     19  C   UNL     1      -2.404  12.770  23.245  0.00  0.00    +0.000 C 
BRANCH  19  20
ATOM     20  N   UNL     1      -3.571  12.094  23.805  0.00  0.00    +0.000 NA
ATOM     21  H   UNL     1      -3.858  11.346  23.177  0.00  0.00    +0.000 HD
ATOM     22  H   UNL     1      -3.302  11.635  24.675  0.00  0.00    +0.000 HD
ENDBRANCH  19  20
ENDBRANCH  13  19
ENDBRANCH  12  16
ENDBRANCH   1  12
BRANCH   1  23
ATOM     23  C   UNL     1       1.147   9.724  19.129  0.00  0.00    +0.000 C 
BRANCH  23  24
ATOM     24  C   UNL     1      -0.218   9.999  18.539  0.00  0.00    +0.000 A 
ATOM     25  N   UNL     1      -1.248  10.594  19.116  0.00  0.00    +0.000 NA
ATOM     26  C   UNL     1      -2.232  10.658  18.156  0.00  0.00    +0.000 A 
ATOM     27  C   UNL     1      -3.519  11.219  18.214  0.00  0.00    +0.000 A 
ATOM     28  C   UNL     1      -4.354  11.112  17.092  0.00  0.00    +0.000 A 
ATOM     29  C   UNL     1      -3.930  10.432  15.949  0.00  0.00    +0.000 A 
ATOM     30  C   UNL     1      -2.641   9.893  15.861  0.00  0.00    +0.000 A 
ATOM     31  C   UNL     1      -1.811  10.059  16.975  0.00  0.00    +0.000 A 
ATOM     32  N   UNL     1      -0.496   9.758  17.211  0.00  0.00    +0.000 N 
ATOM     33  H   UNL     1       0.178   9.403  16.543  0.00  0.00    +0.000 HD
ENDBRANCH  23  24
ENDBRANCH   1  23
TORSDOF 7
ENDMDL
MODEL 7
REMARK VINA RESULT:      -7.7      3.195      9.225
REMARK  Name = 
REMARK  7 active torsions:
REMARK  status: ('A' for Active; 'I' for Inactive)
REMARK    1  A    between atoms: N_1  and  C_2
REMARK    2  A    between atoms: C_2  and  C_3
REMARK    3  A    between atoms: C_6  and  C_7
REMARK    4  A    between atoms: C_7  and  N_8
REMARK    5  A    between atoms: N_8  and  C_9
REMARK    6  A    between atoms: N_8  and  C_19
REMARK    7  A    between atoms: C_9  and  C_10
REMARK                            x       y       z     vdW  Elec       q    Type
REMARK                         _______ _______ _______ _____ _____    ______ ____
ROOT
ATOM      1  N   UNL     1       0.362   9.820  19.092  0.00  0.00    +0.000 NA
ENDROOT
BRANCH   1   2
ATOM      2  C   UNL     1       0.400  10.086  20.577  0.00  0.00    +0.000 C 
ATOM      3  C   UNL     1      -0.522   9.091  21.340  0.00  0.00    +0.000 C 
ATOM      4  C   UNL     1      -0.509   9.360  22.841  0.00  0.00    +0.000 C 
ATOM      5  C   UNL     1      -1.087  10.740  23.130  0.00  0.00    +0.000 C 
ATOM      6  C   UNL     1      -0.502  11.809  22.253  0.00  0.00    +0.000 A 
ATOM      7  C   UNL     1      -0.669  13.155  22.639  0.00  0.00    +0.000 A 
ATOM      8  C   UNL     1      -0.140  14.174  21.855  0.00  0.00    +0.000 A 
ATOM      9  C   UNL     1       0.549  13.819  20.718  0.00  0.00    +0.000 A 
ATOM     10  N   UNL     1       0.738  12.541  20.324  0.00  0.00    +0.000 NA
ATOM     11  C   UNL     1       0.168  11.539  21.056  0.00  0.00    +0.000 A 
ENDBRANCH   1   2
BRANCH   1  12
ATOM     12  C   UNL     1      -0.403  10.874  18.389  0.00  0.00    +0.000 C 
BRANCH  12  16
ATOM     13  C   UNL     1      -4.745  11.034  18.239  0.00  0.00    +0.000 A 
ATOM     14  C   UNL     1      -4.036  11.951  19.029  0.00  0.00    +0.000 A 
ATOM     15  C   UNL     1      -2.638  11.867  19.154  0.00  0.00    +0.000 A 
ATOM     16  C   UNL     1      -1.921  10.866  18.483  0.00  0.00    +0.000 A 
ATOM     17  C   UNL     1      -2.640   9.932  17.720  0.00  0.00    +0.000 A 
ATOM     18  C   UNL     1      -4.031  10.016  17.596  0.00  0.00    +0.000 A 
BRANCH  13  19
ATOM     19  C   UNL     1      -6.236  11.149  18.035  0.00  0.00    +0.000 C 
BRANCH  19  20
ATOM     20  N   UNL     1      -6.980  10.179  18.834  0.00  0.00    +0.000 NA
ATOM     21  H   UNL     1      -7.797  10.633  19.236  0.00  0.00    +0.000 HD
ATOM     22  H   UNL     1      -7.344   9.452  18.218  0.00  0.00    +0.000 HD
ENDBRANCH  19  20
ENDBRANCH  13  19
ENDBRANCH  12  16
ENDBRANCH   1  12
BRANCH   1  23
ATOM     23  C   UNL     1       1.700   9.653  18.458  0.00  0.00    +0.000 C 
BRANCH  23  24
ATOM     24  C   UNL     1       2.299   8.265  18.478  0.00  0.00    +0.000 A 
ATOM     25  N   UNL     1       3.065   7.697  17.563  0.00  0.00    +0.000 NA
ATOM     26  C   UNL     1       3.398   6.460  18.066  0.00  0.00    +0.000 A 
ATOM     27  C   UNL     1       4.218   5.455  17.528  0.00  0.00    +0.000 A 
ATOM     28  C   UNL     1       4.363   4.250  18.232  0.00  0.00    +0.000 A 
ATOM     29  C   UNL     1       3.678   4.039  19.431  0.00  0.00    +0.000 A 
ATOM     30  C   UNL     1       2.880   5.039  19.998  0.00  0.00    +0.000 A 
ATOM     31  C   UNL     1       2.795   6.249  19.299  0.00  0.00    +0.000 A 
ATOM     32  N   UNL     1       2.203   7.451  19.585  0.00  0.00    +0.000 N 
ATOM     33  H   UNL     1       1.753   7.718  20.452  0.00  0.00    +0.000 HD
ENDBRANCH  23  24
ENDBRANCH   1  23
TORSDOF 7
ENDMDL
MODEL 8
REMARK VINA RESULT:      -7.6      3.002      9.008
REMARK  Name = 
REMARK  7 active torsions:
REMARK  status: ('A' for Active; 'I' for Inactive)
REMARK    1  A    between atoms: N_1  and  C_2
REMARK    2  A    between atoms: C_2  and  C_3
REMARK    3  A    between atoms: C_6  and  C_7
REMARK    4  A    between atoms: C_7  and  N_8
REMARK    5  A    between atoms: N_8  and  C_9
REMARK    6  A    between atoms: N_8  and  C_19
REMARK    7  A    between atoms: C_9  and  C_10
REMARK                            x       y       z     vdW  Elec       q    Type
REMARK                         _______ _______ _______ _____ _____    ______ ____
ROOT
ATOM      1  N   UNL     1       0.866   9.650  19.050  0.00  0.00    +0.000 NA
ENDROOT
BRANCH   1   2
ATOM      2  C   UNL     1       0.746   9.928  20.528  0.00  0.00    +0.000 C 
ATOM      3  C   UNL     1      -0.301   8.981  21.186  0.00  0.00    +0.000 C 
ATOM      4  C   UNL     1      -0.447   9.263  22.677  0.00  0.00    +0.000 C 
ATOM      5  C   UNL     1      -0.993  10.669  22.892  0.00  0.00    +0.000 C 
ATOM      6  C   UNL     1      -0.265  11.704  22.083  0.00  0.00    +0.000 A 
ATOM      7  C   UNL     1      -0.416  13.059  22.441  0.00  0.00    +0.000 A 
ATOM      8  C   UNL     1       0.243  14.048  21.719  0.00  0.00    +0.000 A 
ATOM      9  C   UNL     1       1.042  13.652  20.670  0.00  0.00    +0.000 A 
ATOM     10  N   UNL     1       1.218  12.364  20.306  0.00  0.00    +0.000 NA
ATOM     11  C   UNL     1       0.525  11.394  20.972  0.00  0.00    +0.000 A 
ENDBRANCH   1   2
BRANCH   1  12
ATOM     12  C   UNL     1       0.303  10.767  18.258  0.00  0.00    +0.000 C 
BRANCH  12  16
ATOM     13  C   UNL     1      -4.039  10.781  18.058  0.00  0.00    +0.000 A 
ATOM     14  C   UNL     1      -3.310   9.783  17.394  0.00  0.00    +0.000 A 
ATOM     15  C   UNL     1      -1.905   9.805  17.380  0.00  0.00    +0.000 A 
ATOM     16  C   UNL     1      -1.201  10.825  18.038  0.00  0.00    +0.000 A 
ATOM     17  C   UNL     1      -1.938  11.838  18.672  0.00  0.00    +0.000 A 
ATOM     18  C   UNL     1      -3.336  11.815  18.685  0.00  0.00    +0.000 A 
BRANCH  13  19
ATOM     19  C   UNL     1      -5.546  10.737  18.145  0.00  0.00    +0.000 C 
BRANCH  19  20
ATOM     20  N   UNL     1      -6.180  11.691  17.239  0.00  0.00    +0.000 NA
ATOM     21  H   UNL     1      -5.924  11.463  16.281  0.00  0.00    +0.000 HD
ATOM     22  H   UNL     1      -7.192  11.573  17.289  0.00  0.00    +0.000 HD
ENDBRANCH  19  20
ENDBRANCH  13  19
ENDBRANCH  12  16
ENDBRANCH   1  12
BRANCH   1  23
ATOM     23  C   UNL     1       2.249   9.344  18.587  0.00  0.00    +0.000 C 
BRANCH  23  24
ATOM     24  C   UNL     1       2.566   7.897  18.289  0.00  0.00    +0.000 A 
ATOM     25  N   UNL     1       1.831   6.831  18.557  0.00  0.00    +0.000 NA
ATOM     26  C   UNL     1       2.520   5.758  18.040  0.00  0.00    +0.000 A 
ATOM     27  C   UNL     1       2.184   4.395  18.011  0.00  0.00    +0.000 A 
ATOM     28  C   UNL     1       3.095   3.485  17.454  0.00  0.00    +0.000 A 
ATOM     29  C   UNL     1       4.329   3.919  16.968  0.00  0.00    +0.000 A 
ATOM     30  C   UNL     1       4.671   5.277  16.961  0.00  0.00    +0.000 A 
ATOM     31  C   UNL     1       3.722   6.167  17.475  0.00  0.00    +0.000 A 
ATOM     32  N   UNL     1       3.667   7.534  17.544  0.00  0.00    +0.000 N 
ATOM     33  H   UNL     1       4.320   8.193  17.136  0.00  0.00    +0.000 HD
ENDBRANCH  23  24
ENDBRANCH   1  23
TORSDOF 7
ENDMDL
MODEL 9
REMARK VINA RESULT:      -7.6      0.843      1.210
REMARK  Name = 
REMARK  7 active torsions:
REMARK  status: ('A' for Active; 'I' for Inactive)
REMARK    1  A    between atoms: N_1  and  C_2
REMARK    2  A    between atoms: C_2  and  C_3
REMARK    3  A    between atoms: C_6  and  C_7
REMARK    4  A    between atoms: C_7  and  N_8
REMARK    5  A    between atoms: N_8  and  C_9
REMARK    6  A    between atoms: N_8  and  C_19
REMARK    7  A    between atoms: C_9  and  C_10
REMARK                            x       y       z     vdW  Elec       q    Type
REMARK                         _______ _______ _______ _____ _____    ______ ____
ROOT
ATOM      1  N   UNL     1       3.925   5.994  18.870  0.00  0.00    +0.000 NA
ENDROOT
BRANCH   1   2
ATOM      2  C   UNL     1       3.571   4.536  18.707  0.00  0.00    +0.000 C 
ATOM      3  C   UNL     1       2.975   4.267  17.294  0.00  0.00    +0.000 C 
ATOM      4  C   UNL     1       2.594   2.801  17.121  0.00  0.00    +0.000 C 
ATOM      5  C   UNL     1       1.484   2.430  18.098  0.00  0.00    +0.000 C 
ATOM      6  C   UNL     1       1.769   2.888  19.500  0.00  0.00    +0.000 A 
ATOM      7  C   UNL     1       1.025   2.317  20.553  0.00  0.00    +0.000 A 
ATOM      8  C   UNL     1       1.261   2.711  21.865  0.00  0.00    +0.000 A 
ATOM      9  C   UNL     1       2.239   3.653  22.087  0.00  0.00    +0.000 A 
ATOM     10  N   UNL     1       2.977   4.213  21.105  0.00  0.00    +0.000 NA
ATOM     11  C   UNL     1       2.709   3.875  19.810  0.00  0.00    +0.000 A 
ENDBRANCH   1   2
BRANCH   1  12
ATOM     12  C   UNL     1       5.311   6.252  18.417  0.00  0.00    +0.000 C 
BRANCH  12  16
ATOM     13  C   UNL     1       6.880   5.136  14.520  0.00  0.00    +0.000 A 
ATOM     14  C   UNL     1       5.720   5.919  14.610  0.00  0.00    +0.000 A 
ATOM     15  C   UNL     1       5.151   6.224  15.860  0.00  0.00    +0.000 A 
ATOM     16  C   UNL     1       5.739   5.757  17.044  0.00  0.00    +0.000 A 
ATOM     17  C   UNL     1       6.882   4.948  16.944  0.00  0.00    +0.000 A 
ATOM     18  C   UNL     1       7.446   4.644  15.702  0.00  0.00    +0.000 A 
BRANCH  13  19
ATOM     19  C   UNL     1       7.546   4.855  13.195  0.00  0.00    +0.000 C 
BRANCH  19  20
ATOM     20  N   UNL     1       8.615   5.806  12.901  0.00  0.00    +0.000 NA
ATOM     21  H   UNL     1       8.214   6.734  12.782  0.00  0.00    +0.000 HD
ATOM     22  H   UNL     1       9.231   5.873  13.711  0.00  0.00    +0.000 HD
ENDBRANCH  19  20
ENDBRANCH  13  19
ENDBRANCH  12  16
ENDBRANCH   1  12
BRANCH   1  23
ATOM     23  C   UNL     1       2.987   6.938  18.199  0.00  0.00    +0.000 C 
BRANCH  23  24
ATOM     24  C   UNL     1       2.179   7.850  19.094  0.00  0.00    +0.000 A 
ATOM     25  N   UNL     1       1.524   8.948  18.757  0.00  0.00    +0.000 NA
ATOM     26  C   UNL     1       0.903   9.384  19.906  0.00  0.00    +0.000 A 
ATOM     27  C   UNL     1       0.052  10.481  20.114  0.00  0.00    +0.000 A 
ATOM     28  C   UNL     1      -0.420  10.734  21.411  0.00  0.00    +0.000 A 
ATOM     29  C   UNL     1      -0.027   9.931  22.482  0.00  0.00    +0.000 A 
ATOM     30  C   UNL     1       0.797   8.815  22.290  0.00  0.00    +0.000 A 
ATOM     31  C   UNL     1       1.211   8.557  20.979  0.00  0.00    +0.000 A 
ATOM     32  N   UNL     1       1.922   7.533  20.411  0.00  0.00    +0.000 N 
ATOM     33  H   UNL     1       2.232   6.681  20.862  0.00  0.00    +0.000 HD
ENDBRANCH  23  24
ENDBRANCH   1  23
TORSDOF 7
ENDMDL
