MODEL 1
REMARK VINA RESULT:      -7.2      0.000      0.000
REMARK  Name = 
REMARK  10 active torsions:
REMARK  status: ('A' for Active; 'I' for Inactive)
REMARK    1  A    between atoms: C_1  and  C_2
REMARK    2  A    between atoms: C_6  and  C_7
REMARK    3  A    between atoms: C_7  and  C_8
REMARK    4  A    between atoms: C_8  and  N_9
REMARK    5  A    between atoms: N_12  and  C_13
REMARK    6  A    between atoms: N_12  and  C_14
REMARK    7  A    between atoms: C_14  and  C_15
REMARK    8  A    between atoms: C_15  and  C_16
REMARK    9  A    between atoms: C_16  and  C_17
REMARK   10  A    between atoms: C_23  and  C_24
REMARK                            x       y       z     vdW  Elec       q    Type
REMARK                         _______ _______ _______ _____ _____    ______ ____
ROOT
ATOM      1  C   UNL     1       2.308   2.391  21.612  0.00  0.00    +0.000 C 
ATOM      2  C   UNL     1       2.770   3.139  20.404  0.00  0.00    +0.000 A 
ATOM      3  S   UNL     1       4.090   2.614  19.468  0.00  0.00    +0.000 S 
ATOM      4  C   UNL     1       4.040   4.006  18.478  0.00  0.00    +0.000 A 
ATOM      5  N   UNL     1       4.924   4.138  17.467  0.00  0.00    +0.000 NA
ATOM      6  C   UNL     1       4.813   5.306  16.832  0.00  0.00    +0.000 A 
ATOM      7  N   UNL     1       3.975   6.295  17.166  0.00  0.00    +0.000 NA
ATOM      8  C   UNL     1       3.125   6.171  18.232  0.00  0.00    +0.000 A 
ATOM      9  N   UNL     1       2.427   7.320  18.630  0.00  0.00    +0.000 N 
ATOM     10  C   UNL     1       2.067   7.489  20.024  0.00  0.00    +0.000 C 
ATOM     11  C   UNL     1       3.076   4.906  18.881  0.00  0.00    +0.000 A 
ATOM     12  C   UNL     1       2.214   4.308  19.901  0.00  0.00    +0.000 A 
ATOM     13  C   UNL     1       0.930   4.834  20.440  0.00  0.00    +0.000 C 
ENDROOT
BRANCH   6  14
ATOM     14  C   UNL     1       5.699   5.495  15.610  0.00  0.00    +0.000 C 
BRANCH  14  15
ATOM     15  C   UNL     1       6.793   4.429  15.487  0.00  0.00    +0.000 C 
BRANCH  15  16
ATOM     16  N   UNL     1       7.783   4.514  16.565  0.00  0.00    +0.000 NA
ATOM     17  H   UNL     1       7.607   3.788  17.257  0.00  0.00    +0.000 HD
ATOM     18  H   UNL     1       7.657   5.403  17.056  0.00  0.00    +0.000 HD
ENDBRANCH  15  16
ENDBRANCH  14  15
ENDBRANCH   6  14
BRANCH   9  19
ATOM     19  C   UNL     1       2.572   8.558  17.841  0.00  0.00    +0.000 C 
BRANCH  19  20
ATOM     20  C   UNL     1       1.287   9.369  17.966  0.00  0.00    +0.000 C 
BRANCH  20  21
ATOM     21  C   UNL     1       1.391  10.788  18.533  0.00  0.00    +0.000 C 
BRANCH  21  22
ATOM     22  C   UNL     1       0.634  10.806  19.870  0.00  0.00    +0.000 C 
ATOM     23  C   UNL     1      -0.859  11.092  19.763  0.00  0.00    +0.000 C 
ATOM     24  C   UNL     1      -1.159  11.620  21.143  0.00  0.00    +0.000 C 
ATOM     25  C   UNL     1       0.081  12.433  21.438  0.00  0.00    +0.000 C 
ATOM     26  O   UNL     1       1.176  11.806  20.745  0.00  0.00    +0.000 OA
ENDBRANCH  21  22
ENDBRANCH  20  21
ENDBRANCH  19  20
ENDBRANCH   9  19
TORSDOF 7
ENDMDL
MODEL 2
REMARK VINA RESULT:      -7.2      0.969      1.244
REMARK  Name = 
REMARK  10 active torsions:
REMARK  status: ('A' for Active; 'I' for Inactive)
REMARK    1  A    between atoms: C_1  and  C_2
REMARK    2  A    between atoms: C_6  and  C_7
REMARK    3  A    between atoms: C_7  and  C_8
REMARK    4  A    between atoms: C_8  and  N_9
REMARK    5  A    between atoms: N_12  and  C_13
REMARK    6  A    between atoms: N_12  and  C_14
REMARK    7  A    between atoms: C_14  and  C_15
REMARK    8  A    between atoms: C_15  and  C_16
REMARK    9  A    between atoms: C_16  and  C_17
REMARK   10  A    between atoms: C_23  and  C_24
REMARK                            x       y       z     vdW  Elec       q    Type
REMARK                         _______ _______ _______ _____ _____    ______ ____
ROOT
ATOM      1  C   UNL     1       2.371   2.459  21.695  0.00  0.00    +0.000 C 
ATOM      2  C   UNL     1       2.843   3.204  20.488  0.00  0.00    +0.000 A 
ATOM      3  S   UNL     1       4.206   2.710  19.600  0.00  0.00    +0.000 S 
ATOM      4  C   UNL     1       4.139   4.084  18.587  0.00  0.00    +0.000 A 
ATOM      5  N   UNL     1       5.047   4.231  17.600  0.00  0.00    +0.000 NA
ATOM      6  C   UNL     1       4.916   5.385  16.942  0.00  0.00    +0.000 A 
ATOM      7  N   UNL     1       4.035   6.349  17.236  0.00  0.00    +0.000 NA
ATOM      8  C   UNL     1       3.160   6.212  18.279  0.00  0.00    +0.000 A 
ATOM      9  N   UNL     1       2.412   7.343  18.638  0.00  0.00    +0.000 N 
ATOM     10  C   UNL     1       2.006   7.521  20.019  0.00  0.00    +0.000 C 
ATOM     11  C   UNL     1       3.134   4.957  18.947  0.00  0.00    +0.000 A 
ATOM     12  C   UNL     1       2.263   4.346  19.951  0.00  0.00    +0.000 A 
ATOM     13  C   UNL     1       0.947   4.835  20.444  0.00  0.00    +0.000 C 
ENDROOT
BRANCH   6  14
ATOM     14  C   UNL     1       5.830   5.584  15.743  0.00  0.00    +0.000 C 
BRANCH  14  15
ATOM     15  C   UNL     1       6.907   4.502  15.618  0.00  0.00    +0.000 C 
BRANCH  15  16
ATOM     16  N   UNL     1       7.843   4.507  16.748  0.00  0.00    +0.000 NA
ATOM     17  H   UNL     1       8.353   5.387  16.773  0.00  0.00    +0.000 HD
ATOM     18  H   UNL     1       8.547   3.780  16.593  0.00  0.00    +0.000 HD
ENDBRANCH  15  16
ENDBRANCH  14  15
ENDBRANCH   6  14
BRANCH   9  19
ATOM     19  C   UNL     1       2.538   8.573  17.833  0.00  0.00    +0.000 C 
BRANCH  19  20
ATOM     20  C   UNL     1       1.276   9.407  18.017  0.00  0.00    +0.000 C 
BRANCH  20  21
ATOM     21  C   UNL     1       1.425  10.802  18.632  0.00  0.00    +0.000 C 
BRANCH  21  22
ATOM     22  C   UNL     1       0.050  11.484  18.569  0.00  0.00    +0.000 C 
ATOM     23  C   UNL     1      -0.592  11.772  19.922  0.00  0.00    +0.000 C 
ATOM     24  C   UNL     1      -2.050  11.848  19.548  0.00  0.00    +0.000 C 
ATOM     25  C   UNL     1      -2.159  10.756  18.508  0.00  0.00    +0.000 C 
ATOM     26  O   UNL     1      -0.885  10.672  17.842  0.00  0.00    +0.000 OA
ENDBRANCH  21  22
ENDBRANCH  20  21
ENDBRANCH  19  20
ENDBRANCH   9  19
TORSDOF 7
ENDMDL
MODEL 3
REMARK VINA RESULT:      -7.0      1.371      1.687
REMARK  Name = 
REMARK  10 active torsions:
REMARK  status: ('A' for Active; 'I' for Inactive)
REMARK    1  A    between atoms: C_1  and  C_2
REMARK    2  A    between atoms: C_6  and  C_7
REMARK    3  A    between atoms: C_7  and  C_8
REMARK    4  A    between atoms: C_8  and  N_9
REMARK    5  A    between atoms: N_12  and  C_13
REMARK    6  A    between atoms: N_12  and  C_14
REMARK    7  A    between atoms: C_14  and  C_15
REMARK    8  A    between atoms: C_15  and  C_16
REMARK    9  A    between atoms: C_16  and  C_17
REMARK   10  A    between atoms: C_23  and  C_24
REMARK                            x       y       z     vdW  Elec       q    Type
REMARK                         _______ _______ _______ _____ _____    ______ ____
ROOT
ATOM      1  C   UNL     1       2.017   2.328  21.640  0.00  0.00    +0.000 C 
ATOM      2  C   UNL     1       2.522   3.106  20.469  0.00  0.00    +0.000 A 
ATOM      3  S   UNL     1       3.859   2.590  19.554  0.00  0.00    +0.000 S 
ATOM      4  C   UNL     1       3.857   4.013  18.607  0.00  0.00    +0.000 A 
ATOM      5  N   UNL     1       4.771   4.162  17.625  0.00  0.00    +0.000 NA
ATOM      6  C   UNL     1       4.694   5.351  17.024  0.00  0.00    +0.000 A 
ATOM      7  N   UNL     1       3.862   6.341  17.366  0.00  0.00    +0.000 NA
ATOM      8  C   UNL     1       2.982   6.198  18.405  0.00  0.00    +0.000 A 
ATOM      9  N   UNL     1       2.290   7.345  18.820  0.00  0.00    +0.000 N 
ATOM     10  C   UNL     1       1.894   7.476  20.209  0.00  0.00    +0.000 C 
ATOM     11  C   UNL     1       2.896   4.915  19.013  0.00  0.00    +0.000 A 
ATOM     12  C   UNL     1       1.997   4.299  19.990  0.00  0.00    +0.000 A 
ATOM     13  C   UNL     1       0.707   4.827  20.510  0.00  0.00    +0.000 C 
ENDROOT
BRANCH   6  14
ATOM     14  C   UNL     1       5.616   5.564  15.833  0.00  0.00    +0.000 C 
BRANCH  14  15
ATOM     15  C   UNL     1       6.764   4.550  15.769  0.00  0.00    +0.000 C 
BRANCH  15  16
ATOM     16  N   UNL     1       6.329   3.241  15.270  0.00  0.00    +0.000 NA
ATOM     17  H   UNL     1       5.888   2.712  16.019  0.00  0.00    +0.000 HD
ATOM     18  H   UNL     1       7.157   2.703  14.999  0.00  0.00    +0.000 HD
ENDBRANCH  15  16
ENDBRANCH  14  15
ENDBRANCH   6  14
BRANCH   9  19
ATOM     19  C   UNL     1       2.475   8.605  18.075  0.00  0.00    +0.000 C 
BRANCH  19  20
ATOM     20  C   UNL     1       1.103   9.179  17.741  0.00  0.00    +0.000 C 
BRANCH  20  21
ATOM     21  C   UNL     1       0.545  10.274  18.657  0.00  0.00    +0.000 C 
BRANCH  21  22
ATOM     22  C   UNL     1      -0.986  10.148  18.646  0.00  0.00    +0.000 C 
ATOM     23  C   UNL     1      -1.598   9.825  17.288  0.00  0.00    +0.000 C 
ATOM     24  C   UNL     1      -3.001  10.346  17.465  0.00  0.00    +0.000 C 
ATOM     25  C   UNL     1      -2.765  11.599  18.277  0.00  0.00    +0.000 C 
ATOM     26  O   UNL     1      -1.598  11.368  19.087  0.00  0.00    +0.000 OA
ENDBRANCH  21  22
ENDBRANCH  20  21
ENDBRANCH  19  20
ENDBRANCH   9  19
TORSDOF 7
ENDMDL
MODEL 4
REMARK VINA RESULT:      -7.0      3.102      6.784
REMARK  Name = 
REMARK  10 active torsions:
REMARK  status: ('A' for Active; 'I' for Inactive)
REMARK    1  A    between atoms: C_1  and  C_2
REMARK    2  A    between atoms: C_6  and  C_7
REMARK    3  A    between atoms: C_7  and  C_8
REMARK    4  A    between atoms: C_8  and  N_9
REMARK    5  A    between atoms: N_12  and  C_13
REMARK    6  A    between atoms: N_12  and  C_14
REMARK    7  A    between atoms: C_14  and  C_15
REMARK    8  A    between atoms: C_15  and  C_16
REMARK    9  A    between atoms: C_16  and  C_17
REMARK   10  A    between atoms: C_23  and  C_24
REMARK                            x       y       z     vdW  Elec       q    Type
REMARK                         _______ _______ _______ _____ _____    ______ ____
ROOT
ATOM      1  C   UNL     1       1.151  10.887  19.861  0.00  0.00    +0.000 C 
ATOM      2  C   UNL     1       1.324   9.405  19.920  0.00  0.00    +0.000 A 
ATOM      3  S   UNL     1       1.021   8.517  21.338  0.00  0.00    +0.000 S 
ATOM      4  C   UNL     1       1.576   7.061  20.636  0.00  0.00    +0.000 A 
ATOM      5  N   UNL     1       1.554   5.921  21.358  0.00  0.00    +0.000 NA
ATOM      6  C   UNL     1       2.086   4.885  20.707  0.00  0.00    +0.000 A 
ATOM      7  N   UNL     1       2.650   4.938  19.494  0.00  0.00    +0.000 NA
ATOM      8  C   UNL     1       2.721   6.115  18.799  0.00  0.00    +0.000 A 
ATOM      9  N   UNL     1       3.498   6.121  17.631  0.00  0.00    +0.000 N 
ATOM     10  C   UNL     1       4.159   7.345  17.222  0.00  0.00    +0.000 C 
ATOM     11  C   UNL     1       2.054   7.241  19.355  0.00  0.00    +0.000 A 
ATOM     12  C   UNL     1       1.735   8.586  18.876  0.00  0.00    +0.000 A 
ATOM     13  C   UNL     1       1.859   9.120  17.492  0.00  0.00    +0.000 C 
ENDROOT
BRANCH   6  14
ATOM     14  C   UNL     1       2.004   3.536  21.405  0.00  0.00    +0.000 C 
BRANCH  14  15
ATOM     15  C   UNL     1       1.583   2.396  20.471  0.00  0.00    +0.000 C 
BRANCH  15  16
ATOM     16  N   UNL     1       0.425   2.747  19.643  0.00  0.00    +0.000 NA
ATOM     17  H   UNL     1      -0.274   3.227  20.207  0.00  0.00    +0.000 HD
ATOM     18  H   UNL     1      -0.021   1.884  19.321  0.00  0.00    +0.000 HD
ENDBRANCH  15  16
ENDBRANCH  14  15
ENDBRANCH   6  14
BRANCH   9  19
ATOM     19  C   UNL     1       4.117   4.863  17.172  0.00  0.00    +0.000 C 
BRANCH  19  20
ATOM     20  C   UNL     1       5.129   5.187  16.080  0.00  0.00    +0.000 C 
BRANCH  20  21
ATOM     21  C   UNL     1       6.438   4.391  16.061  0.00  0.00    +0.000 C 
BRANCH  21  22
ATOM     22  C   UNL     1       7.469   5.178  16.885  0.00  0.00    +0.000 C 
ATOM     23  C   UNL     1       7.217   5.194  18.388  0.00  0.00    +0.000 C 
ATOM     24  C   UNL     1       7.955   6.443  18.798  0.00  0.00    +0.000 C 
ATOM     25  C   UNL     1       7.660   7.370  17.641  0.00  0.00    +0.000 C 
ATOM     26  O   UNL     1       7.510   6.550  16.466  0.00  0.00    +0.000 OA
ENDBRANCH  21  22
ENDBRANCH  20  21
ENDBRANCH  19  20
ENDBRANCH   9  19
TORSDOF 7
ENDMDL
MODEL 5
REMARK VINA RESULT:      -6.9      1.107      1.157
REMARK  Name = 
REMARK  10 active torsions:
REMARK  status: ('A' for Active; 'I' for Inactive)
REMARK    1  A    between atoms: C_1  and  C_2
REMARK    2  A    between atoms: C_6  and  C_7
REMARK    3  A    between atoms: C_7  and  C_8
REMARK    4  A    between atoms: C_8  and  N_9
REMARK    5  A    between atoms: N_12  and  C_13
REMARK    6  A    between atoms: N_12  and  C_14
REMARK    7  A    between atoms: C_14  and  C_15
REMARK    8  A    between atoms: C_15  and  C_16
REMARK    9  A    between atoms: C_16  and  C_17
REMARK   10  A    between atoms: C_23  and  C_24
REMARK                            x       y       z     vdW  Elec       q    Type
REMARK                         _______ _______ _______ _____ _____    ______ ____
ROOT
ATOM      1  C   UNL     1       2.544   2.390  21.649  0.00  0.00    +0.000 C 
ATOM      2  C   UNL     1       2.960   3.158  20.437  0.00  0.00    +0.000 A 
ATOM      3  S   UNL     1       4.303   2.704  19.499  0.00  0.00    +0.000 S 
ATOM      4  C   UNL     1       4.174   4.088  18.505  0.00  0.00    +0.000 A 
ATOM      5  N   UNL     1       5.046   4.265  17.490  0.00  0.00    +0.000 NA
ATOM      6  C   UNL     1       4.868   5.423  16.851  0.00  0.00    +0.000 A 
ATOM      7  N   UNL     1       3.978   6.365  17.185  0.00  0.00    +0.000 NA
ATOM      8  C   UNL     1       3.141   6.198  18.255  0.00  0.00    +0.000 A 
ATOM      9  N   UNL     1       2.381   7.308  18.651  0.00  0.00    +0.000 N 
ATOM     10  C   UNL     1       2.017   7.462  20.047  0.00  0.00    +0.000 C 
ATOM     11  C   UNL     1       3.163   4.935  18.908  0.00  0.00    +0.000 A 
ATOM     12  C   UNL     1       2.338   4.293  19.933  0.00  0.00    +0.000 A 
ATOM     13  C   UNL     1       1.030   4.749  20.474  0.00  0.00    +0.000 C 
ENDROOT
BRANCH   6  14
ATOM     14  C   UNL     1       5.739   5.656  15.626  0.00  0.00    +0.000 C 
BRANCH  14  15
ATOM     15  C   UNL     1       6.796   4.566  15.420  0.00  0.00    +0.000 C 
BRANCH  15  16
ATOM     16  N   UNL     1       6.296   3.443  14.620  0.00  0.00    +0.000 NA
ATOM     17  H   UNL     1       6.653   2.565  14.991  0.00  0.00    +0.000 HD
ATOM     18  H   UNL     1       6.676   3.520  13.673  0.00  0.00    +0.000 HD
ENDBRANCH  15  16
ENDBRANCH  14  15
ENDBRANCH   6  14
BRANCH   9  19
ATOM     19  C   UNL     1       2.455   8.550  17.858  0.00  0.00    +0.000 C 
BRANCH  19  20
ATOM     20  C   UNL     1       1.607   9.616  18.541  0.00  0.00    +0.000 C 
BRANCH  20  21
ATOM     21  C   UNL     1       0.208   9.885  17.977  0.00  0.00    +0.000 C 
BRANCH  21  22
ATOM     22  C   UNL     1      -0.510  10.828  18.954  0.00  0.00    +0.000 C 
ATOM     23  C   UNL     1      -2.000  11.019  18.690  0.00  0.00    +0.000 C 
ATOM     24  C   UNL     1      -2.249  12.350  19.352  0.00  0.00    +0.000 C 
ATOM     25  C   UNL     1      -0.983  13.105  19.014  0.00  0.00    +0.000 C 
ATOM     26  O   UNL     1       0.078  12.136  18.920  0.00  0.00    +0.000 OA
ENDBRANCH  21  22
ENDBRANCH  20  21
ENDBRANCH  19  20
ENDBRANCH   9  19
TORSDOF 7
ENDMDL
MODEL 6
REMARK VINA RESULT:      -6.8      3.397      7.426
REMARK  Name = 
REMARK  10 active torsions:
REMARK  status: ('A' for Active; 'I' for Inactive)
REMARK    1  A    between atoms: C_1  and  C_2
REMARK    2  A    between atoms: C_6  and  C_7
REMARK    3  A    between atoms: C_7  and  C_8
REMARK    4  A    between atoms: C_8  and  N_9
REMARK    5  A    between atoms: N_12  and  C_13
REMARK    6  A    between atoms: N_12  and  C_14
REMARK    7  A    between atoms: C_14  and  C_15
REMARK    8  A    between atoms: C_15  and  C_16
REMARK    9  A    between atoms: C_16  and  C_17
REMARK   10  A    between atoms: C_23  and  C_24
REMARK                            x       y       z     vdW  Elec       q    Type
REMARK                         _______ _______ _______ _____ _____    ______ ____
ROOT
ATOM      1  C   UNL     1       1.193   9.014  20.177  0.00  0.00    +0.000 C 
ATOM      2  C   UNL     1       1.816   7.706  19.813  0.00  0.00    +0.000 A 
ATOM      3  S   UNL     1       1.687   6.337  20.813  0.00  0.00    +0.000 S 
ATOM      4  C   UNL     1       2.728   5.417  19.817  0.00  0.00    +0.000 A 
ATOM      5  N   UNL     1       3.002   4.136  20.142  0.00  0.00    +0.000 NA
ATOM      6  C   UNL     1       3.886   3.571  19.317  0.00  0.00    +0.000 A 
ATOM      7  N   UNL     1       4.507   4.187  18.304  0.00  0.00    +0.000 NA
ATOM      8  C   UNL     1       4.264   5.506  18.025  0.00  0.00    +0.000 A 
ATOM      9  N   UNL     1       5.097   6.122  17.079  0.00  0.00    +0.000 N 
ATOM     10  C   UNL     1       5.374   7.541  17.190  0.00  0.00    +0.000 C 
ATOM     11  C   UNL     1       3.233   6.149  18.763  0.00  0.00    +0.000 A 
ATOM     12  C   UNL     1       2.551   7.439  18.664  0.00  0.00    +0.000 A 
ATOM     13  C   UNL     1       2.619   8.430  17.556  0.00  0.00    +0.000 C 
ENDROOT
BRANCH   6  14
ATOM     14  C   UNL     1       4.171   2.094  19.545  0.00  0.00    +0.000 C 
BRANCH  14  15
ATOM     15  C   UNL     1       3.526   1.185  18.493  0.00  0.00    +0.000 C 
BRANCH  15  16
ATOM     16  N   UNL     1       2.441   1.851  17.765  0.00  0.00    +0.000 NA
ATOM     17  H   UNL     1       1.543   1.465  18.047  0.00  0.00    +0.000 HD
ATOM     18  H   UNL     1       2.537   1.637  16.768  0.00  0.00    +0.000 HD
ENDBRANCH  15  16
ENDBRANCH  14  15
ENDBRANCH   6  14
BRANCH   9  19
ATOM     19  C   UNL     1       6.115   5.313  16.383  0.00  0.00    +0.000 C 
BRANCH  19  20
ATOM     20  C   UNL     1       5.865   5.401  14.882  0.00  0.00    +0.000 C 
BRANCH  20  21
ATOM     21  C   UNL     1       6.888   4.745  13.948  0.00  0.00    +0.000 C 
BRANCH  21  22
ATOM     22  C   UNL     1       6.210   3.523  13.309  0.00  0.00    +0.000 C 
ATOM     23  C   UNL     1       6.831   3.054  11.997  0.00  0.00    +0.000 C 
ATOM     24  C   UNL     1       5.674   2.321  11.368  0.00  0.00    +0.000 C 
ATOM     25  C   UNL     1       4.504   3.196  11.762  0.00  0.00    +0.000 C 
ATOM     26  O   UNL     1       4.830   3.799  13.028  0.00  0.00    +0.000 OA
ENDBRANCH  21  22
ENDBRANCH  20  21
ENDBRANCH  19  20
ENDBRANCH   9  19
TORSDOF 7
ENDMDL
MODEL 7
REMARK VINA RESULT:      -6.8      1.190      1.220
REMARK  Name = 
REMARK  10 active torsions:
REMARK  status: ('A' for Active; 'I' for Inactive)
REMARK    1  A    between atoms: C_1  and  C_2
REMARK    2  A    between atoms: C_6  and  C_7
REMARK    3  A    between atoms: C_7  and  C_8
REMARK    4  A    between atoms: C_8  and  N_9
REMARK    5  A    between atoms: N_12  and  C_13
REMARK    6  A    between atoms: N_12  and  C_14
REMARK    7  A    between atoms: C_14  and  C_15
REMARK    8  A    between atoms: C_15  and  C_16
REMARK    9  A    between atoms: C_16  and  C_17
REMARK   10  A    between atoms: C_23  and  C_24
REMARK                            x       y       z     vdW  Elec       q    Type
REMARK                         _______ _______ _______ _____ _____    ______ ____
ROOT
ATOM      1  C   UNL     1       1.708   2.346  21.884  0.00  0.00    +0.000 C 
ATOM      2  C   UNL     1       2.282   2.925  20.632  0.00  0.00    +0.000 A 
ATOM      3  S   UNL     1       3.504   2.137  19.752  0.00  0.00    +0.000 S 
ATOM      4  C   UNL     1       3.672   3.446  18.666  0.00  0.00    +0.000 A 
ATOM      5  N   UNL     1       4.567   3.367  17.659  0.00  0.00    +0.000 NA
ATOM      6  C   UNL     1       4.639   4.490  16.942  0.00  0.00    +0.000 A 
ATOM      7  N   UNL     1       3.964   5.618  17.196  0.00  0.00    +0.000 NA
ATOM      8  C   UNL     1       3.105   5.703  18.258  0.00  0.00    +0.000 A 
ATOM      9  N   UNL     1       2.594   6.972  18.566  0.00  0.00    +0.000 N 
ATOM     10  C   UNL     1       2.264   7.294  19.941  0.00  0.00    +0.000 C 
ATOM     11  C   UNL     1       2.859   4.511  18.994  0.00  0.00    +0.000 A 
ATOM     12  C   UNL     1       1.914   4.128  20.043  0.00  0.00    +0.000 A 
ATOM     13  C   UNL     1       0.727   4.883  20.528  0.00  0.00    +0.000 C 
ENDROOT
BRANCH   6  14
ATOM     14  C   UNL     1       5.544   4.452  15.720  0.00  0.00    +0.000 C 
BRANCH  14  15
ATOM     15  C   UNL     1       6.787   5.338  15.860  0.00  0.00    +0.000 C 
BRANCH  15  16
ATOM     16  N   UNL     1       7.635   5.309  14.664  0.00  0.00    +0.000 NA
ATOM     17  H   UNL     1       8.170   6.172  14.596  0.00  0.00    +0.000 HD
ATOM     18  H   UNL     1       7.033   5.287  13.836  0.00  0.00    +0.000 HD
ENDBRANCH  15  16
ENDBRANCH  14  15
ENDBRANCH   6  14
BRANCH   9  19
ATOM     19  C   UNL     1       2.930   8.114  17.694  0.00  0.00    +0.000 C 
BRANCH  19  20
ATOM     20  C   UNL     1       1.736   9.060  17.648  0.00  0.00    +0.000 C 
BRANCH  20  21
ATOM     21  C   UNL     1       1.966  10.518  18.058  0.00  0.00    +0.000 C 
BRANCH  21  22
ATOM     22  C   UNL     1       0.742  10.967  18.871  0.00  0.00    +0.000 C 
ATOM     23  C   UNL     1      -0.529  10.163  18.621  0.00  0.00    +0.000 C 
ATOM     24  C   UNL     1      -1.590  11.148  19.042  0.00  0.00    +0.000 C 
ATOM     25  C   UNL     1      -1.016  12.453  18.537  0.00  0.00    +0.000 C 
ATOM     26  O   UNL     1       0.418  12.335  18.587  0.00  0.00    +0.000 OA
ENDBRANCH  21  22
ENDBRANCH  20  21
ENDBRANCH  19  20
ENDBRANCH   9  19
TORSDOF 7
ENDMDL
MODEL 8
REMARK VINA RESULT:      -6.8      2.115      4.370
REMARK  Name = 
REMARK  10 active torsions:
REMARK  status: ('A' for Active; 'I' for Inactive)
REMARK    1  A    between atoms: C_1  and  C_2
REMARK    2  A    between atoms: C_6  and  C_7
REMARK    3  A    between atoms: C_7  and  C_8
REMARK    4  A    between atoms: C_8  and  N_9
REMARK    5  A    between atoms: N_12  and  C_13
REMARK    6  A    between atoms: N_12  and  C_14
REMARK    7  A    between atoms: C_14  and  C_15
REMARK    8  A    between atoms: C_15  and  C_16
REMARK    9  A    between atoms: C_16  and  C_17
REMARK   10  A    between atoms: C_23  and  C_24
REMARK                            x       y       z     vdW  Elec       q    Type
REMARK                         _______ _______ _______ _____ _____    ______ ____
ROOT
ATOM      1  C   UNL     1       5.813   5.089  15.126  0.00  0.00    +0.000 C 
ATOM      2  C   UNL     1       4.944   5.044  16.341  0.00  0.00    +0.000 A 
ATOM      3  S   UNL     1       4.274   3.592  16.917  0.00  0.00    +0.000 S 
ATOM      4  C   UNL     1       3.371   4.398  18.123  0.00  0.00    +0.000 A 
ATOM      5  N   UNL     1       2.594   3.684  18.965  0.00  0.00    +0.000 NA
ATOM      6  C   UNL     1       1.893   4.452  19.801  0.00  0.00    +0.000 A 
ATOM      7  N   UNL     1       1.881   5.790  19.798  0.00  0.00    +0.000 NA
ATOM      8  C   UNL     1       2.627   6.502  18.898  0.00  0.00    +0.000 A 
ATOM      9  N   UNL     1       2.406   7.886  18.836  0.00  0.00    +0.000 N 
ATOM     10  C   UNL     1       2.599   8.584  17.580  0.00  0.00    +0.000 C 
ATOM     11  C   UNL     1       3.513   5.768  18.062  0.00  0.00    +0.000 A 
ATOM     12  C   UNL     1       4.580   6.129  17.128  0.00  0.00    +0.000 A 
ATOM     13  C   UNL     1       5.213   7.461  16.929  0.00  0.00    +0.000 C 
ENDROOT
BRANCH   6  14
ATOM     14  C   UNL     1       1.073   3.726  20.856  0.00  0.00    +0.000 C 
BRANCH  14  15
ATOM     15  C   UNL     1       1.655   2.361  21.239  0.00  0.00    +0.000 C 
BRANCH  15  16
ATOM     16  N   UNL     1       2.991   2.468  21.834  0.00  0.00    +0.000 NA
ATOM     17  H   UNL     1       3.553   1.660  21.576  0.00  0.00    +0.000 HD
ATOM     18  H   UNL     1       2.900   2.431  22.853  0.00  0.00    +0.000 HD
ENDBRANCH  15  16
ENDBRANCH  14  15
ENDBRANCH   6  14
BRANCH   9  19
ATOM     19  C   UNL     1       1.462   8.506  19.786  0.00  0.00    +0.000 C 
BRANCH  19  20
ATOM     20  C   UNL     1       1.126   9.908  19.293  0.00  0.00    +0.000 C 
BRANCH  20  21
ATOM     21  C   UNL     1      -0.230  10.499  19.693  0.00  0.00    +0.000 C 
BRANCH  21  22
ATOM     22  C   UNL     1      -0.940  10.938  18.403  0.00  0.00    +0.000 C 
ATOM     23  C   UNL     1      -2.366  11.444  18.591  0.00  0.00    +0.000 C 
ATOM     24  C   UNL     1      -2.944  11.215  17.217  0.00  0.00    +0.000 C 
ATOM     25  C   UNL     1      -2.302   9.903  16.827  0.00  0.00    +0.000 C 
ATOM     26  O   UNL     1      -1.016   9.850  17.471  0.00  0.00    +0.000 OA
ENDBRANCH  21  22
ENDBRANCH  20  21
ENDBRANCH  19  20
ENDBRANCH   9  19
TORSDOF 7
ENDMDL
MODEL 9
REMARK VINA RESULT:      -6.8      1.968      4.220
REMARK  Name = 
REMARK  10 active torsions:
REMARK  status: ('A' for Active; 'I' for Inactive)
REMARK    1  A    between atoms: C_1  and  C_2
REMARK    2  A    between atoms: C_6  and  C_7
REMARK    3  A    between atoms: C_7  and  C_8
REMARK    4  A    between atoms: C_8  and  N_9
REMARK    5  A    between atoms: N_12  and  C_13
REMARK    6  A    between atoms: N_12  and  C_14
REMARK    7  A    between atoms: C_14  and  C_15
REMARK    8  A    between atoms: C_15  and  C_16
REMARK    9  A    between atoms: C_16  and  C_17
REMARK   10  A    between atoms: C_23  and  C_24
REMARK                            x       y       z     vdW  Elec       q    Type
REMARK                         _______ _______ _______ _____ _____    ______ ____
ROOT
ATOM      1  C   UNL     1       6.298   4.940  15.209  0.00  0.00    +0.000 C 
ATOM      2  C   UNL     1       5.308   4.793  16.318  0.00  0.00    +0.000 A 
ATOM      3  S   UNL     1       4.529   3.317  16.642  0.00  0.00    +0.000 S 
ATOM      4  C   UNL     1       3.538   4.016  17.846  0.00  0.00    +0.000 A 
ATOM      5  N   UNL     1       2.653   3.246  18.513  0.00  0.00    +0.000 NA
ATOM      6  C   UNL     1       1.900   3.942  19.366  0.00  0.00    +0.000 A 
ATOM      7  N   UNL     1       1.938   5.270  19.529  0.00  0.00    +0.000 NA
ATOM      8  C   UNL     1       2.799   6.047  18.801  0.00  0.00    +0.000 A 
ATOM      9  N   UNL     1       2.636   7.437  18.891  0.00  0.00    +0.000 N 
ATOM     10  C   UNL     1       2.983   8.270  17.756  0.00  0.00    +0.000 C 
ATOM     11  C   UNL     1       3.737   5.375  17.970  0.00  0.00    +0.000 A 
ATOM     12  C   UNL     1       4.907   5.792  17.196  0.00  0.00    +0.000 A 
ATOM     13  C   UNL     1       5.606   7.105  17.226  0.00  0.00    +0.000 C 
ENDROOT
BRANCH   6  14
ATOM     14  C   UNL     1       0.950   3.136  20.238  0.00  0.00    +0.000 C 
BRANCH  14  15
ATOM     15  C   UNL     1       1.526   2.813  21.621  0.00  0.00    +0.000 C 
BRANCH  15  16
ATOM     16  N   UNL     1       2.993   2.788  21.626  0.00  0.00    +0.000 NA
ATOM     17  H   UNL     1       3.331   2.381  22.495  0.00  0.00    +0.000 HD
ATOM     18  H   UNL     1       3.336   3.753  21.618  0.00  0.00    +0.000 HD
ENDBRANCH  15  16
ENDBRANCH  14  15
ENDBRANCH   6  14
BRANCH   9  19
ATOM     19  C   UNL     1       1.625   7.984  19.815  0.00  0.00    +0.000 C 
BRANCH  19  20
ATOM     20  C   UNL     1       1.258   9.391  19.357  0.00  0.00    +0.000 C 
BRANCH  20  21
ATOM     21  C   UNL     1       0.231  10.167  20.189  0.00  0.00    +0.000 C 
BRANCH  21  22
ATOM     22  C   UNL     1      -1.070  10.230  19.374  0.00  0.00    +0.000 C 
ATOM     23  C   UNL     1      -0.915   9.933  17.887  0.00  0.00    +0.000 C 
ATOM     24  C   UNL     1      -2.125  10.629  17.319  0.00  0.00    +0.000 C 
ATOM     25  C   UNL     1      -2.195  11.874  18.174  0.00  0.00    +0.000 C 
ATOM     26  O   UNL     1      -1.663  11.533  19.468  0.00  0.00    +0.000 OA
ENDBRANCH  21  22
ENDBRANCH  20  21
ENDBRANCH  19  20
ENDBRANCH   9  19
TORSDOF 7
ENDMDL
