MODEL 1
REMARK VINA RESULT:      -8.0      0.000      0.000
REMARK  Name = 
REMARK  4 active torsions:
REMARK  status: ('A' for Active; 'I' for Inactive)
REMARK    1  A    between atoms: C_1  and  O_2
REMARK    2  A    between atoms: O_2  and  C_3
REMARK    3  A    between atoms: C_9  and  N_10
REMARK    4  A    between atoms: C_12  and  C_13
REMARK                            x       y       z     vdW  Elec       q    Type
REMARK                         _______ _______ _______ _____ _____    ______ ____
ROOT
ATOM      1  N   UNL     1       4.920   5.555  18.287  0.00  0.00    +0.000 N 
ATOM      2  C   UNL     1       5.098   6.698  17.412  0.00  0.00    +0.000 C 
ATOM      3  C   UNL     1       6.493   6.510  16.835  0.00  0.00    +0.000 C 
ATOM      4  C   UNL     1       7.246   5.841  17.976  0.00  0.00    +0.000 C 
ATOM      5  C   UNL     1       6.170   5.045  18.676  0.00  0.00    +0.000 C 
ATOM      6  O   UNL     1       6.411   4.107  19.421  0.00  0.00    +0.000 OA
ENDROOT
BRANCH   3   7
ATOM      7  C   UNL     1       6.468   5.676  15.586  0.00  0.00    +0.000 A 
ATOM      8  N   UNL     1       7.460   5.547  14.729  0.00  0.00    +0.000 NA
ATOM      9  C   UNL     1       6.988   4.726  13.733  0.00  0.00    +0.000 A 
ATOM     10  C   UNL     1       7.623   4.265  12.572  0.00  0.00    +0.000 A 
ATOM     11  C   UNL     1       6.912   3.422  11.708  0.00  0.00    +0.000 A 
ATOM     12  C   UNL     1       5.597   3.045  11.996  0.00  0.00    +0.000 A 
ATOM     13  C   UNL     1       4.946   3.500  13.148  0.00  0.00    +0.000 A 
ATOM     14  C   UNL     1       5.679   4.339  13.988  0.00  0.00    +0.000 A 
ATOM     15  N   UNL     1       5.366   4.965  15.165  0.00  0.00    +0.000 N 
ATOM     16  H   UNL     1       4.468   4.925  15.629  0.00  0.00    +0.000 HD
ENDBRANCH   3   7
BRANCH   1  23
ATOM     17  C   UNL     1       2.991   4.002  18.631  0.00  0.00    +0.000 A 
ATOM     18  C   UNL     1       1.727   3.761  19.196  0.00  0.00    +0.000 A 
ATOM     19  C   UNL     1       1.124   4.711  20.017  0.00  0.00    +0.000 A 
ATOM     20  C   UNL     1       1.789   5.896  20.297  0.00  0.00    +0.000 A 
ATOM     21 CL   UNL     1       1.048   7.066  21.318  0.00  0.00    +0.000 Cl
ATOM     22  C   UNL     1       3.046   6.148  19.747  0.00  0.00    +0.000 A 
ATOM     23  C   UNL     1       3.665   5.222  18.888  0.00  0.00    +0.000 A 
BRANCH  17  25
ATOM     24  C   UNL     1       3.485   1.681  18.364  0.00  0.00    +0.000 C 
ATOM     25  O   UNL     1       3.665   3.028  17.940  0.00  0.00    +0.000 OA
ENDBRANCH  17  25
ENDBRANCH   1  23
TORSDOF 3
ENDMDL
MODEL 2
REMARK VINA RESULT:      -7.9      0.096      1.189
REMARK  Name = 
REMARK  4 active torsions:
REMARK  status: ('A' for Active; 'I' for Inactive)
REMARK    1  A    between atoms: C_1  and  O_2
REMARK    2  A    between atoms: O_2  and  C_3
REMARK    3  A    between atoms: C_9  and  N_10
REMARK    4  A    between atoms: C_12  and  C_13
REMARK                            x       y       z     vdW  Elec       q    Type
REMARK                         _______ _______ _______ _____ _____    ______ ____
ROOT
ATOM      1  N   UNL     1       4.877   5.559  18.263  0.00  0.00    +0.000 N 
ATOM      2  C   UNL     1       5.044   6.701  17.383  0.00  0.00    +0.000 C 
ATOM      3  C   UNL     1       6.418   6.493  16.763  0.00  0.00    +0.000 C 
ATOM      4  C   UNL     1       7.196   5.812  17.879  0.00  0.00    +0.000 C 
ATOM      5  C   UNL     1       6.131   5.030  18.611  0.00  0.00    +0.000 C 
ATOM      6  O   UNL     1       6.382   4.089  19.348  0.00  0.00    +0.000 OA
ENDROOT
BRANCH   3   7
ATOM      7  C   UNL     1       6.341   5.662  15.514  0.00  0.00    +0.000 A 
ATOM      8  N   UNL     1       5.308   4.937  15.137  0.00  0.00    +0.000 NA
ATOM      9  C   UNL     1       5.687   4.327  13.966  0.00  0.00    +0.000 A 
ATOM     10  C   UNL     1       4.978   3.443  13.142  0.00  0.00    +0.000 A 
ATOM     11  C   UNL     1       5.600   2.960  11.983  0.00  0.00    +0.000 A 
ATOM     12  C   UNL     1       6.902   3.349  11.654  0.00  0.00    +0.000 A 
ATOM     13  C   UNL     1       7.627   4.226  12.468  0.00  0.00    +0.000 A 
ATOM     14  C   UNL     1       6.981   4.689  13.614  0.00  0.00    +0.000 A 
ATOM     15  N   UNL     1       7.380   5.529  14.619  0.00  0.00    +0.000 N 
ATOM     16  H   UNL     1       8.293   5.958  14.697  0.00  0.00    +0.000 HD
ENDBRANCH   3   7
BRANCH   1  23
ATOM     17  C   UNL     1       2.965   4.011  18.708  0.00  0.00    +0.000 A 
ATOM     18  C   UNL     1       1.715   3.785  19.307  0.00  0.00    +0.000 A 
ATOM     19  C   UNL     1       1.123   4.764  20.102  0.00  0.00    +0.000 A 
ATOM     20  C   UNL     1       1.786   5.963  20.321  0.00  0.00    +0.000 A 
ATOM     21 CL   UNL     1       1.058   7.168  21.310  0.00  0.00    +0.000 Cl
ATOM     22  C   UNL     1       3.030   6.200  19.736  0.00  0.00    +0.000 A 
ATOM     23  C   UNL     1       3.637   5.243  18.902  0.00  0.00    +0.000 A 
BRANCH  17  25
ATOM     24  C   UNL     1       3.453   1.681  18.511  0.00  0.00    +0.000 C 
ATOM     25  O   UNL     1       3.631   3.013  18.042  0.00  0.00    +0.000 OA
ENDBRANCH  17  25
ENDBRANCH   1  23
TORSDOF 3
ENDMDL
MODEL 3
REMARK VINA RESULT:      -7.9      1.681      2.346
REMARK  Name = 
REMARK  4 active torsions:
REMARK  status: ('A' for Active; 'I' for Inactive)
REMARK    1  A    between atoms: C_1  and  O_2
REMARK    2  A    between atoms: O_2  and  C_3
REMARK    3  A    between atoms: C_9  and  N_10
REMARK    4  A    between atoms: C_12  and  C_13
REMARK                            x       y       z     vdW  Elec       q    Type
REMARK                         _______ _______ _______ _____ _____    ______ ____
ROOT
ATOM      1  N   UNL     1       4.481   5.434  18.401  0.00  0.00    +0.000 N 
ATOM      2  C   UNL     1       4.560   6.602  17.543  0.00  0.00    +0.000 C 
ATOM      3  C   UNL     1       5.995   6.593  17.036  0.00  0.00    +0.000 C 
ATOM      4  C   UNL     1       6.767   6.006  18.207  0.00  0.00    +0.000 C 
ATOM      5  C   UNL     1       5.764   5.075  18.847  0.00  0.00    +0.000 C 
ATOM      6  O   UNL     1       6.082   4.165  19.597  0.00  0.00    +0.000 OA
ENDROOT
BRANCH   3   7
ATOM      7  C   UNL     1       6.132   5.778  15.781  0.00  0.00    +0.000 A 
ATOM      8  N   UNL     1       7.200   5.730  15.010  0.00  0.00    +0.000 NA
ATOM      9  C   UNL     1       6.871   4.894  13.970  0.00  0.00    +0.000 A 
ATOM     10  C   UNL     1       7.632   4.495  12.863  0.00  0.00    +0.000 A 
ATOM     11  C   UNL     1       7.056   3.618  11.934  0.00  0.00    +0.000 A 
ATOM     12  C   UNL     1       5.751   3.149  12.105  0.00  0.00    +0.000 A 
ATOM     13  C   UNL     1       4.975   3.541  13.202  0.00  0.00    +0.000 A 
ATOM     14  C   UNL     1       5.575   4.415  14.108  0.00  0.00    +0.000 A 
ATOM     15  N   UNL     1       5.121   5.000  15.260  0.00  0.00    +0.000 N 
ATOM     16  H   UNL     1       4.192   4.893  15.646  0.00  0.00    +0.000 HD
ENDBRANCH   3   7
BRANCH   1  23
ATOM     17  C   UNL     1       2.477   5.670  19.877  0.00  0.00    +0.000 A 
ATOM     18  C   UNL     1       1.311   5.106  20.420  0.00  0.00    +0.000 A 
ATOM     19  C   UNL     1       0.895   3.832  20.039  0.00  0.00    +0.000 A 
ATOM     20  C   UNL     1       1.628   3.125  19.097  0.00  0.00    +0.000 A 
ATOM     21 CL   UNL     1       1.110   1.555  18.620  0.00  0.00    +0.000 Cl
ATOM     22  C   UNL     1       2.787   3.673  18.545  0.00  0.00    +0.000 A 
ATOM     23  C   UNL     1       3.249   4.943  18.936  0.00  0.00    +0.000 A 
BRANCH  17  25
ATOM     24  C   UNL     1       1.785   7.943  20.119  0.00  0.00    +0.000 C 
ATOM     25  O   UNL     1       2.827   6.972  20.127  0.00  0.00    +0.000 OA
ENDBRANCH  17  25
ENDBRANCH   1  23
TORSDOF 3
ENDMDL
MODEL 4
REMARK VINA RESULT:      -7.9      1.681      2.640
REMARK  Name = 
REMARK  4 active torsions:
REMARK  status: ('A' for Active; 'I' for Inactive)
REMARK    1  A    between atoms: C_1  and  O_2
REMARK    2  A    between atoms: O_2  and  C_3
REMARK    3  A    between atoms: C_9  and  N_10
REMARK    4  A    between atoms: C_12  and  C_13
REMARK                            x       y       z     vdW  Elec       q    Type
REMARK                         _______ _______ _______ _____ _____    ______ ____
ROOT
ATOM      1  N   UNL     1       4.415   5.401  18.419  0.00  0.00    +0.000 N 
ATOM      2  C   UNL     1       4.511   6.585  17.585  0.00  0.00    +0.000 C 
ATOM      3  C   UNL     1       5.934   6.547  17.050  0.00  0.00    +0.000 C 
ATOM      4  C   UNL     1       6.711   5.912  18.194  0.00  0.00    +0.000 C 
ATOM      5  C   UNL     1       5.694   4.997  18.832  0.00  0.00    +0.000 C 
ATOM      6  O   UNL     1       6.000   4.061  19.556  0.00  0.00    +0.000 OA
ENDROOT
BRANCH   3   7
ATOM      7  C   UNL     1       6.025   5.757  15.775  0.00  0.00    +0.000 A 
ATOM      8  N   UNL     1       5.076   4.990  15.279  0.00  0.00    +0.000 NA
ATOM      9  C   UNL     1       5.600   4.443  14.132  0.00  0.00    +0.000 A 
ATOM     10  C   UNL     1       5.024   3.551  13.217  0.00  0.00    +0.000 A 
ATOM     11  C   UNL     1       5.781   3.144  12.110  0.00  0.00    +0.000 A 
ATOM     12  C   UNL     1       7.083   3.616  11.920  0.00  0.00    +0.000 A 
ATOM     13  C   UNL     1       7.675   4.502  12.826  0.00  0.00    +0.000 A 
ATOM     14  C   UNL     1       6.898   4.888  13.918  0.00  0.00    +0.000 A 
ATOM     15  N   UNL     1       7.150   5.713  14.982  0.00  0.00    +0.000 N 
ATOM     16  H   UNL     1       8.025   6.189  15.160  0.00  0.00    +0.000 HD
ENDBRANCH   3   7
BRANCH   1  23
ATOM     17  C   UNL     1       2.394   5.705  19.859  0.00  0.00    +0.000 A 
ATOM     18  C   UNL     1       1.224   5.165  20.420  0.00  0.00    +0.000 A 
ATOM     19  C   UNL     1       0.818   3.870  20.103  0.00  0.00    +0.000 A 
ATOM     20  C   UNL     1       1.565   3.118  19.209  0.00  0.00    +0.000 A 
ATOM     21 CL   UNL     1       1.059   1.521  18.811  0.00  0.00    +0.000 Cl
ATOM     22  C   UNL     1       2.727   3.642  18.640  0.00  0.00    +0.000 A 
ATOM     23  C   UNL     1       3.178   4.933  18.967  0.00  0.00    +0.000 A 
BRANCH  17  25
ATOM     24  C   UNL     1       1.707   7.910  20.468  0.00  0.00    +0.000 C 
ATOM     25  O   UNL     1       2.735   7.021  20.042  0.00  0.00    +0.000 OA
ENDBRANCH  17  25
ENDBRANCH   1  23
TORSDOF 3
ENDMDL
MODEL 5
REMARK VINA RESULT:      -7.3      3.209      5.435
REMARK  Name = 
REMARK  4 active torsions:
REMARK  status: ('A' for Active; 'I' for Inactive)
REMARK    1  A    between atoms: C_1  and  O_2
REMARK    2  A    between atoms: O_2  and  C_3
REMARK    3  A    between atoms: C_9  and  N_10
REMARK    4  A    between atoms: C_12  and  C_13
REMARK                            x       y       z     vdW  Elec       q    Type
REMARK                         _______ _______ _______ _____ _____    ______ ____
ROOT
ATOM      1  N   UNL     1       5.306   5.538  18.444  0.00  0.00    +0.000 N 
ATOM      2  C   UNL     1       6.580   5.330  19.107  0.00  0.00    +0.000 C 
ATOM      3  C   UNL     1       7.610   5.756  18.072  0.00  0.00    +0.000 C 
ATOM      4  C   UNL     1       6.953   5.367  16.757  0.00  0.00    +0.000 C 
ATOM      5  C   UNL     1       5.480   5.524  17.050  0.00  0.00    +0.000 C 
ATOM      6  O   UNL     1       4.634   5.643  16.176  0.00  0.00    +0.000 OA
ENDROOT
BRANCH   3   7
ATOM      7  C   UNL     1       7.910   7.225  18.161  0.00  0.00    +0.000 A 
ATOM      8  N   UNL     1       7.467   8.150  17.333  0.00  0.00    +0.000 NA
ATOM      9  C   UNL     1       8.010   9.334  17.772  0.00  0.00    +0.000 A 
ATOM     10  C   UNL     1       7.876  10.630  17.256  0.00  0.00    +0.000 A 
ATOM     11  C   UNL     1       8.540  11.681  17.902  0.00  0.00    +0.000 A 
ATOM     12  C   UNL     1       9.322  11.445  19.036  0.00  0.00    +0.000 A 
ATOM     13  C   UNL     1       9.472  10.157  19.561  0.00  0.00    +0.000 A 
ATOM     14  C   UNL     1       8.800   9.131  18.897  0.00  0.00    +0.000 A 
ATOM     15  N   UNL     1       8.729   7.782  19.118  0.00  0.00    +0.000 N 
ATOM     16  H   UNL     1       9.218   7.282  19.849  0.00  0.00    +0.000 HD
ENDBRANCH   3   7
BRANCH   1  23
ATOM     17  C   UNL     1       3.146   6.540  19.206  0.00  0.00    +0.000 A 
ATOM     18  C   UNL     1       1.960   6.419  19.948  0.00  0.00    +0.000 A 
ATOM     19  C   UNL     1       1.653   5.229  20.606  0.00  0.00    +0.000 A 
ATOM     20  C   UNL     1       2.519   4.150  20.508  0.00  0.00    +0.000 A 
ATOM     21 CL   UNL     1       2.136   2.678  21.314  0.00  0.00    +0.000 Cl
ATOM     22  C   UNL     1       3.699   4.254  19.771  0.00  0.00    +0.000 A 
ATOM     23  C   UNL     1       4.050   5.452  19.124  0.00  0.00    +0.000 A 
BRANCH  17  25
ATOM     24  C   UNL     1       2.287   8.278  17.811  0.00  0.00    +0.000 C 
ATOM     25  O   UNL     1       3.399   7.647  18.435  0.00  0.00    +0.000 OA
ENDBRANCH  17  25
ENDBRANCH   1  23
TORSDOF 3
ENDMDL
MODEL 6
REMARK VINA RESULT:      -7.3      3.050      6.906
REMARK  Name = 
REMARK  4 active torsions:
REMARK  status: ('A' for Active; 'I' for Inactive)
REMARK    1  A    between atoms: C_1  and  O_2
REMARK    2  A    between atoms: O_2  and  C_3
REMARK    3  A    between atoms: C_9  and  N_10
REMARK    4  A    between atoms: C_12  and  C_13
REMARK                            x       y       z     vdW  Elec       q    Type
REMARK                         _______ _______ _______ _____ _____    ______ ____
ROOT
ATOM      1  N   UNL     1       6.038   5.052  15.441  0.00  0.00    +0.000 N 
ATOM      2  C   UNL     1       6.630   4.360  16.570  0.00  0.00    +0.000 C 
ATOM      3  C   UNL     1       6.030   5.051  17.785  0.00  0.00    +0.000 C 
ATOM      4  C   UNL     1       5.861   6.487  17.311  0.00  0.00    +0.000 C 
ATOM      5  C   UNL     1       5.608   6.331  15.830  0.00  0.00    +0.000 C 
ATOM      6  O   UNL     1       5.087   7.200  15.147  0.00  0.00    +0.000 OA
ENDROOT
BRANCH   3   7
ATOM      7  C   UNL     1       4.732   4.417  18.197  0.00  0.00    +0.000 A 
ATOM      8  N   UNL     1       4.167   3.379  17.616  0.00  0.00    +0.000 NA
ATOM      9  C   UNL     1       2.992   3.165  18.295  0.00  0.00    +0.000 A 
ATOM     10  C   UNL     1       2.000   2.196  18.094  0.00  0.00    +0.000 A 
ATOM     11  C   UNL     1       0.884   2.191  18.941  0.00  0.00    +0.000 A 
ATOM     12  C   UNL     1       0.759   3.133  19.966  0.00  0.00    +0.000 A 
ATOM     13  C   UNL     1       1.736   4.111  20.179  0.00  0.00    +0.000 A 
ATOM     14  C   UNL     1       2.835   4.091  19.319  0.00  0.00    +0.000 A 
ATOM     15  N   UNL     1       3.948   4.883  19.230  0.00  0.00    +0.000 N 
ATOM     16  H   UNL     1       4.144   5.687  19.812  0.00  0.00    +0.000 HD
ENDBRANCH   3   7
BRANCH   1  23
ATOM     17  C   UNL     1       7.306   4.885  13.292  0.00  0.00    +0.000 A 
ATOM     18  C   UNL     1       7.350   4.470  11.951  0.00  0.00    +0.000 A 
ATOM     19  C   UNL     1       6.285   3.767  11.390  0.00  0.00    +0.000 A 
ATOM     20  C   UNL     1       5.183   3.456  12.173  0.00  0.00    +0.000 A 
ATOM     21 CL   UNL     1       3.872   2.580  11.484  0.00  0.00    +0.000 Cl
ATOM     22  C   UNL     1       5.127   3.857  13.508  0.00  0.00    +0.000 A 
ATOM     23  C   UNL     1       6.172   4.596  14.091  0.00  0.00    +0.000 A 
BRANCH  17  25
ATOM     24  C   UNL     1       9.359   6.085  13.069  0.00  0.00    +0.000 C 
ATOM     25  O   UNL     1       8.397   5.450  13.904  0.00  0.00    +0.000 OA
ENDBRANCH  17  25
ENDBRANCH   1  23
TORSDOF 3
ENDMDL
MODEL 7
REMARK VINA RESULT:      -7.2      2.796      4.973
REMARK  Name = 
REMARK  4 active torsions:
REMARK  status: ('A' for Active; 'I' for Inactive)
REMARK    1  A    between atoms: C_1  and  O_2
REMARK    2  A    between atoms: O_2  and  C_3
REMARK    3  A    between atoms: C_9  and  N_10
REMARK    4  A    between atoms: C_12  and  C_13
REMARK                            x       y       z     vdW  Elec       q    Type
REMARK                         _______ _______ _______ _____ _____    ______ ____
ROOT
ATOM      1  N   UNL     1       5.315   5.394  18.383  0.00  0.00    +0.000 N 
ATOM      2  C   UNL     1       6.610   5.179  19.002  0.00  0.00    +0.000 C 
ATOM      3  C   UNL     1       7.606   5.651  17.953  0.00  0.00    +0.000 C 
ATOM      4  C   UNL     1       6.914   5.300  16.644  0.00  0.00    +0.000 C 
ATOM      5  C   UNL     1       5.449   5.430  16.985  0.00  0.00    +0.000 C 
ATOM      6  O   UNL     1       4.577   5.570  16.141  0.00  0.00    +0.000 OA
ENDROOT
BRANCH   3   7
ATOM      7  C   UNL     1       7.892   7.120  18.084  0.00  0.00    +0.000 A 
ATOM      8  N   UNL     1       7.455   8.063  17.274  0.00  0.00    +0.000 NA
ATOM      9  C   UNL     1       7.982   9.239  17.751  0.00  0.00    +0.000 A 
ATOM     10  C   UNL     1       7.845  10.547  17.267  0.00  0.00    +0.000 A 
ATOM     11  C   UNL     1       8.492  11.586  17.949  0.00  0.00    +0.000 A 
ATOM     12  C   UNL     1       9.258  11.327  19.088  0.00  0.00    +0.000 A 
ATOM     13  C   UNL     1       9.411  10.026  19.583  0.00  0.00    +0.000 A 
ATOM     14  C   UNL     1       8.756   9.013  18.882  0.00  0.00    +0.000 A 
ATOM     15  N   UNL     1       8.693   7.658  19.068  0.00  0.00    +0.000 N 
ATOM     16  H   UNL     1       9.174   7.143  19.793  0.00  0.00    +0.000 HD
ENDBRANCH   3   7
BRANCH   1  23
ATOM     17  C   UNL     1       3.461   4.022  19.346  0.00  0.00    +0.000 A 
ATOM     18  C   UNL     1       2.214   3.969  19.990  0.00  0.00    +0.000 A 
ATOM     19  C   UNL     1       1.574   5.138  20.396  0.00  0.00    +0.000 A 
ATOM     20  C   UNL     1       2.188   6.364  20.181  0.00  0.00    +0.000 A 
ATOM     21 CL   UNL     1       1.402   7.808  20.689  0.00  0.00    +0.000 Cl
ATOM     22  C   UNL     1       3.428   6.433  19.546  0.00  0.00    +0.000 A 
ATOM     23  C   UNL     1       4.081   5.271  19.096  0.00  0.00    +0.000 A 
BRANCH  17  25
ATOM     24  C   UNL     1       3.514   1.864  18.323  0.00  0.00    +0.000 C 
ATOM     25  O   UNL     1       4.173   2.883  19.068  0.00  0.00    +0.000 OA
ENDBRANCH  17  25
ENDBRANCH   1  23
TORSDOF 3
ENDMDL
MODEL 8
REMARK VINA RESULT:      -7.1      3.048      6.888
REMARK  Name = 
REMARK  4 active torsions:
REMARK  status: ('A' for Active; 'I' for Inactive)
REMARK    1  A    between atoms: C_1  and  O_2
REMARK    2  A    between atoms: O_2  and  C_3
REMARK    3  A    between atoms: C_9  and  N_10
REMARK    4  A    between atoms: C_12  and  C_13
REMARK                            x       y       z     vdW  Elec       q    Type
REMARK                         _______ _______ _______ _____ _____    ______ ____
ROOT
ATOM      1  N   UNL     1       6.079   5.085  15.459  0.00  0.00    +0.000 N 
ATOM      2  C   UNL     1       6.658   4.383  16.589  0.00  0.00    +0.000 C 
ATOM      3  C   UNL     1       6.067   5.084  17.803  0.00  0.00    +0.000 C 
ATOM      4  C   UNL     1       5.922   6.522  17.329  0.00  0.00    +0.000 C 
ATOM      5  C   UNL     1       5.669   6.371  15.848  0.00  0.00    +0.000 C 
ATOM      6  O   UNL     1       5.164   7.248  15.164  0.00  0.00    +0.000 OA
ENDROOT
BRANCH   3   7
ATOM      7  C   UNL     1       4.757   4.471  18.212  0.00  0.00    +0.000 A 
ATOM      8  N   UNL     1       3.911   4.981  19.084  0.00  0.00    +0.000 NA
ATOM      9  C   UNL     1       2.877   4.079  19.171  0.00  0.00    +0.000 A 
ATOM     10  C   UNL     1       1.714   4.117  19.952  0.00  0.00    +0.000 A 
ATOM     11  C   UNL     1       0.803   3.057  19.851  0.00  0.00    +0.000 A 
ATOM     12  C   UNL     1       1.046   1.983  18.991  0.00  0.00    +0.000 A 
ATOM     13  C   UNL     1       2.205   1.926  18.208  0.00  0.00    +0.000 A 
ATOM     14  C   UNL     1       3.093   2.994  18.330  0.00  0.00    +0.000 A 
ATOM     15  N   UNL     1       4.299   3.261  17.740  0.00  0.00    +0.000 N 
ATOM     16  H   UNL     1       4.778   2.655  17.086  0.00  0.00    +0.000 HD
ENDBRANCH   3   7
BRANCH   1  23
ATOM     17  C   UNL     1       7.334   4.926  13.302  0.00  0.00    +0.000 A 
ATOM     18  C   UNL     1       7.373   4.509  11.961  0.00  0.00    +0.000 A 
ATOM     19  C   UNL     1       6.312   3.794  11.410  0.00  0.00    +0.000 A 
ATOM     20  C   UNL     1       5.218   3.472  12.201  0.00  0.00    +0.000 A 
ATOM     21 CL   UNL     1       3.911   2.582  11.522  0.00  0.00    +0.000 Cl
ATOM     22  C   UNL     1       5.167   3.876  13.535  0.00  0.00    +0.000 A 
ATOM     23  C   UNL     1       6.208   4.628  14.109  0.00  0.00    +0.000 A 
BRANCH  17  25
ATOM     24  C   UNL     1       9.409   6.083  13.058  0.00  0.00    +0.000 C 
ATOM     25  O   UNL     1       8.423   5.503  13.905  0.00  0.00    +0.000 OA
ENDBRANCH  17  25
ENDBRANCH   1  23
TORSDOF 3
ENDMDL
MODEL 9
REMARK VINA RESULT:      -7.0      3.055      7.101
REMARK  Name = 
REMARK  4 active torsions:
REMARK  status: ('A' for Active; 'I' for Inactive)
REMARK    1  A    between atoms: C_1  and  O_2
REMARK    2  A    between atoms: O_2  and  C_3
REMARK    3  A    between atoms: C_9  and  N_10
REMARK    4  A    between atoms: C_12  and  C_13
REMARK                            x       y       z     vdW  Elec       q    Type
REMARK                         _______ _______ _______ _____ _____    ______ ____
ROOT
ATOM      1  N   UNL     1       4.641   4.431  17.490  0.00  0.00    +0.000 N 
ATOM      2  C   UNL     1       3.217   4.205  17.320  0.00  0.00    +0.000 C 
ATOM      3  C   UNL     1       2.658   4.284  18.733  0.00  0.00    +0.000 C 
ATOM      4  C   UNL     1       3.791   3.724  19.580  0.00  0.00    +0.000 C 
ATOM      5  C   UNL     1       5.026   4.118  18.804  0.00  0.00    +0.000 C 
ATOM      6  O   UNL     1       6.140   4.164  19.302  0.00  0.00    +0.000 OA
ENDROOT
BRANCH   3   7
ATOM      7  C   UNL     1       2.294   5.694  19.105  0.00  0.00    +0.000 A 
ATOM      8  N   UNL     1       1.948   6.105  20.308  0.00  0.00    +0.000 NA
ATOM      9  C   UNL     1       1.674   7.445  20.179  0.00  0.00    +0.000 A 
ATOM     10  C   UNL     1       1.256   8.374  21.142  0.00  0.00    +0.000 A 
ATOM     11  C   UNL     1       1.047   9.702  20.747  0.00  0.00    +0.000 A 
ATOM     12  C   UNL     1       1.250  10.096  19.422  0.00  0.00    +0.000 A 
ATOM     13  C   UNL     1       1.662   9.181  18.446  0.00  0.00    +0.000 A 
ATOM     14  C   UNL     1       1.861   7.867  18.869  0.00  0.00    +0.000 A 
ATOM     15  N   UNL     1       2.244   6.734  18.203  0.00  0.00    +0.000 N 
ATOM     16  H   UNL     1       2.434   6.673  17.211  0.00  0.00    +0.000 HD
ENDBRANCH   3   7
BRANCH   1  23
ATOM     17  C   UNL     1       6.542   5.633  16.400  0.00  0.00    +0.000 A 
ATOM     18  C   UNL     1       7.343   5.837  15.264  0.00  0.00    +0.000 A 
ATOM     19  C   UNL     1       7.161   5.063  14.119  0.00  0.00    +0.000 A 
ATOM     20  C   UNL     1       6.194   4.068  14.112  0.00  0.00    +0.000 A 
ATOM     21 CL   UNL     1       5.975   3.106  12.702  0.00  0.00    +0.000 Cl
ATOM     22  C   UNL     1       5.394   3.851  15.234  0.00  0.00    +0.000 A 
ATOM     23  C   UNL     1       5.533   4.639  16.391  0.00  0.00    +0.000 A 
BRANCH  17  25
ATOM     24  C   UNL     1       7.593   7.460  17.523  0.00  0.00    +0.000 C 
ATOM     25  O   UNL     1       6.797   6.282  17.582  0.00  0.00    +0.000 OA
ENDBRANCH  17  25
ENDBRANCH   1  23
TORSDOF 3
ENDMDL
