MODEL 1
REMARK VINA RESULT:      -8.6      0.000      0.000
REMARK  Name = 
REMARK  4 active torsions:
REMARK  status: ('A' for Active; 'I' for Inactive)
REMARK    1  A    between atoms: C_2  and  C_15
REMARK    2  A    between atoms: C_18  and  C_19
REMARK    3  A    between atoms: N_24  and  C_25
REMARK    4  A    between atoms: C_25  and  C_26
REMARK                            x       y       z     vdW  Elec       q    Type
REMARK                         _______ _______ _______ _____ _____    ______ ____
ROOT
ATOM      1  C   UNL     1       1.053   9.475  19.900  0.00  0.00    +0.000 A 
ATOM      2  C   UNL     1       0.441   8.884  21.012  0.00  0.00    +0.000 A 
ATOM      3  C   UNL     1      -0.386   9.642  21.841  0.00  0.00    +0.000 A 
ATOM      4  C   UNL     1      -0.605  10.999  21.567  0.00  0.00    +0.000 A 
ATOM      5  C   UNL     1       0.086  11.602  20.507  0.00  0.00    +0.000 A 
ATOM      6  C   UNL     1       0.875  10.837  19.643  0.00  0.00    +0.000 A 
ENDROOT
BRANCH   1   8
ATOM      7  O   UNL     1       2.005   9.006  17.838  0.00  0.00    +0.000 OA
ATOM      8  C   UNL     1       1.831   8.611  18.984  0.00  0.00    +0.000 C 
ATOM      9  N   UNL     1       2.210   7.386  19.497  0.00  0.00    +0.000 N 
ATOM     10  C   UNL     1       3.002   6.474  18.844  0.00  0.00    +0.000 A 
ATOM     11  N   UNL     1       3.691   6.801  17.815  0.00  0.00    +0.000 NA
ATOM     12  C   UNL     1       4.434   5.885  17.082  0.00  0.00    +0.000 A 
ATOM     13  C   UNL     1       5.012   6.358  15.895  0.00  0.00    +0.000 A 
ATOM     14  C   UNL     1       5.741   5.512  15.061  0.00  0.00    +0.000 A 
ATOM     15  C   UNL     1       5.904   4.174  15.407  0.00  0.00    +0.000 A 
ATOM     16  C   UNL     1       5.348   3.695  16.594  0.00  0.00    +0.000 A 
ATOM     17  C   UNL     1       4.615   4.552  17.433  0.00  0.00    +0.000 A 
ATOM     18  C   UNL     1       4.056   4.022  18.684  0.00  0.00    +0.000 A 
ATOM     19  O   UNL     1       4.392   2.911  19.081  0.00  0.00    +0.000 OA
ATOM     20  S   UNL     1       2.893   4.934  19.608  0.00  0.00    +0.000 S 
ATOM     21  H   UNL     1       1.787   7.062  20.354  0.00  0.00    +0.000 HD
ENDBRANCH   1   8
BRANCH   4  22
ATOM     22  C   UNL     1      -1.518  11.755  22.467  0.00  0.00    +0.000 C 
ATOM     23  O   UNL     1      -1.239  11.760  23.666  0.00  0.00    +0.000 OA
ATOM     24  N   UNL     1      -2.623  12.426  21.960  0.00  0.00    +0.000 N 
ATOM     25  C   UNL     1      -3.378  13.318  22.846  0.00  0.00    +0.000 C 
ATOM     26  C   UNL     1      -3.611  14.687  22.173  0.00  0.00    +0.000 C 
ATOM     27  N   UNL     1      -4.172  14.630  20.798  0.00  0.00    +0.000 NA
ATOM     28  C   UNL     1      -3.359  13.693  19.988  0.00  0.00    +0.000 C 
ATOM     29  C   UNL     1      -3.220  12.294  20.625  0.00  0.00    +0.000 C 
BRANCH  27  30
ATOM     30  C   UNL     1      -5.590  14.224  20.770  0.00  0.00    +0.000 C 
BRANCH  30  31
ATOM     31  C   UNL     1      -6.224  14.329  19.403  0.00  0.00    +0.000 A 
ATOM     32  C   UNL     1      -6.580  13.178  18.689  0.00  0.00    +0.000 A 
ATOM     33  C   UNL     1      -7.088  13.284  17.395  0.00  0.00    +0.000 A 
ATOM     34  C   UNL     1      -7.256  14.539  16.813  0.00  0.00    +0.000 A 
ATOM     35  C   UNL     1      -6.938  15.692  17.528  0.00  0.00    +0.000 A 
ATOM     36  C   UNL     1      -6.428  15.589  18.820  0.00  0.00    +0.000 A 
ENDBRANCH  30  31
ENDBRANCH  27  30
ENDBRANCH   4  22
TORSDOF 4
ENDMDL
MODEL 2
REMARK VINA RESULT:      -8.4      2.959      3.648
REMARK  Name = 
REMARK  4 active torsions:
REMARK  status: ('A' for Active; 'I' for Inactive)
REMARK    1  A    between atoms: C_2  and  C_15
REMARK    2  A    between atoms: C_18  and  C_19
REMARK    3  A    between atoms: N_24  and  C_25
REMARK    4  A    between atoms: C_25  and  C_26
REMARK                            x       y       z     vdW  Elec       q    Type
REMARK                         _______ _______ _______ _____ _____    ______ ____
ROOT
ATOM      1  C   UNL     1       0.985   9.103  19.954  0.00  0.00    +0.000 A 
ATOM      2  C   UNL     1       0.044   9.990  19.416  0.00  0.00    +0.000 A 
ATOM      3  C   UNL     1      -0.676  10.841  20.257  0.00  0.00    +0.000 A 
ATOM      4  C   UNL     1      -0.462  10.809  21.641  0.00  0.00    +0.000 A 
ATOM      5  C   UNL     1       0.412   9.853  22.176  0.00  0.00    +0.000 A 
ATOM      6  C   UNL     1       1.173   9.034  21.337  0.00  0.00    +0.000 A 
ENDROOT
BRANCH   1   8
ATOM      7  O   UNL     1       1.998   8.750  17.899  0.00  0.00    +0.000 OA
ATOM      8  C   UNL     1       1.805   8.299  19.021  0.00  0.00    +0.000 C 
ATOM      9  N   UNL     1       2.199   7.060  19.487  0.00  0.00    +0.000 N 
ATOM     10  C   UNL     1       3.027   6.197  18.814  0.00  0.00    +0.000 A 
ATOM     11  N   UNL     1       3.734   6.585  17.820  0.00  0.00    +0.000 NA
ATOM     12  C   UNL     1       4.517   5.720  17.066  0.00  0.00    +0.000 A 
ATOM     13  C   UNL     1       5.113   6.259  15.918  0.00  0.00    +0.000 A 
ATOM     14  C   UNL     1       5.882   5.468  15.065  0.00  0.00    +0.000 A 
ATOM     15  C   UNL     1       6.066   4.120  15.355  0.00  0.00    +0.000 A 
ATOM     16  C   UNL     1       5.492   3.575  16.504  0.00  0.00    +0.000 A 
ATOM     17  C   UNL     1       4.718   4.376  17.361  0.00  0.00    +0.000 A 
ATOM     18  C   UNL     1       4.140   3.777  18.572  0.00  0.00    +0.000 A 
ATOM     19  O   UNL     1       4.492   2.657  18.927  0.00  0.00    +0.000 OA
ATOM     20  S   UNL     1       2.934   4.621  19.505  0.00  0.00    +0.000 S 
ATOM     21  H   UNL     1       1.761   6.688  20.317  0.00  0.00    +0.000 HD
ENDBRANCH   1   8
BRANCH   4  22
ATOM     22  C   UNL     1      -1.235  11.757  22.489  0.00  0.00    +0.000 C 
ATOM     23  O   UNL     1      -1.901  11.269  23.404  0.00  0.00    +0.000 OA
ATOM     24  N   UNL     1      -1.191  13.124  22.252  0.00  0.00    +0.000 N 
ATOM     25  C   UNL     1      -1.803  14.033  23.227  0.00  0.00    +0.000 C 
ATOM     26  C   UNL     1      -0.833  15.173  23.595  0.00  0.00    +0.000 C 
ATOM     27  N   UNL     1      -0.229  15.889  22.442  0.00  0.00    +0.000 NA
ATOM     28  C   UNL     1       0.343  14.892  21.507  0.00  0.00    +0.000 C 
ATOM     29  C   UNL     1      -0.670  13.814  21.065  0.00  0.00    +0.000 C 
BRANCH  27  30
ATOM     30  C   UNL     1      -1.190  16.755  21.732  0.00  0.00    +0.000 C 
BRANCH  30  31
ATOM     31  C   UNL     1      -0.642  17.356  20.460  0.00  0.00    +0.000 A 
ATOM     32  C   UNL     1      -1.260  17.110  19.228  0.00  0.00    +0.000 A 
ATOM     33  C   UNL     1      -0.698  17.601  18.050  0.00  0.00    +0.000 A 
ATOM     34  C   UNL     1       0.476  18.350  18.097  0.00  0.00    +0.000 A 
ATOM     35  C   UNL     1       1.080  18.630  19.322  0.00  0.00    +0.000 A 
ATOM     36  C   UNL     1       0.523  18.139  20.500  0.00  0.00    +0.000 A 
ENDBRANCH  30  31
ENDBRANCH  27  30
ENDBRANCH   4  22
TORSDOF 4
ENDMDL
MODEL 3
REMARK VINA RESULT:      -8.2      2.985      3.596
REMARK  Name = 
REMARK  4 active torsions:
REMARK  status: ('A' for Active; 'I' for Inactive)
REMARK    1  A    between atoms: C_2  and  C_15
REMARK    2  A    between atoms: C_18  and  C_19
REMARK    3  A    between atoms: N_24  and  C_25
REMARK    4  A    between atoms: C_25  and  C_26
REMARK                            x       y       z     vdW  Elec       q    Type
REMARK                         _______ _______ _______ _____ _____    ______ ____
ROOT
ATOM      1  C   UNL     1       1.262   9.226  19.702  0.00  0.00    +0.000 A 
ATOM      2  C   UNL     1       1.322   8.919  21.067  0.00  0.00    +0.000 A 
ATOM      3  C   UNL     1       0.523   9.615  21.976  0.00  0.00    +0.000 A 
ATOM      4  C   UNL     1      -0.340  10.623  21.527  0.00  0.00    +0.000 A 
ATOM      5  C   UNL     1      -0.322  10.986  20.174  0.00  0.00    +0.000 A 
ATOM      6  C   UNL     1       0.437  10.260  19.252  0.00  0.00    +0.000 A 
ENDROOT
BRANCH   1   8
ATOM      7  O   UNL     1       2.336   8.880  17.677  0.00  0.00    +0.000 OA
ATOM      8  C   UNL     1       2.040   8.392  18.760  0.00  0.00    +0.000 C 
ATOM      9  N   UNL     1       2.279   7.094  19.168  0.00  0.00    +0.000 N 
ATOM     10  C   UNL     1       3.046   6.185  18.482  0.00  0.00    +0.000 A 
ATOM     11  N   UNL     1       3.839   6.550  17.546  0.00  0.00    +0.000 NA
ATOM     12  C   UNL     1       4.564   5.649  16.777  0.00  0.00    +0.000 A 
ATOM     13  C   UNL     1       5.272   6.183  15.691  0.00  0.00    +0.000 A 
ATOM     14  C   UNL     1       5.996   5.363  14.828  0.00  0.00    +0.000 A 
ATOM     15  C   UNL     1       6.024   3.989  15.044  0.00  0.00    +0.000 A 
ATOM     16  C   UNL     1       5.338   3.446  16.131  0.00  0.00    +0.000 A 
ATOM     17  C   UNL     1       4.610   4.277  16.999  0.00  0.00    +0.000 A 
ATOM     18  C   UNL     1       3.912   3.677  18.145  0.00  0.00    +0.000 A 
ATOM     19  O   UNL     1       4.126   2.508  18.447  0.00  0.00    +0.000 OA
ATOM     20  S   UNL     1       2.754   4.592  19.072  0.00  0.00    +0.000 S 
ATOM     21  H   UNL     1       1.763   6.726  19.954  0.00  0.00    +0.000 HD
ENDBRANCH   1   8
BRANCH   4  22
ATOM     22  C   UNL     1      -1.190  11.315  22.535  0.00  0.00    +0.000 C 
ATOM     23  O   UNL     1      -1.702  10.613  23.407  0.00  0.00    +0.000 OA
ATOM     24  N   UNL     1      -1.380  12.689  22.482  0.00  0.00    +0.000 N 
ATOM     25  C   UNL     1      -2.057  13.354  23.601  0.00  0.00    +0.000 C 
ATOM     26  C   UNL     1      -1.255  14.585  24.070  0.00  0.00    +0.000 C 
ATOM     27  N   UNL     1      -0.858  15.530  22.994  0.00  0.00    +0.000 NA
ATOM     28  C   UNL     1      -0.204  14.767  21.905  0.00  0.00    +0.000 C 
ATOM     29  C   UNL     1      -1.062  13.599  21.374  0.00  0.00    +0.000 C 
BRANCH  27  30
ATOM     30  C   UNL     1      -1.993  16.306  22.458  0.00  0.00    +0.000 C 
BRANCH  30  31
ATOM     31  C   UNL     1      -2.899  16.872  23.524  0.00  0.00    +0.000 A 
ATOM     32  C   UNL     1      -4.225  16.440  23.641  0.00  0.00    +0.000 A 
ATOM     33  C   UNL     1      -5.076  17.029  24.575  0.00  0.00    +0.000 A 
ATOM     34  C   UNL     1      -4.604  18.043  25.406  0.00  0.00    +0.000 A 
ATOM     35  C   UNL     1      -3.276  18.457  25.322  0.00  0.00    +0.000 A 
ATOM     36  C   UNL     1      -2.424  17.872  24.388  0.00  0.00    +0.000 A 
ENDBRANCH  30  31
ENDBRANCH  27  30
ENDBRANCH   4  22
TORSDOF 4
ENDMDL
MODEL 4
REMARK VINA RESULT:      -8.2      0.440      1.213
REMARK  Name = 
REMARK  4 active torsions:
REMARK  status: ('A' for Active; 'I' for Inactive)
REMARK    1  A    between atoms: C_2  and  C_15
REMARK    2  A    between atoms: C_18  and  C_19
REMARK    3  A    between atoms: N_24  and  C_25
REMARK    4  A    between atoms: C_25  and  C_26
REMARK                            x       y       z     vdW  Elec       q    Type
REMARK                         _______ _______ _______ _____ _____    ______ ____
ROOT
ATOM      1  C   UNL     1       0.963   9.268  19.799  0.00  0.00    +0.000 A 
ATOM      2  C   UNL     1       0.447  10.483  19.333  0.00  0.00    +0.000 A 
ATOM      3  C   UNL     1      -0.248  11.327  20.202  0.00  0.00    +0.000 A 
ATOM      4  C   UNL     1      -0.433  10.960  21.541  0.00  0.00    +0.000 A 
ATOM      5  C   UNL     1       0.006   9.701  21.972  0.00  0.00    +0.000 A 
ATOM      6  C   UNL     1       0.746   8.875  21.122  0.00  0.00    +0.000 A 
ENDROOT
BRANCH   1   8
ATOM      7  O   UNL     1       2.062   8.938  17.784  0.00  0.00    +0.000 OA
ATOM      8  C   UNL     1       1.788   8.457  18.876  0.00  0.00    +0.000 C 
ATOM      9  N   UNL     1       2.093   7.182  19.311  0.00  0.00    +0.000 N 
ATOM     10  C   UNL     1       2.909   6.301  18.646  0.00  0.00    +0.000 A 
ATOM     11  N   UNL     1       3.686   6.688  17.704  0.00  0.00    +0.000 NA
ATOM     12  C   UNL     1       4.460   5.811  16.956  0.00  0.00    +0.000 A 
ATOM     13  C   UNL     1       5.143   6.360  15.862  0.00  0.00    +0.000 A 
ATOM     14  C   UNL     1       5.913   5.561  15.017  0.00  0.00    +0.000 A 
ATOM     15  C   UNL     1       6.012   4.195  15.262  0.00  0.00    +0.000 A 
ATOM     16  C   UNL     1       5.351   3.639  16.358  0.00  0.00    +0.000 A 
ATOM     17  C   UNL     1       4.577   4.448  17.207  0.00  0.00    +0.000 A 
ATOM     18  C   UNL     1       3.907   3.836  18.362  0.00  0.00    +0.000 A 
ATOM     19  O   UNL     1       4.181   2.686  18.689  0.00  0.00    +0.000 OA
ATOM     20  S   UNL     1       2.699   4.707  19.268  0.00  0.00    +0.000 S 
ATOM     21  H   UNL     1       1.594   6.803  20.103  0.00  0.00    +0.000 HD
ENDBRANCH   1   8
BRANCH   4  22
ATOM     22  C   UNL     1      -1.156  11.908  22.432  0.00  0.00    +0.000 C 
ATOM     23  O   UNL     1      -0.686  12.084  23.557  0.00  0.00    +0.000 OA
ATOM     24  N   UNL     1      -2.302  12.560  21.997  0.00  0.00    +0.000 N 
ATOM     25  C   UNL     1      -2.867  13.629  22.827  0.00  0.00    +0.000 C 
ATOM     26  C   UNL     1      -3.152  14.886  21.979  0.00  0.00    +0.000 C 
ATOM     27  N   UNL     1      -3.932  14.649  20.736  0.00  0.00    +0.000 NA
ATOM     28  C   UNL     1      -3.299  13.544  19.979  0.00  0.00    +0.000 C 
ATOM     29  C   UNL     1      -3.113  12.257  20.811  0.00  0.00    +0.000 C 
BRANCH  27  30
ATOM     30  C   UNL     1      -5.351  14.337  20.995  0.00  0.00    +0.000 C 
BRANCH  30  31
ATOM     31  C   UNL     1      -6.206  14.324  19.751  0.00  0.00    +0.000 A 
ATOM     32  C   UNL     1      -6.441  15.502  19.031  0.00  0.00    +0.000 A 
ATOM     33  C   UNL     1      -7.299  15.495  17.933  0.00  0.00    +0.000 A 
ATOM     34  C   UNL     1      -7.916  14.309  17.538  0.00  0.00    +0.000 A 
ATOM     35  C   UNL     1      -7.661  13.123  18.226  0.00  0.00    +0.000 A 
ATOM     36  C   UNL     1      -6.807  13.129  19.325  0.00  0.00    +0.000 A 
ENDBRANCH  30  31
ENDBRANCH  27  30
ENDBRANCH   4  22
TORSDOF 4
ENDMDL
MODEL 5
REMARK VINA RESULT:      -8.2      1.894      2.534
REMARK  Name = 
REMARK  4 active torsions:
REMARK  status: ('A' for Active; 'I' for Inactive)
REMARK    1  A    between atoms: C_2  and  C_15
REMARK    2  A    between atoms: C_18  and  C_19
REMARK    3  A    between atoms: N_24  and  C_25
REMARK    4  A    between atoms: C_25  and  C_26
REMARK                            x       y       z     vdW  Elec       q    Type
REMARK                         _______ _______ _______ _____ _____    ______ ____
ROOT
ATOM      1  C   UNL     1       1.485   9.035  19.578  0.00  0.00    +0.000 A 
ATOM      2  C   UNL     1       1.054   8.432  20.765  0.00  0.00    +0.000 A 
ATOM      3  C   UNL     1       0.239   9.136  21.653  0.00  0.00    +0.000 A 
ATOM      4  C   UNL     1      -0.148  10.451  21.361  0.00  0.00    +0.000 A 
ATOM      5  C   UNL     1       0.366  11.077  20.217  0.00  0.00    +0.000 A 
ATOM      6  C   UNL     1       1.140  10.361  19.300  0.00  0.00    +0.000 A 
ENDROOT
BRANCH   1   8
ATOM      7  O   UNL     1       2.620   8.755  17.575  0.00  0.00    +0.000 OA
ATOM      8  C   UNL     1       2.254   8.218  18.613  0.00  0.00    +0.000 C 
ATOM      9  N   UNL     1       2.403   6.885  18.946  0.00  0.00    +0.000 N 
ATOM     10  C   UNL     1       3.146   5.978  18.231  0.00  0.00    +0.000 A 
ATOM     11  N   UNL     1       3.995   6.354  17.350  0.00  0.00    +0.000 NA
ATOM     12  C   UNL     1       4.701   5.463  16.552  0.00  0.00    +0.000 A 
ATOM     13  C   UNL     1       5.479   6.022  15.529  0.00  0.00    +0.000 A 
ATOM     14  C   UNL     1       6.192   5.216  14.642  0.00  0.00    +0.000 A 
ATOM     15  C   UNL     1       6.135   3.832  14.770  0.00  0.00    +0.000 A 
ATOM     16  C   UNL     1       5.376   3.263  15.794  0.00  0.00    +0.000 A 
ATOM     17  C   UNL     1       4.661   4.079  16.687  0.00  0.00    +0.000 A 
ATOM     18  C   UNL     1       3.885   3.451  17.765  0.00  0.00    +0.000 A 
ATOM     19  O   UNL     1       4.022   2.255  17.999  0.00  0.00    +0.000 OA
ATOM     20  S   UNL     1       2.743   4.372  18.706  0.00  0.00    +0.000 S 
ATOM     21  H   UNL     1       1.837   6.499  19.687  0.00  0.00    +0.000 HD
ENDBRANCH   1   8
BRANCH   4  22
ATOM     22  C   UNL     1      -1.040  11.148  22.327  0.00  0.00    +0.000 C 
ATOM     23  O   UNL     1      -0.979  10.785  23.503  0.00  0.00    +0.000 OA
ATOM     24  N   UNL     1      -1.890  12.163  21.907  0.00  0.00    +0.000 N 
ATOM     25  C   UNL     1      -2.601  12.954  22.917  0.00  0.00    +0.000 C 
ATOM     26  C   UNL     1      -2.444  14.462  22.638  0.00  0.00    +0.000 C 
ATOM     27  N   UNL     1      -2.758  14.886  21.249  0.00  0.00    +0.000 NA
ATOM     28  C   UNL     1      -2.013  14.021  20.305  0.00  0.00    +0.000 C 
ATOM     29  C   UNL     1      -2.259  12.513  20.530  0.00  0.00    +0.000 C 
BRANCH  27  30
ATOM     30  C   UNL     1      -4.201  14.843  20.943  0.00  0.00    +0.000 C 
BRANCH  30  31
ATOM     31  C   UNL     1      -5.044  15.680  21.874  0.00  0.00    +0.000 A 
ATOM     32  C   UNL     1      -4.906  17.073  21.907  0.00  0.00    +0.000 A 
ATOM     33  C   UNL     1      -5.629  17.829  22.828  0.00  0.00    +0.000 A 
ATOM     34  C   UNL     1      -6.504  17.200  23.712  0.00  0.00    +0.000 A 
ATOM     35  C   UNL     1      -6.676  15.817  23.664  0.00  0.00    +0.000 A 
ATOM     36  C   UNL     1      -5.952  15.060  22.746  0.00  0.00    +0.000 A 
ENDBRANCH  30  31
ENDBRANCH  27  30
ENDBRANCH   4  22
TORSDOF 4
ENDMDL
MODEL 6
REMARK VINA RESULT:      -8.2      1.978      2.763
REMARK  Name = 
REMARK  4 active torsions:
REMARK  status: ('A' for Active; 'I' for Inactive)
REMARK    1  A    between atoms: C_2  and  C_15
REMARK    2  A    between atoms: C_18  and  C_19
REMARK    3  A    between atoms: N_24  and  C_25
REMARK    4  A    between atoms: C_25  and  C_26
REMARK                            x       y       z     vdW  Elec       q    Type
REMARK                         _______ _______ _______ _____ _____    ______ ____
ROOT
ATOM      1  C   UNL     1       0.726   9.287  21.250  0.00  0.00    +0.000 A 
ATOM      2  C   UNL     1       0.121   9.361  22.511  0.00  0.00    +0.000 A 
ATOM      3  C   UNL     1      -0.440  10.562  22.948  0.00  0.00    +0.000 A 
ATOM      4  C   UNL     1      -0.399  11.698  22.129  0.00  0.00    +0.000 A 
ATOM      5  C   UNL     1       0.291  11.637  20.910  0.00  0.00    +0.000 A 
ATOM      6  C   UNL     1       0.810  10.426  20.445  0.00  0.00    +0.000 A 
ENDROOT
BRANCH   1   8
ATOM      7  O   UNL     1       0.931   6.986  21.456  0.00  0.00    +0.000 OA
ATOM      8  C   UNL     1       1.208   7.969  20.780  0.00  0.00    +0.000 C 
ATOM      9  N   UNL     1       2.012   7.994  19.657  0.00  0.00    +0.000 N 
ATOM     10  C   UNL     1       2.495   6.881  19.015  0.00  0.00    +0.000 A 
ATOM     11  N   UNL     1       2.009   5.716  19.235  0.00  0.00    +0.000 NA
ATOM     12  C   UNL     1       2.529   4.561  18.667  0.00  0.00    +0.000 A 
ATOM     13  C   UNL     1       1.992   3.347  19.118  0.00  0.00    +0.000 A 
ATOM     14  C   UNL     1       2.473   2.126  18.647  0.00  0.00    +0.000 A 
ATOM     15  C   UNL     1       3.501   2.105  17.711  0.00  0.00    +0.000 A 
ATOM     16  C   UNL     1       4.033   3.307  17.240  0.00  0.00    +0.000 A 
ATOM     17  C   UNL     1       3.545   4.535  17.717  0.00  0.00    +0.000 A 
ATOM     18  C   UNL     1       4.113   5.783  17.190  0.00  0.00    +0.000 A 
ATOM     19  O   UNL     1       4.855   5.753  16.214  0.00  0.00    +0.000 OA
ATOM     20  S   UNL     1       3.777   7.316  17.949  0.00  0.00    +0.000 S 
ATOM     21  H   UNL     1       2.387   8.877  19.343  0.00  0.00    +0.000 HD
ENDBRANCH   1   8
BRANCH   4  22
ATOM     22  C   UNL     1      -1.036  12.946  22.631  0.00  0.00    +0.000 C 
ATOM     23  O   UNL     1      -0.360  13.654  23.379  0.00  0.00    +0.000 OA
ATOM     24  N   UNL     1      -2.330  13.284  22.258  0.00  0.00    +0.000 N 
ATOM     25  C   UNL     1      -2.845  14.611  22.612  0.00  0.00    +0.000 C 
ATOM     26  C   UNL     1      -3.484  15.293  21.385  0.00  0.00    +0.000 C 
ATOM     27  N   UNL     1      -4.475  14.469  20.646  0.00  0.00    +0.000 NA
ATOM     28  C   UNL     1      -3.874  13.147  20.353  0.00  0.00    +0.000 C 
ATOM     29  C   UNL     1      -3.330  12.429  21.606  0.00  0.00    +0.000 C 
BRANCH  27  30
ATOM     30  C   UNL     1      -5.744  14.296  21.379  0.00  0.00    +0.000 C 
BRANCH  30  31
ATOM     31  C   UNL     1      -6.509  13.056  20.984  0.00  0.00    +0.000 A 
ATOM     32  C   UNL     1      -7.113  12.248  21.955  0.00  0.00    +0.000 A 
ATOM     33  C   UNL     1      -7.746  11.062  21.587  0.00  0.00    +0.000 A 
ATOM     34  C   UNL     1      -7.791  10.683  20.247  0.00  0.00    +0.000 A 
ATOM     35  C   UNL     1      -7.224  11.498  19.268  0.00  0.00    +0.000 A 
ATOM     36  C   UNL     1      -6.588  12.682  19.634  0.00  0.00    +0.000 A 
ENDBRANCH  30  31
ENDBRANCH  27  30
ENDBRANCH   4  22
TORSDOF 4
ENDMDL
MODEL 7
REMARK VINA RESULT:      -8.1      1.524      2.304
REMARK  Name = 
REMARK  4 active torsions:
REMARK  status: ('A' for Active; 'I' for Inactive)
REMARK    1  A    between atoms: C_2  and  C_15
REMARK    2  A    between atoms: C_18  and  C_19
REMARK    3  A    between atoms: N_24  and  C_25
REMARK    4  A    between atoms: C_25  and  C_26
REMARK                            x       y       z     vdW  Elec       q    Type
REMARK                         _______ _______ _______ _____ _____    ______ ____
ROOT
ATOM      1  C   UNL     1       1.186   9.727  19.512  0.00  0.00    +0.000 A 
ATOM      2  C   UNL     1       1.076  11.065  19.115  0.00  0.00    +0.000 A 
ATOM      3  C   UNL     1       0.450  11.993  19.948  0.00  0.00    +0.000 A 
ATOM      4  C   UNL     1      -0.073  11.590  21.183  0.00  0.00    +0.000 A 
ATOM      5  C   UNL     1      -0.041  10.232  21.529  0.00  0.00    +0.000 A 
ATOM      6  C   UNL     1       0.629   9.308  20.723  0.00  0.00    +0.000 A 
ENDROOT
BRANCH   1   8
ATOM      7  O   UNL     1       2.168   9.141  17.495  0.00  0.00    +0.000 OA
ATOM      8  C   UNL     1       1.954   8.800  18.652  0.00  0.00    +0.000 C 
ATOM      9  N   UNL     1       2.279   7.585  19.223  0.00  0.00    +0.000 N 
ATOM     10  C   UNL     1       3.053   6.621  18.627  0.00  0.00    +0.000 A 
ATOM     11  N   UNL     1       3.776   6.881  17.603  0.00  0.00    +0.000 NA
ATOM     12  C   UNL     1       4.505   5.911  16.926  0.00  0.00    +0.000 A 
ATOM     13  C   UNL     1       5.126   6.314  15.736  0.00  0.00    +0.000 A 
ATOM     14  C   UNL     1       5.844   5.410  14.955  0.00  0.00    +0.000 A 
ATOM     15  C   UNL     1       5.952   4.083  15.360  0.00  0.00    +0.000 A 
ATOM     16  C   UNL     1       5.352   3.673  16.551  0.00  0.00    +0.000 A 
ATOM     17  C   UNL     1       4.630   4.588  17.336  0.00  0.00    +0.000 A 
ATOM     18  C   UNL     1       4.025   4.129  18.594  0.00  0.00    +0.000 A 
ATOM     19  O   UNL     1       4.313   3.025  19.044  0.00  0.00    +0.000 OA
ATOM     20  S   UNL     1       2.873   5.118  19.451  0.00  0.00    +0.000 S 
ATOM     21  H   UNL     1       1.825   7.312  20.082  0.00  0.00    +0.000 HD
ENDBRANCH   1   8
BRANCH   4  22
ATOM     22  C   UNL     1      -0.706  12.625  22.046  0.00  0.00    +0.000 C 
ATOM     23  O   UNL     1      -0.004  13.121  22.928  0.00  0.00    +0.000 OA
ATOM     24  N   UNL     1      -2.027  13.007  21.847  0.00  0.00    +0.000 N 
ATOM     25  C   UNL     1      -2.548  14.164  22.583  0.00  0.00    +0.000 C 
ATOM     26  C   UNL     1      -3.270  15.137  21.630  0.00  0.00    +0.000 C 
ATOM     27  N   UNL     1      -4.285  14.515  20.739  0.00  0.00    +0.000 NA
ATOM     28  C   UNL     1      -3.675  13.350  20.058  0.00  0.00    +0.000 C 
ATOM     29  C   UNL     1      -3.044  12.332  21.032  0.00  0.00    +0.000 C 
BRANCH  27  30
ATOM     30  C   UNL     1      -5.506  14.100  21.457  0.00  0.00    +0.000 C 
BRANCH  30  31
ATOM     31  C   UNL     1      -6.394  15.251  21.863  0.00  0.00    +0.000 A 
ATOM     32  C   UNL     1      -7.137  15.953  20.906  0.00  0.00    +0.000 A 
ATOM     33  C   UNL     1      -7.888  17.066  21.279  0.00  0.00    +0.000 A 
ATOM     34  C   UNL     1      -7.913  17.477  22.611  0.00  0.00    +0.000 A 
ATOM     35  C   UNL     1      -7.204  16.764  23.577  0.00  0.00    +0.000 A 
ATOM     36  C   UNL     1      -6.451  15.653  23.206  0.00  0.00    +0.000 A 
ENDBRANCH  30  31
ENDBRANCH  27  30
ENDBRANCH   4  22
TORSDOF 4
ENDMDL
MODEL 8
REMARK VINA RESULT:      -8.0      2.762      4.840
REMARK  Name = 
REMARK  4 active torsions:
REMARK  status: ('A' for Active; 'I' for Inactive)
REMARK    1  A    between atoms: C_2  and  C_15
REMARK    2  A    between atoms: C_18  and  C_19
REMARK    3  A    between atoms: N_24  and  C_25
REMARK    4  A    between atoms: C_25  and  C_26
REMARK                            x       y       z     vdW  Elec       q    Type
REMARK                         _______ _______ _______ _____ _____    ______ ____
ROOT
ATOM      1  C   UNL     1       0.575   9.665  18.830  0.00  0.00    +0.000 A 
ATOM      2  C   UNL     1      -0.421  10.066  17.931  0.00  0.00    +0.000 A 
ATOM      3  C   UNL     1      -1.431  10.935  18.346  0.00  0.00    +0.000 A 
ATOM      4  C   UNL     1      -1.454  11.408  19.665  0.00  0.00    +0.000 A 
ATOM      5  C   UNL     1      -0.507  10.927  20.580  0.00  0.00    +0.000 A 
ATOM      6  C   UNL     1       0.535  10.098  20.158  0.00  0.00    +0.000 A 
ENDROOT
BRANCH   1   8
ATOM      7  O   UNL     1       2.248   9.199  17.294  0.00  0.00    +0.000 OA
ATOM      8  C   UNL     1       1.687   8.834  18.320  0.00  0.00    +0.000 C 
ATOM      9  N   UNL     1       1.925   7.663  19.013  0.00  0.00    +0.000 N 
ATOM     10  C   UNL     1       2.956   6.795  18.755  0.00  0.00    +0.000 A 
ATOM     11  N   UNL     1       3.955   7.138  18.031  0.00  0.00    +0.000 NA
ATOM     12  C   UNL     1       4.972   6.259  17.682  0.00  0.00    +0.000 A 
ATOM     13  C   UNL     1       5.918   6.732  16.762  0.00  0.00    +0.000 A 
ATOM     14  C   UNL     1       6.954   5.917  16.308  0.00  0.00    +0.000 A 
ATOM     15  C   UNL     1       7.059   4.611  16.775  0.00  0.00    +0.000 A 
ATOM     16  C   UNL     1       6.134   4.133  17.705  0.00  0.00    +0.000 A 
ATOM     17  C   UNL     1       5.091   4.958  18.159  0.00  0.00    +0.000 A 
ATOM     18  C   UNL     1       4.143   4.431  19.150  0.00  0.00    +0.000 A 
ATOM     19  O   UNL     1       4.376   3.366  19.713  0.00  0.00    +0.000 OA
ATOM     20  S   UNL     1       2.667   5.280  19.523  0.00  0.00    +0.000 S 
ATOM     21  H   UNL     1       1.235   7.338  19.675  0.00  0.00    +0.000 HD
ENDBRANCH   1   8
BRANCH   4  22
ATOM     22  C   UNL     1      -2.536  12.355  20.049  0.00  0.00    +0.000 C 
ATOM     23  O   UNL     1      -3.594  12.275  19.423  0.00  0.00    +0.000 OA
ATOM     24  N   UNL     1      -2.348  13.274  21.073  0.00  0.00    +0.000 N 
ATOM     25  C   UNL     1      -3.499  14.047  21.551  0.00  0.00    +0.000 C 
ATOM     26  C   UNL     1      -3.587  14.000  23.090  0.00  0.00    +0.000 C 
ATOM     27  N   UNL     1      -2.330  14.335  23.808  0.00  0.00    +0.000 NA
ATOM     28  C   UNL     1      -1.226  13.522  23.244  0.00  0.00    +0.000 C 
ATOM     29  C   UNL     1      -1.084  13.660  21.713  0.00  0.00    +0.000 C 
BRANCH  27  30
ATOM     30  C   UNL     1      -1.989  15.769  23.737  0.00  0.00    +0.000 C 
BRANCH  30  31
ATOM     31  C   UNL     1      -0.971  16.202  24.765  0.00  0.00    +0.000 A 
ATOM     32  C   UNL     1      -1.160  15.919  26.123  0.00  0.00    +0.000 A 
ATOM     33  C   UNL     1      -0.257  16.395  27.072  0.00  0.00    +0.000 A 
ATOM     34  C   UNL     1       0.847  17.146  26.669  0.00  0.00    +0.000 A 
ATOM     35  C   UNL     1       1.063  17.404  25.316  0.00  0.00    +0.000 A 
ATOM     36  C   UNL     1       0.161  16.931  24.367  0.00  0.00    +0.000 A 
ENDBRANCH  30  31
ENDBRANCH  27  30
ENDBRANCH   4  22
TORSDOF 4
ENDMDL
MODEL 9
REMARK VINA RESULT:      -8.0      4.199     11.667
REMARK  Name = 
REMARK  4 active torsions:
REMARK  status: ('A' for Active; 'I' for Inactive)
REMARK    1  A    between atoms: C_2  and  C_15
REMARK    2  A    between atoms: C_18  and  C_19
REMARK    3  A    between atoms: N_24  and  C_25
REMARK    4  A    between atoms: C_25  and  C_26
REMARK                            x       y       z     vdW  Elec       q    Type
REMARK                         _______ _______ _______ _____ _____    ______ ____
ROOT
ATOM      1  C   UNL     1       1.075  10.292  19.187  0.00  0.00    +0.000 A 
ATOM      2  C   UNL     1       0.792   9.729  20.437  0.00  0.00    +0.000 A 
ATOM      3  C   UNL     1       1.201   8.427  20.727  0.00  0.00    +0.000 A 
ATOM      4  C   UNL     1       1.894   7.676  19.769  0.00  0.00    +0.000 A 
ATOM      5  C   UNL     1       2.089   8.215  18.489  0.00  0.00    +0.000 A 
ATOM      6  C   UNL     1       1.727   9.535  18.209  0.00  0.00    +0.000 A 
ENDROOT
BRANCH   1   8
ATOM      7  O   UNL     1      -0.462  11.990  18.828  0.00  0.00    +0.000 OA
ATOM      8  C   UNL     1       0.723  11.711  18.960  0.00  0.00    +0.000 C 
ATOM      9  N   UNL     1       1.791  12.577  18.826  0.00  0.00    +0.000 N 
ATOM     10  C   UNL     1       1.683  13.939  18.691  0.00  0.00    +0.000 A 
ATOM     11  N   UNL     1       0.593  14.554  18.962  0.00  0.00    +0.000 NA
ATOM     12  C   UNL     1       0.424  15.918  18.756  0.00  0.00    +0.000 A 
ATOM     13  C   UNL     1      -0.868  16.423  18.954  0.00  0.00    +0.000 A 
ATOM     14  C   UNL     1      -1.158  17.769  18.731  0.00  0.00    +0.000 A 
ATOM     15  C   UNL     1      -0.151  18.630  18.309  0.00  0.00    +0.000 A 
ATOM     16  C   UNL     1       1.144  18.143  18.125  0.00  0.00    +0.000 A 
ATOM     17  C   UNL     1       1.432  16.786  18.351  0.00  0.00    +0.000 A 
ATOM     18  C   UNL     1       2.808  16.307  18.165  0.00  0.00    +0.000 A 
ATOM     19  O   UNL     1       3.720  17.113  18.011  0.00  0.00    +0.000 OA
ATOM     20  S   UNL     1       3.170  14.603  18.129  0.00  0.00    +0.000 S 
ATOM     21  H   UNL     1       2.715  12.196  18.688  0.00  0.00    +0.000 HD
ENDBRANCH   1   8
BRANCH   4  22
ATOM     22  C   UNL     1       2.332   6.303  20.139  0.00  0.00    +0.000 C 
ATOM     23  O   UNL     1       1.942   5.867  21.223  0.00  0.00    +0.000 OA
ATOM     24  N   UNL     1       3.136   5.558  19.286  0.00  0.00    +0.000 N 
ATOM     25  C   UNL     1       3.379   4.145  19.596  0.00  0.00    +0.000 C 
ATOM     26  C   UNL     1       3.131   3.264  18.354  0.00  0.00    +0.000 C 
ATOM     27  N   UNL     1       3.819   3.709  17.114  0.00  0.00    +0.000 NA
ATOM     28  C   UNL     1       3.533   5.146  16.897  0.00  0.00    +0.000 C 
ATOM     29  C   UNL     1       3.882   6.031  18.113  0.00  0.00    +0.000 C 
BRANCH  27  30
ATOM     30  C   UNL     1       5.277   3.483  17.150  0.00  0.00    +0.000 C 
BRANCH  30  31
ATOM     31  C   UNL     1       5.991   3.927  15.896  0.00  0.00    +0.000 A 
ATOM     32  C   UNL     1       7.016   4.880  15.955  0.00  0.00    +0.000 A 
ATOM     33  C   UNL     1       7.611   5.343  14.783  0.00  0.00    +0.000 A 
ATOM     34  C   UNL     1       7.196   4.850  13.547  0.00  0.00    +0.000 A 
ATOM     35  C   UNL     1       6.202   3.876  13.480  0.00  0.00    +0.000 A 
ATOM     36  C   UNL     1       5.603   3.412  14.649  0.00  0.00    +0.000 A 
ENDBRANCH  30  31
ENDBRANCH  27  30
ENDBRANCH   4  22
TORSDOF 4
ENDMDL
