MODEL 1
REMARK VINA RESULT:      -8.7      0.000      0.000
REMARK  Name = 
REMARK  5 active torsions:
REMARK  status: ('A' for Active; 'I' for Inactive)
REMARK    1  A    between atoms: N_2  and  C_4
REMARK    2  A    between atoms: C_8  and  N_9
REMARK    3  A    between atoms: C_17  and  N_18
REMARK    4  A    between atoms: N_21  and  S_22
REMARK    5  A    between atoms: S_22  and  C_25
REMARK                            x       y       z     vdW  Elec       q    Type
REMARK                         _______ _______ _______ _____ _____    ______ ____
ROOT
ATOM      1  C   UNL     1       3.329   4.141  19.392  0.00  0.00    +0.000 A 
ATOM      2  C   UNL     1       2.306   4.434  20.292  0.00  0.00    +0.000 A 
ATOM      3  C   UNL     1       1.819   5.731  20.358  0.00  0.00    +0.000 A 
ATOM      4  F   UNL     1       0.824   5.945  21.232  0.00  0.00    +0.000 F 
ATOM      5  C   UNL     1       2.325   6.773  19.555  0.00  0.00    +0.000 A 
ATOM      6  C   UNL     1       3.343   6.405  18.641  0.00  0.00    +0.000 A 
ATOM      7  C   UNL     1       3.865   5.098  18.514  0.00  0.00    +0.000 A 
ENDROOT
BRANCH   5   8
ATOM      8  N   UNL     1       1.897   8.103  19.656  0.00  0.00    +0.000 N 
ATOM      9  C   UNL     1       1.685   8.717  20.970  0.00  0.00    +0.000 C 
ATOM     10  C   UNL     1       0.189   8.803  21.275  0.00  0.00    +0.000 C 
ATOM     11  C   UNL     1      -0.553   9.887  20.494  0.00  0.00    +0.000 C 
ATOM     12  C   UNL     1      -0.374   9.842  18.976  0.00  0.00    +0.000 C 
ATOM     13  C   UNL     1       1.049  10.189  18.537  0.00  0.00    +0.000 C 
ATOM     14  C   UNL     1       1.992   8.986  18.488  0.00  0.00    +0.000 C 
ENDBRANCH   5   8
BRANCH   7  15
ATOM     15  N   UNL     1       4.869   4.809  17.597  0.00  0.00    +0.000 N 
ATOM     16  C   UNL     1       6.086   5.643  17.519  0.00  0.00    +0.000 C 
ATOM     17  C   UNL     1       7.263   4.814  16.954  0.00  0.00    +0.000 C 
ATOM     18  N   UNL     1       6.925   4.124  15.663  0.00  0.00    +0.000 NA
ATOM     19  C   UNL     1       5.690   3.289  15.849  0.00  0.00    +0.000 C 
ATOM     20  C   UNL     1       4.503   4.152  16.318  0.00  0.00    +0.000 C 
BRANCH  18  21
ATOM     21  S   UNL     1       6.911   5.094  14.260  0.00  0.00    +0.000 S 
ATOM     22  O   UNL     1       5.896   6.110  14.426  0.00  0.00    +0.000 OA
ATOM     23  O   UNL     1       8.272   5.454  13.939  0.00  0.00    +0.000 OA
BRANCH  21  24
ATOM     24  C   UNL     1       6.336   3.963  13.023  0.00  0.00    +0.000 A 
ATOM     25  C   UNL     1       7.261   3.118  12.404  0.00  0.00    +0.000 A 
ATOM     26  C   UNL     1       6.822   2.220  11.432  0.00  0.00    +0.000 A 
ATOM     27  C   UNL     1       5.468   2.164  11.091  0.00  0.00    +0.000 A 
ATOM     28  C   UNL     1       4.548   3.005  11.722  0.00  0.00    +0.000 A 
ATOM     29  C   UNL     1       4.979   3.909  12.692  0.00  0.00    +0.000 A 
ENDBRANCH  21  24
ENDBRANCH  18  21
ENDBRANCH   7  15
BRANCH   1  31
ATOM     30  O   UNL     1       3.231   1.900  18.918  0.00  0.00    +0.000 OA
ATOM     31  N   UNL     1       3.881   2.801  19.469  0.00  0.00    +0.000 N 
ATOM     32  O   UNL     1       4.940   2.641  20.090  0.00  0.00    +0.000 OA
ENDBRANCH   1  31
TORSDOF 5
ENDMDL
MODEL 2
REMARK VINA RESULT:      -7.4      5.662     10.146
REMARK  Name = 
REMARK  5 active torsions:
REMARK  status: ('A' for Active; 'I' for Inactive)
REMARK    1  A    between atoms: N_2  and  C_4
REMARK    2  A    between atoms: C_8  and  N_9
REMARK    3  A    between atoms: C_17  and  N_18
REMARK    4  A    between atoms: N_21  and  S_22
REMARK    5  A    between atoms: S_22  and  C_25
REMARK                            x       y       z     vdW  Elec       q    Type
REMARK                         _______ _______ _______ _____ _____    ______ ____
ROOT
ATOM      1  C   UNL     1       0.710   9.235  21.394  0.00  0.00    +0.000 A 
ATOM      2  C   UNL     1       0.979   7.886  21.615  0.00  0.00    +0.000 A 
ATOM      3  C   UNL     1       1.622   7.157  20.627  0.00  0.00    +0.000 A 
ATOM      4  F   UNL     1       1.867   5.868  20.907  0.00  0.00    +0.000 F 
ATOM      5  C   UNL     1       2.010   7.725  19.396  0.00  0.00    +0.000 A 
ATOM      6  C   UNL     1       1.735   9.107  19.243  0.00  0.00    +0.000 A 
ATOM      7  C   UNL     1       1.102   9.905  20.222  0.00  0.00    +0.000 A 
ENDROOT
BRANCH   5   8
ATOM      8  N   UNL     1       2.596   6.991  18.357  0.00  0.00    +0.000 N 
ATOM      9  C   UNL     1       1.919   5.814  17.805  0.00  0.00    +0.000 C 
ATOM     10  C   UNL     1       2.578   4.536  18.325  0.00  0.00    +0.000 C 
ATOM     11  C   UNL     1       3.935   4.224  17.694  0.00  0.00    +0.000 C 
ATOM     12  C   UNL     1       4.963   5.353  17.754  0.00  0.00    +0.000 C 
ATOM     13  C   UNL     1       4.582   6.548  16.879  0.00  0.00    +0.000 C 
ATOM     14  C   UNL     1       3.699   7.577  17.587  0.00  0.00    +0.000 C 
ENDBRANCH   5   8
BRANCH   7  15
ATOM     15  N   UNL     1       0.859  11.256  20.004  0.00  0.00    +0.000 N 
ATOM     16  C   UNL     1       0.626  11.772  18.638  0.00  0.00    +0.000 C 
ATOM     17  C   UNL     1      -0.221  13.065  18.696  0.00  0.00    +0.000 C 
ATOM     18  N   UNL     1       0.343  14.091  19.638  0.00  0.00    +0.000 NA
ATOM     19  C   UNL     1       0.524  13.479  20.998  0.00  0.00    +0.000 C 
ATOM     20  C   UNL     1       1.451  12.250  20.933  0.00  0.00    +0.000 C 
BRANCH  18  21
ATOM     21  S   UNL     1       1.690  14.978  19.083  0.00  0.00    +0.000 S 
ATOM     22  O   UNL     1       2.431  15.437  20.237  0.00  0.00    +0.000 OA
ATOM     23  O   UNL     1       2.341  14.219  18.041  0.00  0.00    +0.000 OA
BRANCH  21  24
ATOM     24  C   UNL     1       0.931  16.395  18.338  0.00  0.00    +0.000 A 
ATOM     25  C   UNL     1       1.717  17.243  17.552  0.00  0.00    +0.000 A 
ATOM     26  C   UNL     1       1.132  18.359  16.957  0.00  0.00    +0.000 A 
ATOM     27  C   UNL     1      -0.229  18.617  17.139  0.00  0.00    +0.000 A 
ATOM     28  C   UNL     1      -1.011  17.760  17.917  0.00  0.00    +0.000 A 
ATOM     29  C   UNL     1      -0.433  16.644  18.520  0.00  0.00    +0.000 A 
ENDBRANCH  21  24
ENDBRANCH  18  21
ENDBRANCH   7  15
BRANCH   1  31
ATOM     30  O   UNL     1       0.381   9.904  23.562  0.00  0.00    +0.000 OA
ATOM     31  N   UNL     1      -0.080   9.902  22.411  0.00  0.00    +0.000 N 
ATOM     32  O   UNL     1      -1.162  10.403  22.074  0.00  0.00    +0.000 OA
ENDBRANCH   1  31
TORSDOF 5
ENDMDL
MODEL 3
REMARK VINA RESULT:      -7.4      5.608     10.117
REMARK  Name = 
REMARK  5 active torsions:
REMARK  status: ('A' for Active; 'I' for Inactive)
REMARK    1  A    between atoms: N_2  and  C_4
REMARK    2  A    between atoms: C_8  and  N_9
REMARK    3  A    between atoms: C_17  and  N_18
REMARK    4  A    between atoms: N_21  and  S_22
REMARK    5  A    between atoms: S_22  and  C_25
REMARK                            x       y       z     vdW  Elec       q    Type
REMARK                         _______ _______ _______ _____ _____    ______ ____
ROOT
ATOM      1  C   UNL     1       0.738   9.173  21.376  0.00  0.00    +0.000 A 
ATOM      2  C   UNL     1       1.004   7.826  21.621  0.00  0.00    +0.000 A 
ATOM      3  C   UNL     1       1.649   7.079  20.647  0.00  0.00    +0.000 A 
ATOM      4  F   UNL     1       1.890   5.795  20.951  0.00  0.00    +0.000 F 
ATOM      5  C   UNL     1       2.042   7.626  19.409  0.00  0.00    +0.000 A 
ATOM      6  C   UNL     1       1.770   9.004  19.231  0.00  0.00    +0.000 A 
ATOM      7  C   UNL     1       1.135   9.821  20.194  0.00  0.00    +0.000 A 
ENDROOT
BRANCH   5   8
ATOM      8  N   UNL     1       2.630   6.872  18.385  0.00  0.00    +0.000 N 
ATOM      9  C   UNL     1       1.951   5.689  17.849  0.00  0.00    +0.000 C 
ATOM     10  C   UNL     1       2.603   4.417  18.393  0.00  0.00    +0.000 C 
ATOM     11  C   UNL     1       3.961   4.089  17.773  0.00  0.00    +0.000 C 
ATOM     12  C   UNL     1       4.994   5.216  17.819  0.00  0.00    +0.000 C 
ATOM     13  C   UNL     1       4.621   6.398  16.923  0.00  0.00    +0.000 C 
ATOM     14  C   UNL     1       3.738   7.442  17.609  0.00  0.00    +0.000 C 
ENDBRANCH   5   8
BRANCH   7  15
ATOM     15  N   UNL     1       0.895  11.169  19.951  0.00  0.00    +0.000 N 
ATOM     16  C   UNL     1       0.706  11.667  18.572  0.00  0.00    +0.000 C 
ATOM     17  C   UNL     1      -0.146  12.958  18.587  0.00  0.00    +0.000 C 
ATOM     18  N   UNL     1       0.383  13.997  19.534  0.00  0.00    +0.000 NA
ATOM     19  C   UNL     1       0.521  13.402  20.906  0.00  0.00    +0.000 C 
ATOM     20  C   UNL     1       1.453  12.175  20.886  0.00  0.00    +0.000 C 
BRANCH  18  21
ATOM     21  S   UNL     1       1.745  14.882  19.013  0.00  0.00    +0.000 S 
ATOM     22  O   UNL     1       2.489  15.291  20.184  0.00  0.00    +0.000 OA
ATOM     23  O   UNL     1       2.388  14.149  17.948  0.00  0.00    +0.000 OA
BRANCH  21  24
ATOM     24  C   UNL     1       1.010  16.335  18.314  0.00  0.00    +0.000 A 
ATOM     25  C   UNL     1      -0.352  16.566  18.527  0.00  0.00    +0.000 A 
ATOM     26  C   UNL     1      -0.943  17.707  17.987  0.00  0.00    +0.000 A 
ATOM     27  C   UNL     1      -0.174  18.612  17.251  0.00  0.00    +0.000 A 
ATOM     28  C   UNL     1       1.189  18.380  17.052  0.00  0.00    +0.000 A 
ATOM     29  C   UNL     1       1.787  17.239  17.584  0.00  0.00    +0.000 A 
ENDBRANCH  21  24
ENDBRANCH  18  21
ENDBRANCH   7  15
BRANCH   1  31
ATOM     30  O   UNL     1      -1.104  10.391  21.989  0.00  0.00    +0.000 OA
ATOM     31  N   UNL     1      -0.054   9.859  22.378  0.00  0.00    +0.000 N 
ATOM     32  O   UNL     1       0.373   9.888  23.540  0.00  0.00    +0.000 OA
ENDBRANCH   1  31
TORSDOF 5
ENDMDL
MODEL 4
REMARK VINA RESULT:      -7.3      1.846      2.347
REMARK  Name = 
REMARK  5 active torsions:
REMARK  status: ('A' for Active; 'I' for Inactive)
REMARK    1  A    between atoms: N_2  and  C_4
REMARK    2  A    between atoms: C_8  and  N_9
REMARK    3  A    between atoms: C_17  and  N_18
REMARK    4  A    between atoms: N_21  and  S_22
REMARK    5  A    between atoms: S_22  and  C_25
REMARK                            x       y       z     vdW  Elec       q    Type
REMARK                         _______ _______ _______ _____ _____    ______ ____
ROOT
ATOM      1  C   UNL     1       1.754   5.695  20.424  0.00  0.00    +0.000 A 
ATOM      2  C   UNL     1       0.765   6.351  21.155  0.00  0.00    +0.000 A 
ATOM      3  C   UNL     1       0.582   7.712  20.968  0.00  0.00    +0.000 A 
ATOM      4  F   UNL     1      -0.396   8.282  21.689  0.00  0.00    +0.000 F 
ATOM      5  C   UNL     1       1.363   8.466  20.068  0.00  0.00    +0.000 A 
ATOM      6  C   UNL     1       2.330   7.737  19.334  0.00  0.00    +0.000 A 
ATOM      7  C   UNL     1       2.550   6.348  19.467  0.00  0.00    +0.000 A 
ENDROOT
BRANCH   5   8
ATOM      8  N   UNL     1       1.241   9.854  19.916  0.00  0.00    +0.000 N 
ATOM      9  C   UNL     1       1.232  10.733  21.088  0.00  0.00    +0.000 C 
ATOM     10  C   UNL     1      -0.193  11.205  21.381  0.00  0.00    +0.000 C 
ATOM     11  C   UNL     1      -0.717  12.264  20.411  0.00  0.00    +0.000 C 
ATOM     12  C   UNL     1      -0.626  11.900  18.928  0.00  0.00    +0.000 C 
ATOM     13  C   UNL     1       0.816  11.833  18.423  0.00  0.00    +0.000 C 
ATOM     14  C   UNL     1       1.470  10.462  18.600  0.00  0.00    +0.000 C 
ENDBRANCH   5   8
BRANCH   7  15
ATOM     15  N   UNL     1       3.521   5.696  18.716  0.00  0.00    +0.000 N 
ATOM     16  C   UNL     1       4.837   5.367  19.303  0.00  0.00    +0.000 C 
ATOM     17  C   UNL     1       5.454   4.150  18.574  0.00  0.00    +0.000 C 
ATOM     18  N   UNL     1       5.488   4.320  17.082  0.00  0.00    +0.000 NA
ATOM     19  C   UNL     1       4.107   4.632  16.580  0.00  0.00    +0.000 C 
ATOM     20  C   UNL     1       3.549   5.903  17.248  0.00  0.00    +0.000 C 
BRANCH  18  21
ATOM     21  S   UNL     1       6.707   5.336  16.456  0.00  0.00    +0.000 S 
ATOM     22  O   UNL     1       6.219   6.697  16.492  0.00  0.00    +0.000 OA
ATOM     23  O   UNL     1       7.961   4.985  17.079  0.00  0.00    +0.000 OA
BRANCH  21  24
ATOM     24  C   UNL     1       6.780   4.840  14.756  0.00  0.00    +0.000 A 
ATOM     25  C   UNL     1       7.691   5.478  13.910  0.00  0.00    +0.000 A 
ATOM     26  C   UNL     1       7.762   5.095  12.571  0.00  0.00    +0.000 A 
ATOM     27  C   UNL     1       6.936   4.077  12.090  0.00  0.00    +0.000 A 
ATOM     28  C   UNL     1       6.036   3.436  12.944  0.00  0.00    +0.000 A 
ATOM     29  C   UNL     1       5.955   3.815  14.283  0.00  0.00    +0.000 A 
ENDBRANCH  21  24
ENDBRANCH  18  21
ENDBRANCH   7  15
BRANCH   1  31
ATOM     30  O   UNL     1       1.622   3.460  19.931  0.00  0.00    +0.000 OA
ATOM     31  N   UNL     1       1.981   4.304  20.766  0.00  0.00    +0.000 N 
ATOM     32  O   UNL     1       2.494   4.049  21.863  0.00  0.00    +0.000 OA
ENDBRANCH   1  31
TORSDOF 5
ENDMDL
MODEL 5
REMARK VINA RESULT:      -7.2      1.819      2.478
REMARK  Name = 
REMARK  5 active torsions:
REMARK  status: ('A' for Active; 'I' for Inactive)
REMARK    1  A    between atoms: N_2  and  C_4
REMARK    2  A    between atoms: C_8  and  N_9
REMARK    3  A    between atoms: C_17  and  N_18
REMARK    4  A    between atoms: N_21  and  S_22
REMARK    5  A    between atoms: S_22  and  C_25
REMARK                            x       y       z     vdW  Elec       q    Type
REMARK                         _______ _______ _______ _____ _____    ______ ____
ROOT
ATOM      1  C   UNL     1       2.274   5.670  19.727  0.00  0.00    +0.000 A 
ATOM      2  C   UNL     1       1.181   5.887  20.565  0.00  0.00    +0.000 A 
ATOM      3  C   UNL     1       0.764   7.187  20.805  0.00  0.00    +0.000 A 
ATOM      4  F   UNL     1      -0.303   7.328  21.606  0.00  0.00    +0.000 F 
ATOM      5  C   UNL     1       1.409   8.307  20.241  0.00  0.00    +0.000 A 
ATOM      6  C   UNL     1       2.494   8.020  19.377  0.00  0.00    +0.000 A 
ATOM      7  C   UNL     1       2.951   6.716  19.078  0.00  0.00    +0.000 A 
ENDROOT
BRANCH   5   8
ATOM      8  N   UNL     1       1.049   9.630  20.527  0.00  0.00    +0.000 N 
ATOM      9  C   UNL     1       1.148  10.149  21.894  0.00  0.00    +0.000 C 
ATOM     10  C   UNL     1      -0.241  10.226  22.529  0.00  0.00    +0.000 C 
ATOM     11  C   UNL     1      -1.109  11.373  22.009  0.00  0.00    +0.000 C 
ATOM     12  C   UNL     1      -1.270  11.438  20.490  0.00  0.00    +0.000 C 
ATOM     13  C   UNL     1       0.030  11.802  19.771  0.00  0.00    +0.000 C 
ATOM     14  C   UNL     1       0.907  10.596  19.431  0.00  0.00    +0.000 C 
ENDBRANCH   5   8
BRANCH   7  15
ATOM     15  N   UNL     1       4.027   6.508  18.222  0.00  0.00    +0.000 N 
ATOM     16  C   UNL     1       3.809   6.171  16.800  0.00  0.00    +0.000 C 
ATOM     17  C   UNL     1       5.028   6.614  15.957  0.00  0.00    +0.000 C 
ATOM     18  N   UNL     1       6.332   6.104  16.502  0.00  0.00    +0.000 NA
ATOM     19  C   UNL     1       6.469   6.513  17.941  0.00  0.00    +0.000 C 
ATOM     20  C   UNL     1       5.294   5.977  18.782  0.00  0.00    +0.000 C 
BRANCH  18  21
ATOM     21  S   UNL     1       6.697   4.466  16.200  0.00  0.00    +0.000 S 
ATOM     22  O   UNL     1       7.997   4.184  16.768  0.00  0.00    +0.000 OA
ATOM     23  O   UNL     1       5.548   3.667  16.554  0.00  0.00    +0.000 OA
BRANCH  21  24
ATOM     24  C   UNL     1       6.867   4.433  14.437  0.00  0.00    +0.000 A 
ATOM     25  C   UNL     1       6.068   3.553  13.702  0.00  0.00    +0.000 A 
ATOM     26  C   UNL     1       6.188   3.520  12.313  0.00  0.00    +0.000 A 
ATOM     27  C   UNL     1       7.092   4.367  11.668  0.00  0.00    +0.000 A 
ATOM     28  C   UNL     1       7.879   5.252  12.409  0.00  0.00    +0.000 A 
ATOM     29  C   UNL     1       7.770   5.289  13.798  0.00  0.00    +0.000 A 
ENDBRANCH  21  24
ENDBRANCH  18  21
ENDBRANCH   7  15
BRANCH   1  31
ATOM     30  O   UNL     1       2.418   3.679  18.601  0.00  0.00    +0.000 OA
ATOM     31  N   UNL     1       2.737   4.300  19.626  0.00  0.00    +0.000 N 
ATOM     32  O   UNL     1       3.395   3.835  20.566  0.00  0.00    +0.000 OA
ENDBRANCH   1  31
TORSDOF 5
ENDMDL
MODEL 6
REMARK VINA RESULT:      -7.2      1.805      2.461
REMARK  Name = 
REMARK  5 active torsions:
REMARK  status: ('A' for Active; 'I' for Inactive)
REMARK    1  A    between atoms: N_2  and  C_4
REMARK    2  A    between atoms: C_8  and  N_9
REMARK    3  A    between atoms: C_17  and  N_18
REMARK    4  A    between atoms: N_21  and  S_22
REMARK    5  A    between atoms: S_22  and  C_25
REMARK                            x       y       z     vdW  Elec       q    Type
REMARK                         _______ _______ _______ _____ _____    ______ ____
ROOT
ATOM      1  C   UNL     1       2.258   5.590  19.695  0.00  0.00    +0.000 A 
ATOM      2  C   UNL     1       1.163   5.790  20.533  0.00  0.00    +0.000 A 
ATOM      3  C   UNL     1       0.765   7.086  20.824  0.00  0.00    +0.000 A 
ATOM      4  F   UNL     1      -0.305   7.211  21.623  0.00  0.00    +0.000 F 
ATOM      5  C   UNL     1       1.432   8.217  20.310  0.00  0.00    +0.000 A 
ATOM      6  C   UNL     1       2.518   7.948  19.441  0.00  0.00    +0.000 A 
ATOM      7  C   UNL     1       2.957   6.651  19.093  0.00  0.00    +0.000 A 
ENDROOT
BRANCH   5   8
ATOM      8  N   UNL     1       1.090   9.533  20.647  0.00  0.00    +0.000 N 
ATOM      9  C   UNL     1       1.213  10.002  22.030  0.00  0.00    +0.000 C 
ATOM     10  C   UNL     1      -0.167  10.072  22.686  0.00  0.00    +0.000 C 
ATOM     11  C   UNL     1      -1.028  11.246  22.218  0.00  0.00    +0.000 C 
ATOM     12  C   UNL     1      -1.208  11.367  20.704  0.00  0.00    +0.000 C 
ATOM     13  C   UNL     1       0.087  11.741  19.982  0.00  0.00    +0.000 C 
ATOM     14  C   UNL     1       0.946  10.539  19.588  0.00  0.00    +0.000 C 
ENDBRANCH   5   8
BRANCH   7  15
ATOM     15  N   UNL     1       4.035   6.460  18.236  0.00  0.00    +0.000 N 
ATOM     16  C   UNL     1       3.821   6.138  16.810  0.00  0.00    +0.000 C 
ATOM     17  C   UNL     1       5.038   6.600  15.973  0.00  0.00    +0.000 C 
ATOM     18  N   UNL     1       6.344   6.092  16.514  0.00  0.00    +0.000 NA
ATOM     19  C   UNL     1       6.477   6.485  17.959  0.00  0.00    +0.000 C 
ATOM     20  C   UNL     1       5.305   5.932  18.792  0.00  0.00    +0.000 C 
BRANCH  18  21
ATOM     21  S   UNL     1       6.721   4.460  16.194  0.00  0.00    +0.000 S 
ATOM     22  O   UNL     1       8.032   4.187  16.742  0.00  0.00    +0.000 OA
ATOM     23  O   UNL     1       5.585   3.647  16.556  0.00  0.00    +0.000 OA
BRANCH  21  24
ATOM     24  C   UNL     1       6.868   4.444  14.428  0.00  0.00    +0.000 A 
ATOM     25  C   UNL     1       7.770   5.322  13.821  0.00  0.00    +0.000 A 
ATOM     26  C   UNL     1       7.900   5.317  12.434  0.00  0.00    +0.000 A 
ATOM     27  C   UNL     1       7.140   4.434  11.663  0.00  0.00    +0.000 A 
ATOM     28  C   UNL     1       6.249   3.551  12.277  0.00  0.00    +0.000 A 
ATOM     29  C   UNL     1       6.109   3.552  13.664  0.00  0.00    +0.000 A 
ENDBRANCH  21  24
ENDBRANCH  18  21
ENDBRANCH   7  15
BRANCH   1  31
ATOM     30  O   UNL     1       3.376   3.743  20.466  0.00  0.00    +0.000 OA
ATOM     31  N   UNL     1       2.701   4.217  19.540  0.00  0.00    +0.000 N 
ATOM     32  O   UNL     1       2.398   3.621  18.499  0.00  0.00    +0.000 OA
ENDBRANCH   1  31
TORSDOF 5
ENDMDL
MODEL 7
REMARK VINA RESULT:      -7.2      1.812      2.405
REMARK  Name = 
REMARK  5 active torsions:
REMARK  status: ('A' for Active; 'I' for Inactive)
REMARK    1  A    between atoms: N_2  and  C_4
REMARK    2  A    between atoms: C_8  and  N_9
REMARK    3  A    between atoms: C_17  and  N_18
REMARK    4  A    between atoms: N_21  and  S_22
REMARK    5  A    between atoms: S_22  and  C_25
REMARK                            x       y       z     vdW  Elec       q    Type
REMARK                         _______ _______ _______ _____ _____    ______ ____
ROOT
ATOM      1  C   UNL     1       1.790   5.580  20.409  0.00  0.00    +0.000 A 
ATOM      2  C   UNL     1       0.795   6.220  21.146  0.00  0.00    +0.000 A 
ATOM      3  C   UNL     1       0.599   7.582  20.972  0.00  0.00    +0.000 A 
ATOM      4  F   UNL     1      -0.385   8.135  21.698  0.00  0.00    +0.000 F 
ATOM      5  C   UNL     1       1.373   8.352  20.081  0.00  0.00    +0.000 A 
ATOM      6  C   UNL     1       2.348   7.640  19.340  0.00  0.00    +0.000 A 
ATOM      7  C   UNL     1       2.581   6.251  19.460  0.00  0.00    +0.000 A 
ENDROOT
BRANCH   5   8
ATOM      8  N   UNL     1       1.239   9.739  19.943  0.00  0.00    +0.000 N 
ATOM      9  C   UNL     1       1.162  10.601  21.126  0.00  0.00    +0.000 C 
ATOM     10  C   UNL     1      -0.281  11.049  21.357  0.00  0.00    +0.000 C 
ATOM     11  C   UNL     1      -0.775  12.115  20.379  0.00  0.00    +0.000 C 
ATOM     12  C   UNL     1      -0.610  11.774  18.897  0.00  0.00    +0.000 C 
ATOM     13  C   UNL     1       0.855  11.734  18.459  0.00  0.00    +0.000 C 
ATOM     14  C   UNL     1       1.520  10.370  18.647  0.00  0.00    +0.000 C 
ENDBRANCH   5   8
BRANCH   7  15
ATOM     15  N   UNL     1       3.559   5.616  18.703  0.00  0.00    +0.000 N 
ATOM     16  C   UNL     1       4.875   5.288  19.290  0.00  0.00    +0.000 C 
ATOM     17  C   UNL     1       5.503   4.086  18.546  0.00  0.00    +0.000 C 
ATOM     18  N   UNL     1       5.540   4.276  17.056  0.00  0.00    +0.000 NA
ATOM     19  C   UNL     1       4.158   4.584  16.555  0.00  0.00    +0.000 C 
ATOM     20  C   UNL     1       3.590   5.843  17.238  0.00  0.00    +0.000 C 
BRANCH  18  21
ATOM     21  S   UNL     1       6.754   5.308  16.448  0.00  0.00    +0.000 S 
ATOM     22  O   UNL     1       6.257   6.665  16.502  0.00  0.00    +0.000 OA
ATOM     23  O   UNL     1       8.009   4.955  17.068  0.00  0.00    +0.000 OA
BRANCH  21  24
ATOM     24  C   UNL     1       6.833   4.837  14.741  0.00  0.00    +0.000 A 
ATOM     25  C   UNL     1       6.000   3.810  14.289  0.00  0.00    +0.000 A 
ATOM     26  C   UNL     1       6.048   3.433  12.948  0.00  0.00    +0.000 A 
ATOM     27  C   UNL     1       6.915   4.085  12.068  0.00  0.00    +0.000 A 
ATOM     28  C   UNL     1       7.736   5.118  12.525  0.00  0.00    +0.000 A 
ATOM     29  C   UNL     1       7.698   5.499  13.865  0.00  0.00    +0.000 A 
ENDBRANCH  21  24
ENDBRANCH  18  21
ENDBRANCH   7  15
BRANCH   1  31
ATOM     30  O   UNL     1       2.531   3.956  21.847  0.00  0.00    +0.000 OA
ATOM     31  N   UNL     1       2.031   4.188  20.737  0.00  0.00    +0.000 N 
ATOM     32  O   UNL     1       1.744   3.332  19.890  0.00  0.00    +0.000 OA
ENDBRANCH   1  31
TORSDOF 5
ENDMDL
MODEL 8
REMARK VINA RESULT:      -7.2      5.502      9.949
REMARK  Name = 
REMARK  5 active torsions:
REMARK  status: ('A' for Active; 'I' for Inactive)
REMARK    1  A    between atoms: N_2  and  C_4
REMARK    2  A    between atoms: C_8  and  N_9
REMARK    3  A    between atoms: C_17  and  N_18
REMARK    4  A    between atoms: N_21  and  S_22
REMARK    5  A    between atoms: S_22  and  C_25
REMARK                            x       y       z     vdW  Elec       q    Type
REMARK                         _______ _______ _______ _____ _____    ______ ____
ROOT
ATOM      1  C   UNL     1       1.075   8.608  20.944  0.00  0.00    +0.000 A 
ATOM      2  C   UNL     1       1.433   7.325  21.355  0.00  0.00    +0.000 A 
ATOM      3  C   UNL     1       1.992   6.454  20.432  0.00  0.00    +0.000 A 
ATOM      4  F   UNL     1       2.330   5.241  20.893  0.00  0.00    +0.000 F 
ATOM      5  C   UNL     1       2.208   6.813  19.085  0.00  0.00    +0.000 A 
ATOM      6  C   UNL     1       1.851   8.138  18.737  0.00  0.00    +0.000 A 
ATOM      7  C   UNL     1       1.296   9.076  19.638  0.00  0.00    +0.000 A 
ENDROOT
BRANCH   5   8
ATOM      8  N   UNL     1       2.706   5.926  18.122  0.00  0.00    +0.000 N 
ATOM      9  C   UNL     1       1.836   4.907  17.529  0.00  0.00    +0.000 C 
ATOM     10  C   UNL     1       2.143   3.536  18.134  0.00  0.00    +0.000 C 
ATOM     11  C   UNL     1       3.447   2.908  17.641  0.00  0.00    +0.000 C 
ATOM     12  C   UNL     1       4.692   3.784  17.779  0.00  0.00    +0.000 C 
ATOM     13  C   UNL     1       4.667   4.998  16.849  0.00  0.00    +0.000 C 
ATOM     14  C   UNL     1       3.977   6.224  17.450  0.00  0.00    +0.000 C 
ENDBRANCH   5   8
BRANCH   7  15
ATOM     15  N   UNL     1       0.965  10.362  19.226  0.00  0.00    +0.000 N 
ATOM     16  C   UNL     1       1.968  11.446  19.247  0.00  0.00    +0.000 C 
ATOM     17  C   UNL     1       1.605  12.526  18.202  0.00  0.00    +0.000 C 
ATOM     18  N   UNL     1       0.191  13.015  18.334  0.00  0.00    +0.000 NA
ATOM     19  C   UNL     1      -0.751  11.845  18.281  0.00  0.00    +0.000 C 
ATOM     20  C   UNL     1      -0.433  10.828  19.393  0.00  0.00    +0.000 C 
BRANCH  18  21
ATOM     21  S   UNL     1      -0.123  14.112  19.602  0.00  0.00    +0.000 S 
ATOM     22  O   UNL     1      -1.544  14.091  19.871  0.00  0.00    +0.000 OA
ATOM     23  O   UNL     1       0.832  13.877  20.658  0.00  0.00    +0.000 OA
BRANCH  21  24
ATOM     24  C   UNL     1       0.255  15.674  18.855  0.00  0.00    +0.000 A 
ATOM     25  C   UNL     1      -0.793  16.556  18.577  0.00  0.00    +0.000 A 
ATOM     26  C   UNL     1      -0.510  17.790  17.994  0.00  0.00    +0.000 A 
ATOM     27  C   UNL     1       0.811  18.140  17.703  0.00  0.00    +0.000 A 
ATOM     28  C   UNL     1       1.854  17.258  17.994  0.00  0.00    +0.000 A 
ATOM     29  C   UNL     1       1.580  16.019  18.573  0.00  0.00    +0.000 A 
ENDBRANCH  21  24
ENDBRANCH  18  21
ENDBRANCH   7  15
BRANCH   1  31
ATOM     30  O   UNL     1       0.997  10.381  22.395  0.00  0.00    +0.000 OA
ATOM     31  N   UNL     1       0.375   9.418  21.923  0.00  0.00    +0.000 N 
ATOM     32  O   UNL     1      -0.777   9.089  22.236  0.00  0.00    +0.000 OA
ENDBRANCH   1  31
TORSDOF 5
ENDMDL
MODEL 9
REMARK VINA RESULT:      -7.1      5.578     10.271
REMARK  Name = 
REMARK  5 active torsions:
REMARK  status: ('A' for Active; 'I' for Inactive)
REMARK    1  A    between atoms: N_2  and  C_4
REMARK    2  A    between atoms: C_8  and  N_9
REMARK    3  A    between atoms: C_17  and  N_18
REMARK    4  A    between atoms: N_21  and  S_22
REMARK    5  A    between atoms: S_22  and  C_25
REMARK                            x       y       z     vdW  Elec       q    Type
REMARK                         _______ _______ _______ _____ _____    ______ ____
ROOT
ATOM      1  C   UNL     1       1.035   8.372  21.070  0.00  0.00    +0.000 A 
ATOM      2  C   UNL     1       1.520   7.093  21.337  0.00  0.00    +0.000 A 
ATOM      3  C   UNL     1       2.199   6.409  20.340  0.00  0.00    +0.000 A 
ATOM      4  F   UNL     1       2.655   5.190  20.665  0.00  0.00    +0.000 F 
ATOM      5  C   UNL     1       2.413   6.954  19.057  0.00  0.00    +0.000 A 
ATOM      6  C   UNL     1       1.921   8.267  18.857  0.00  0.00    +0.000 A 
ATOM      7  C   UNL     1       1.241   9.020  19.841  0.00  0.00    +0.000 A 
ENDROOT
BRANCH   5   8
ATOM      8  N   UNL     1       3.033   6.252  18.015  0.00  0.00    +0.000 N 
ATOM      9  C   UNL     1       2.421   5.038  17.469  0.00  0.00    +0.000 C 
ATOM     10  C   UNL     1       3.156   3.800  17.985  0.00  0.00    +0.000 C 
ATOM     11  C   UNL     1       4.524   3.566  17.344  0.00  0.00    +0.000 C 
ATOM     12  C   UNL     1       5.486   4.754  17.397  0.00  0.00    +0.000 C 
ATOM     13  C   UNL     1       5.031   5.924  16.523  0.00  0.00    +0.000 C 
ATOM     14  C   UNL     1       4.095   6.901  17.236  0.00  0.00    +0.000 C 
ENDBRANCH   5   8
BRANCH   7  15
ATOM     15  N   UNL     1       0.780  10.305  19.574  0.00  0.00    +0.000 N 
ATOM     16  C   UNL     1       1.558  11.489  19.993  0.00  0.00    +0.000 C 
ATOM     17  C   UNL     1       1.229  12.692  19.078  0.00  0.00    +0.000 C 
ATOM     18  N   UNL     1      -0.247  12.951  18.963  0.00  0.00    +0.000 NA
ATOM     19  C   UNL     1      -0.944  11.699  18.514  0.00  0.00    +0.000 C 
ATOM     20  C   UNL     1      -0.682  10.539  19.493  0.00  0.00    +0.000 C 
BRANCH  18  21
ATOM     21  S   UNL     1      -0.990  13.732  20.285  0.00  0.00    +0.000 S 
ATOM     22  O   UNL     1      -2.336  13.217  20.411  0.00  0.00    +0.000 OA
ATOM     23  O   UNL     1      -0.080  13.704  21.405  0.00  0.00    +0.000 OA
BRANCH  21  24
ATOM     24  C   UNL     1      -1.111  15.407  19.718  0.00  0.00    +0.000 A 
ATOM     25  C   UNL     1      -0.331  15.805  18.629  0.00  0.00    +0.000 A 
ATOM     26  C   UNL     1      -0.420  17.118  18.169  0.00  0.00    +0.000 A 
ATOM     27  C   UNL     1      -1.289  18.019  18.788  0.00  0.00    +0.000 A 
ATOM     28  C   UNL     1      -2.075  17.611  19.868  0.00  0.00    +0.000 A 
ATOM     29  C   UNL     1      -1.990  16.301  20.338  0.00  0.00    +0.000 A 
ENDBRANCH  21  24
ENDBRANCH  18  21
ENDBRANCH   7  15
BRANCH   1  31
ATOM     30  O   UNL     1       0.758   9.859  22.792  0.00  0.00    +0.000 OA
ATOM     31  N   UNL     1       0.222   8.974  22.109  0.00  0.00    +0.000 N 
ATOM     32  O   UNL     1      -0.934   8.558  22.261  0.00  0.00    +0.000 OA
ENDBRANCH   1  31
TORSDOF 5
ENDMDL
