MODEL 1
REMARK VINA RESULT:      -9.5      0.000      0.000
REMARK  Name = 
REMARK  10 active torsions:
REMARK  status: ('A' for Active; 'I' for Inactive)
REMARK    1  A    between atoms: C_1  and  O_2
REMARK    2  A    between atoms: O_2  and  C_3
REMARK    3  A    between atoms: C_3  and  C_5
REMARK    4  A    between atoms: C_5  and  C_6
REMARK    5  A    between atoms: C_5  and  C_7
REMARK    6  A    between atoms: C_5  and  N_8
REMARK    7  A    between atoms: C_11  and  C_12
REMARK    8  A    between atoms: C_16  and  C_17
REMARK    9  A    between atoms: C_20  and  O_21
REMARK   10  A    between atoms: O_21  and  C_22
REMARK                            x       y       z     vdW  Elec       q    Type
REMARK                         _______ _______ _______ _____ _____    ______ ____
ROOT
ATOM      1  N   UNL     1       5.140   3.896  17.323  0.00  0.00    +0.000 N 
ATOM      2  C   UNL     1       4.159   4.335  18.205  0.00  0.00    +0.000 A 
ATOM      3  C   UNL     1       3.710   3.433  19.142  0.00  0.00    +0.000 A 
ATOM      4  C   UNL     1       2.828   3.910  20.075  0.00  0.00    +0.000 A 
ATOM      5  N   UNL     1       2.356   5.173  20.094  0.00  0.00    +0.000 NA
ATOM      6  C   UNL     1       2.823   5.975  19.120  0.00  0.00    +0.000 A 
ATOM      7  N   UNL     1       3.726   5.602  18.189  0.00  0.00    +0.000 NA
ATOM      8  H   UNL     1       4.873   3.046  16.831  0.00  0.00    +0.000 HD
ENDROOT
BRANCH   6   9
ATOM      9  C   UNL     1       2.271   7.345  19.061  0.00  0.00    +0.000 A 
ATOM     10  C   UNL     1       1.636   7.907  20.185  0.00  0.00    +0.000 A 
ATOM     11  C   UNL     1       1.086   9.189  20.149  0.00  0.00    +0.000 A 
ATOM     12  C   UNL     1       1.237   9.985  19.020  0.00  0.00    +0.000 A 
ATOM     13  C   UNL     1       1.814   9.444  17.871  0.00  0.00    +0.000 A 
ATOM     14  C   UNL     1       2.324   8.136  17.895  0.00  0.00    +0.000 A 
BRANCH  12  15
ATOM     15  O   UNL     1       0.852  11.311  18.972  0.00  0.00    +0.000 OA
BRANCH  15  16
ATOM     16  C   UNL     1      -0.502  11.594  19.026  0.00  0.00    +0.000 A 
ATOM     17  C   UNL     1      -1.089  12.338  20.060  0.00  0.00    +0.000 A 
ATOM     18  C   UNL     1      -2.475  12.470  20.129  0.00  0.00    +0.000 A 
ATOM     19  C   UNL     1      -3.258  11.928  19.120  0.00  0.00    +0.000 A 
ATOM     20  F   UNL     1      -4.591  12.045  19.186  0.00  0.00    +0.000 F 
ATOM     21  C   UNL     1      -2.684  11.264  18.039  0.00  0.00    +0.000 A 
ATOM     22  C   UNL     1      -1.296  11.098  17.992  0.00  0.00    +0.000 A 
ENDBRANCH  15  16
ENDBRANCH  12  15
ENDBRANCH   6   9
BRANCH   4  23
ATOM     23  C   UNL     1       2.350   2.991  21.157  0.00  0.00    +0.000 C 
ATOM     24  N   UNL     1       0.994   2.858  21.282  0.00  0.00    +0.000 N 
ATOM     25  O   UNL     1       3.125   2.391  21.894  0.00  0.00    +0.000 OA
ATOM     26  H   UNL     1       0.372   3.365  20.674  0.00  0.00    +0.000 HD
ATOM     27  H   UNL     1       0.631   2.254  22.007  0.00  0.00    +0.000 HD
ENDBRANCH   4  23
BRANCH   1  28
ATOM     28  C   UNL     1       5.979   4.824  16.540  0.00  0.00    +0.000 C 
ATOM     29  C   UNL     1       5.140   5.952  15.928  0.00  0.00    +0.000 C 
ATOM     30  C   UNL     1       6.576   3.983  15.394  0.00  0.00    +0.000 C 
BRANCH  28  31
ATOM     31  C   UNL     1       7.161   5.410  17.352  0.00  0.00    +0.000 C 
ATOM     32  O   UNL     1       7.592   4.943  18.402  0.00  0.00    +0.000 OA
BRANCH  31  34
ATOM     33  C   UNL     1       7.733   7.662  17.664  0.00  0.00    +0.000 C 
ATOM     34  O   UNL     1       7.633   6.557  16.771  0.00  0.00    +0.000 OA
ENDBRANCH  31  34
ENDBRANCH  28  31
ENDBRANCH   1  28
TORSDOF 7
ENDMDL
MODEL 2
REMARK VINA RESULT:      -9.5      0.628      1.247
REMARK  Name = 
REMARK  10 active torsions:
REMARK  status: ('A' for Active; 'I' for Inactive)
REMARK    1  A    between atoms: C_1  and  O_2
REMARK    2  A    between atoms: O_2  and  C_3
REMARK    3  A    between atoms: C_3  and  C_5
REMARK    4  A    between atoms: C_5  and  C_6
REMARK    5  A    between atoms: C_5  and  C_7
REMARK    6  A    between atoms: C_5  and  N_8
REMARK    7  A    between atoms: C_11  and  C_12
REMARK    8  A    between atoms: C_16  and  C_17
REMARK    9  A    between atoms: C_20  and  O_21
REMARK   10  A    between atoms: O_21  and  C_22
REMARK                            x       y       z     vdW  Elec       q    Type
REMARK                         _______ _______ _______ _____ _____    ______ ____
ROOT
ATOM      1  N   UNL     1       5.418   3.934  17.249  0.00  0.00    +0.000 N 
ATOM      2  C   UNL     1       4.466   4.292  18.197  0.00  0.00    +0.000 A 
ATOM      3  C   UNL     1       4.165   3.362  19.165  0.00  0.00    +0.000 A 
ATOM      4  C   UNL     1       3.310   3.767  20.156  0.00  0.00    +0.000 A 
ATOM      5  N   UNL     1       2.730   4.984  20.204  0.00  0.00    +0.000 NA
ATOM      6  C   UNL     1       3.055   5.815  19.198  0.00  0.00    +0.000 A 
ATOM      7  N   UNL     1       3.922   5.515  18.207  0.00  0.00    +0.000 NA
ATOM      8  H   UNL     1       5.195   3.059  16.780  0.00  0.00    +0.000 HD
ENDROOT
BRANCH   6   9
ATOM      9  C   UNL     1       2.380   7.130  19.173  0.00  0.00    +0.000 A 
ATOM     10  C   UNL     1       1.736   7.621  20.324  0.00  0.00    +0.000 A 
ATOM     11  C   UNL     1       1.071   8.849  20.321  0.00  0.00    +0.000 A 
ATOM     12  C   UNL     1       1.112   9.666  19.197  0.00  0.00    +0.000 A 
ATOM     13  C   UNL     1       1.696   9.190  18.024  0.00  0.00    +0.000 A 
ATOM     14  C   UNL     1       2.323   7.933  18.016  0.00  0.00    +0.000 A 
BRANCH  12  15
ATOM     15  O   UNL     1       0.608  10.952  19.179  0.00  0.00    +0.000 OA
BRANCH  15  16
ATOM     16  C   UNL     1      -0.753  11.110  18.979  0.00  0.00    +0.000 A 
ATOM     17  C   UNL     1      -1.469  10.410  17.997  0.00  0.00    +0.000 A 
ATOM     18  C   UNL     1      -2.808  10.715  17.755  0.00  0.00    +0.000 A 
ATOM     19  C   UNL     1      -3.442  11.659  18.550  0.00  0.00    +0.000 A 
ATOM     20  F   UNL     1      -4.726  11.962  18.316  0.00  0.00    +0.000 F 
ATOM     21  C   UNL     1      -2.768  12.298  19.587  0.00  0.00    +0.000 A 
ATOM     22  C   UNL     1      -1.415  12.020  19.803  0.00  0.00    +0.000 A 
ENDBRANCH  15  16
ENDBRANCH  12  15
ENDBRANCH   6   9
BRANCH   4  23
ATOM     23  C   UNL     1       2.992   2.820  21.272  0.00  0.00    +0.000 C 
ATOM     24  N   UNL     1       1.787   3.000  21.893  0.00  0.00    +0.000 N 
ATOM     25  O   UNL     1       3.766   1.931  21.614  0.00  0.00    +0.000 OA
ATOM     26  H   UNL     1       1.168   3.739  21.604  0.00  0.00    +0.000 HD
ATOM     27  H   UNL     1       1.539   2.386  22.657  0.00  0.00    +0.000 HD
ENDBRANCH   4  23
BRANCH   1  28
ATOM     28  C   UNL     1       6.115   4.925  16.407  0.00  0.00    +0.000 C 
ATOM     29  C   UNL     1       5.130   5.931  15.802  0.00  0.00    +0.000 C 
ATOM     30  C   UNL     1       6.759   4.121  15.260  0.00  0.00    +0.000 C 
BRANCH  28  31
ATOM     31  C   UNL     1       7.253   5.666  17.153  0.00  0.00    +0.000 C 
ATOM     32  O   UNL     1       7.712   6.757  16.830  0.00  0.00    +0.000 OA
BRANCH  31  34
ATOM     33  C   UNL     1       7.760   5.610  19.441  0.00  0.00    +0.000 C 
ATOM     34  O   UNL     1       7.723   4.914  18.198  0.00  0.00    +0.000 OA
ENDBRANCH  31  34
ENDBRANCH  28  31
ENDBRANCH   1  28
TORSDOF 7
ENDMDL
MODEL 3
REMARK VINA RESULT:      -9.4      1.079      2.157
REMARK  Name = 
REMARK  10 active torsions:
REMARK  status: ('A' for Active; 'I' for Inactive)
REMARK    1  A    between atoms: C_1  and  O_2
REMARK    2  A    between atoms: O_2  and  C_3
REMARK    3  A    between atoms: C_3  and  C_5
REMARK    4  A    between atoms: C_5  and  C_6
REMARK    5  A    between atoms: C_5  and  C_7
REMARK    6  A    between atoms: C_5  and  N_8
REMARK    7  A    between atoms: C_11  and  C_12
REMARK    8  A    between atoms: C_16  and  C_17
REMARK    9  A    between atoms: C_20  and  O_21
REMARK   10  A    between atoms: O_21  and  C_22
REMARK                            x       y       z     vdW  Elec       q    Type
REMARK                         _______ _______ _______ _____ _____    ______ ____
ROOT
ATOM      1  N   UNL     1       5.465   4.274  17.456  0.00  0.00    +0.000 N 
ATOM      2  C   UNL     1       4.397   4.594  18.286  0.00  0.00    +0.000 A 
ATOM      3  C   UNL     1       3.963   3.618  19.153  0.00  0.00    +0.000 A 
ATOM      4  C   UNL     1       2.986   3.982  20.042  0.00  0.00    +0.000 A 
ATOM      5  N   UNL     1       2.413   5.203  20.079  0.00  0.00    +0.000 NA
ATOM      6  C   UNL     1       2.877   6.082  19.172  0.00  0.00    +0.000 A 
ATOM      7  N   UNL     1       3.866   5.823  18.291  0.00  0.00    +0.000 NA
ATOM      8  H   UNL     1       5.301   3.429  16.913  0.00  0.00    +0.000 HD
ENDROOT
BRANCH   6   9
ATOM      9  C   UNL     1       2.220   7.406  19.131  0.00  0.00    +0.000 A 
ATOM     10  C   UNL     1       2.238   8.174  17.952  0.00  0.00    +0.000 A 
ATOM     11  C   UNL     1       1.646   9.437  17.893  0.00  0.00    +0.000 A 
ATOM     12  C   UNL     1       0.936   9.930  18.981  0.00  0.00    +0.000 A 
ATOM     13  C   UNL     1       0.940   9.220  20.182  0.00  0.00    +0.000 A 
ATOM     14  C   UNL     1       1.578   7.970  20.253  0.00  0.00    +0.000 A 
BRANCH  12  15
ATOM     15  O   UNL     1       0.201  11.099  18.938  0.00  0.00    +0.000 OA
BRANCH  15  16
ATOM     16  C   UNL     1      -1.133  11.011  18.580  0.00  0.00    +0.000 A 
ATOM     17  C   UNL     1      -1.605  10.134  17.593  0.00  0.00    +0.000 A 
ATOM     18  C   UNL     1      -2.936  10.191  17.184  0.00  0.00    +0.000 A 
ATOM     19  C   UNL     1      -3.804  11.068  17.819  0.00  0.00    +0.000 A 
ATOM     20  F   UNL     1      -5.082  11.133  17.423  0.00  0.00    +0.000 F 
ATOM     21  C   UNL     1      -3.370  11.882  18.863  0.00  0.00    +0.000 A 
ATOM     22  C   UNL     1      -2.026  11.852  19.246  0.00  0.00    +0.000 A 
ENDBRANCH  15  16
ENDBRANCH  12  15
ENDBRANCH   6   9
BRANCH   4  23
ATOM     23  C   UNL     1       2.515   2.981  21.051  0.00  0.00    +0.000 C 
ATOM     24  N   UNL     1       1.160   2.864  21.200  0.00  0.00    +0.000 N 
ATOM     25  O   UNL     1       3.294   2.301  21.710  0.00  0.00    +0.000 OA
ATOM     26  H   UNL     1       0.534   3.436  20.656  0.00  0.00    +0.000 HD
ATOM     27  H   UNL     1       0.801   2.206  21.878  0.00  0.00    +0.000 HD
ENDBRANCH   4  23
BRANCH   1  28
ATOM     28  C   UNL     1       6.276   5.298  16.770  0.00  0.00    +0.000 C 
ATOM     29  C   UNL     1       7.358   5.863  17.696  0.00  0.00    +0.000 C 
ATOM     30  C   UNL     1       5.297   6.435  16.412  0.00  0.00    +0.000 C 
BRANCH  28  31
ATOM     31  C   UNL     1       6.906   4.793  15.448  0.00  0.00    +0.000 C 
ATOM     32  O   UNL     1       7.824   5.346  14.850  0.00  0.00    +0.000 OA
BRANCH  31  34
ATOM     33  C   UNL     1       5.802   3.760  13.657  0.00  0.00    +0.000 C 
ATOM     34  O   UNL     1       6.266   3.667  15.000  0.00  0.00    +0.000 OA
ENDBRANCH  31  34
ENDBRANCH  28  31
ENDBRANCH   1  28
TORSDOF 7
ENDMDL
MODEL 4
REMARK VINA RESULT:      -9.3      2.384      2.816
REMARK  Name = 
REMARK  10 active torsions:
REMARK  status: ('A' for Active; 'I' for Inactive)
REMARK    1  A    between atoms: C_1  and  O_2
REMARK    2  A    between atoms: O_2  and  C_3
REMARK    3  A    between atoms: C_3  and  C_5
REMARK    4  A    between atoms: C_5  and  C_6
REMARK    5  A    between atoms: C_5  and  C_7
REMARK    6  A    between atoms: C_5  and  N_8
REMARK    7  A    between atoms: C_11  and  C_12
REMARK    8  A    between atoms: C_16  and  C_17
REMARK    9  A    between atoms: C_20  and  O_21
REMARK   10  A    between atoms: O_21  and  C_22
REMARK                            x       y       z     vdW  Elec       q    Type
REMARK                         _______ _______ _______ _____ _____    ______ ____
ROOT
ATOM      1  N   UNL     1       5.137   3.929  17.355  0.00  0.00    +0.000 N 
ATOM      2  C   UNL     1       4.147   4.363  18.230  0.00  0.00    +0.000 A 
ATOM      3  C   UNL     1       3.706   3.464  19.172  0.00  0.00    +0.000 A 
ATOM      4  C   UNL     1       2.814   3.938  20.098  0.00  0.00    +0.000 A 
ATOM      5  N   UNL     1       2.327   5.196  20.104  0.00  0.00    +0.000 NA
ATOM      6  C   UNL     1       2.788   5.995  19.125  0.00  0.00    +0.000 A 
ATOM      7  N   UNL     1       3.700   5.625  18.201  0.00  0.00    +0.000 NA
ATOM      8  H   UNL     1       4.883   3.071  16.870  0.00  0.00    +0.000 HD
ENDROOT
BRANCH   6   9
ATOM      9  C   UNL     1       2.220   7.358  19.052  0.00  0.00    +0.000 A 
ATOM     10  C   UNL     1       1.629   7.945  20.186  0.00  0.00    +0.000 A 
ATOM     11  C   UNL     1       1.064   9.221  20.138  0.00  0.00    +0.000 A 
ATOM     12  C   UNL     1       1.158   9.986  18.982  0.00  0.00    +0.000 A 
ATOM     13  C   UNL     1       1.690   9.418  17.824  0.00  0.00    +0.000 A 
ATOM     14  C   UNL     1       2.214   8.115  17.863  0.00  0.00    +0.000 A 
BRANCH  12  15
ATOM     15  O   UNL     1       0.757  11.306  18.914  0.00  0.00    +0.000 OA
BRANCH  15  16
ATOM     16  C   UNL     1       1.688  12.281  19.228  0.00  0.00    +0.000 A 
ATOM     17  C   UNL     1       1.892  12.753  20.533  0.00  0.00    +0.000 A 
ATOM     18  C   UNL     1       2.745  13.831  20.763  0.00  0.00    +0.000 A 
ATOM     19  C   UNL     1       3.450  14.377  19.700  0.00  0.00    +0.000 A 
ATOM     20  F   UNL     1       4.264  15.418  19.914  0.00  0.00    +0.000 F 
ATOM     21  C   UNL     1       3.327  13.860  18.413  0.00  0.00    +0.000 A 
ATOM     22  C   UNL     1       2.440  12.805  18.176  0.00  0.00    +0.000 A 
ENDBRANCH  15  16
ENDBRANCH  12  15
ENDBRANCH   6   9
BRANCH   4  23
ATOM     23  C   UNL     1       2.343   3.023  21.186  0.00  0.00    +0.000 C 
ATOM     24  N   UNL     1       0.988   2.893  21.322  0.00  0.00    +0.000 N 
ATOM     25  O   UNL     1       3.123   2.423  21.918  0.00  0.00    +0.000 OA
ATOM     26  H   UNL     1       0.362   3.400  20.718  0.00  0.00    +0.000 HD
ATOM     27  H   UNL     1       0.629   2.291  22.051  0.00  0.00    +0.000 HD
ENDBRANCH   4  23
BRANCH   1  28
ATOM     28  C   UNL     1       5.968   4.860  16.567  0.00  0.00    +0.000 C 
ATOM     29  C   UNL     1       5.127   6.004  15.990  0.00  0.00    +0.000 C 
ATOM     30  C   UNL     1       6.532   4.029  15.397  0.00  0.00    +0.000 C 
BRANCH  28  31
ATOM     31  C   UNL     1       7.173   5.422  17.362  0.00  0.00    +0.000 C 
ATOM     32  O   UNL     1       7.652   4.909  18.369  0.00  0.00    +0.000 OA
BRANCH  31  34
ATOM     33  C   UNL     1       7.758   7.655  17.773  0.00  0.00    +0.000 C 
ATOM     34  O   UNL     1       7.606   6.605  16.822  0.00  0.00    +0.000 OA
ENDBRANCH  31  34
ENDBRANCH  28  31
ENDBRANCH   1  28
TORSDOF 7
ENDMDL
MODEL 5
REMARK VINA RESULT:      -9.2      0.591      1.362
REMARK  Name = 
REMARK  10 active torsions:
REMARK  status: ('A' for Active; 'I' for Inactive)
REMARK    1  A    between atoms: C_1  and  O_2
REMARK    2  A    between atoms: O_2  and  C_3
REMARK    3  A    between atoms: C_3  and  C_5
REMARK    4  A    between atoms: C_5  and  C_6
REMARK    5  A    between atoms: C_5  and  C_7
REMARK    6  A    between atoms: C_5  and  N_8
REMARK    7  A    between atoms: C_11  and  C_12
REMARK    8  A    between atoms: C_16  and  C_17
REMARK    9  A    between atoms: C_20  and  O_21
REMARK   10  A    between atoms: O_21  and  C_22
REMARK                            x       y       z     vdW  Elec       q    Type
REMARK                         _______ _______ _______ _____ _____    ______ ____
ROOT
ATOM      1  N   UNL     1       5.282   4.176  17.374  0.00  0.00    +0.000 N 
ATOM      2  C   UNL     1       4.259   4.572  18.228  0.00  0.00    +0.000 A 
ATOM      3  C   UNL     1       3.802   3.642  19.131  0.00  0.00    +0.000 A 
ATOM      4  C   UNL     1       2.873   4.078  20.040  0.00  0.00    +0.000 A 
ATOM      5  N   UNL     1       2.367   5.328  20.063  0.00  0.00    +0.000 NA
ATOM      6  C   UNL     1       2.847   6.159  19.122  0.00  0.00    +0.000 A 
ATOM      7  N   UNL     1       3.793   5.828  18.218  0.00  0.00    +0.000 NA
ATOM      8  H   UNL     1       5.057   3.329  16.858  0.00  0.00    +0.000 HD
ENDROOT
BRANCH   6   9
ATOM      9  C   UNL     1       2.260   7.515  19.067  0.00  0.00    +0.000 A 
ATOM     10  C   UNL     1       2.405   8.308  17.913  0.00  0.00    +0.000 A 
ATOM     11  C   UNL     1       1.879   9.600  17.844  0.00  0.00    +0.000 A 
ATOM     12  C   UNL     1       1.113  10.102  18.889  0.00  0.00    +0.000 A 
ATOM     13  C   UNL     1       0.992   9.366  20.067  0.00  0.00    +0.000 A 
ATOM     14  C   UNL     1       1.562   8.085  20.152  0.00  0.00    +0.000 A 
BRANCH  12  15
ATOM     15  O   UNL     1       0.441  11.307  18.822  0.00  0.00    +0.000 OA
BRANCH  15  16
ATOM     16  C   UNL     1      -0.937  11.273  18.688  0.00  0.00    +0.000 A 
ATOM     17  C   UNL     1      -1.594  10.479  17.737  0.00  0.00    +0.000 A 
ATOM     18  C   UNL     1      -2.972  10.593  17.562  0.00  0.00    +0.000 A 
ATOM     19  C   UNL     1      -3.694  11.438  18.392  0.00  0.00    +0.000 A 
ATOM     20  F   UNL     1      -5.017  11.558  18.221  0.00  0.00    +0.000 F 
ATOM     21  C   UNL     1      -3.067  12.165  19.401  0.00  0.00    +0.000 A 
ATOM     22  C   UNL     1      -1.679  12.080  19.550  0.00  0.00    +0.000 A 
ENDBRANCH  15  16
ENDBRANCH  12  15
ENDBRANCH   6   9
BRANCH   4  23
ATOM     23  C   UNL     1       2.382   3.127  21.088  0.00  0.00    +0.000 C 
ATOM     24  N   UNL     1       1.581   2.107  20.651  0.00  0.00    +0.000 N 
ATOM     25  O   UNL     1       2.677   3.251  22.272  0.00  0.00    +0.000 OA
ATOM     26  H   UNL     1       1.343   2.026  19.676  0.00  0.00    +0.000 HD
ATOM     27  H   UNL     1       1.222   1.449  21.329  0.00  0.00    +0.000 HD
ENDBRANCH   4  23
BRANCH   1  28
ATOM     28  C   UNL     1       6.123   5.140  16.638  0.00  0.00    +0.000 C 
ATOM     29  C   UNL     1       5.278   6.028  15.718  0.00  0.00    +0.000 C 
ATOM     30  C   UNL     1       7.067   4.290  15.764  0.00  0.00    +0.000 C 
BRANCH  28  31
ATOM     31  C   UNL     1       7.007   6.011  17.567  0.00  0.00    +0.000 C 
ATOM     32  O   UNL     1       7.431   5.661  18.664  0.00  0.00    +0.000 OA
BRANCH  31  34
ATOM     33  C   UNL     1       7.945   8.138  17.864  0.00  0.00    +0.000 C 
ATOM     34  O   UNL     1       7.212   7.252  17.024  0.00  0.00    +0.000 OA
ENDBRANCH  31  34
ENDBRANCH  28  31
ENDBRANCH   1  28
TORSDOF 7
ENDMDL
MODEL 6
REMARK VINA RESULT:      -9.2      0.980      1.490
REMARK  Name = 
REMARK  10 active torsions:
REMARK  status: ('A' for Active; 'I' for Inactive)
REMARK    1  A    between atoms: C_1  and  O_2
REMARK    2  A    between atoms: O_2  and  C_3
REMARK    3  A    between atoms: C_3  and  C_5
REMARK    4  A    between atoms: C_5  and  C_6
REMARK    5  A    between atoms: C_5  and  C_7
REMARK    6  A    between atoms: C_5  and  N_8
REMARK    7  A    between atoms: C_11  and  C_12
REMARK    8  A    between atoms: C_16  and  C_17
REMARK    9  A    between atoms: C_20  and  O_21
REMARK   10  A    between atoms: O_21  and  C_22
REMARK                            x       y       z     vdW  Elec       q    Type
REMARK                         _______ _______ _______ _____ _____    ______ ____
ROOT
ATOM      1  N   UNL     1       5.364   4.395  16.542  0.00  0.00    +0.000 N 
ATOM      2  C   UNL     1       4.354   4.628  17.470  0.00  0.00    +0.000 A 
ATOM      3  C   UNL     1       3.941   3.558  18.228  0.00  0.00    +0.000 A 
ATOM      4  C   UNL     1       3.027   3.825  19.214  0.00  0.00    +0.000 A 
ATOM      5  N   UNL     1       2.495   5.043  19.442  0.00  0.00    +0.000 NA
ATOM      6  C   UNL     1       2.932   6.021  18.630  0.00  0.00    +0.000 A 
ATOM      7  N   UNL     1       3.861   5.858  17.665  0.00  0.00    +0.000 NA
ATOM      8  H   UNL     1       5.143   3.632  15.906  0.00  0.00    +0.000 HD
ENDROOT
BRANCH   6   9
ATOM      9  C   UNL     1       2.314   7.354  18.799  0.00  0.00    +0.000 A 
ATOM     10  C   UNL     1       2.339   8.289  17.748  0.00  0.00    +0.000 A 
ATOM     11  C   UNL     1       1.783   9.562  17.889  0.00  0.00    +0.000 A 
ATOM     12  C   UNL     1       1.103   9.906  19.051  0.00  0.00    +0.000 A 
ATOM     13  C   UNL     1       1.103   9.024  20.132  0.00  0.00    +0.000 A 
ATOM     14  C   UNL     1       1.705   7.761  20.004  0.00  0.00    +0.000 A 
BRANCH  12  15
ATOM     15  O   UNL     1       0.402  11.087  19.197  0.00  0.00    +0.000 OA
BRANCH  15  16
ATOM     16  C   UNL     1      -0.920  11.110  18.788  0.00  0.00    +0.000 A 
ATOM     17  C   UNL     1      -1.866  12.008  19.304  0.00  0.00    +0.000 A 
ATOM     18  C   UNL     1      -3.209  11.889  18.952  0.00  0.00    +0.000 A 
ATOM     19  C   UNL     1      -3.585  10.927  18.025  0.00  0.00    +0.000 A 
ATOM     20  F   UNL     1      -4.876  10.803  17.690  0.00  0.00    +0.000 F 
ATOM     21  C   UNL     1      -2.643  10.088  17.435  0.00  0.00    +0.000 A 
ATOM     22  C   UNL     1      -1.301  10.181  17.819  0.00  0.00    +0.000 A 
ENDBRANCH  15  16
ENDBRANCH  12  15
ENDBRANCH   6   9
BRANCH   4  23
ATOM     23  C   UNL     1       2.584   2.711  20.112  0.00  0.00    +0.000 C 
ATOM     24  N   UNL     1       2.000   1.636  19.499  0.00  0.00    +0.000 N 
ATOM     25  O   UNL     1       2.732   2.755  21.329  0.00  0.00    +0.000 OA
ATOM     26  H   UNL     1       1.879   1.621  18.500  0.00  0.00    +0.000 HD
ATOM     27  H   UNL     1       1.679   0.867  20.072  0.00  0.00    +0.000 HD
ENDBRANCH   4  23
BRANCH   1  28
ATOM     28  C   UNL     1       6.164   5.482  15.947  0.00  0.00    +0.000 C 
ATOM     29  C   UNL     1       5.272   6.503  15.231  0.00  0.00    +0.000 C 
ATOM     30  C   UNL     1       7.071   4.807  14.898  0.00  0.00    +0.000 C 
BRANCH  28  31
ATOM     31  C   UNL     1       7.084   6.193  16.970  0.00  0.00    +0.000 C 
ATOM     32  O   UNL     1       7.241   7.407  17.051  0.00  0.00    +0.000 OA
BRANCH  31  34
ATOM     33  C   UNL     1       7.742   5.590  19.138  0.00  0.00    +0.000 C 
ATOM     34  O   UNL     1       7.747   5.280  17.748  0.00  0.00    +0.000 OA
ENDBRANCH  31  34
ENDBRANCH  28  31
ENDBRANCH   1  28
TORSDOF 7
ENDMDL
MODEL 7
REMARK VINA RESULT:      -9.0      1.128      1.571
REMARK  Name = 
REMARK  10 active torsions:
REMARK  status: ('A' for Active; 'I' for Inactive)
REMARK    1  A    between atoms: C_1  and  O_2
REMARK    2  A    between atoms: O_2  and  C_3
REMARK    3  A    between atoms: C_3  and  C_5
REMARK    4  A    between atoms: C_5  and  C_6
REMARK    5  A    between atoms: C_5  and  C_7
REMARK    6  A    between atoms: C_5  and  N_8
REMARK    7  A    between atoms: C_11  and  C_12
REMARK    8  A    between atoms: C_16  and  C_17
REMARK    9  A    between atoms: C_20  and  O_21
REMARK   10  A    between atoms: O_21  and  C_22
REMARK                            x       y       z     vdW  Elec       q    Type
REMARK                         _______ _______ _______ _____ _____    ______ ____
ROOT
ATOM      1  N   UNL     1       5.003   3.721  17.241  0.00  0.00    +0.000 N 
ATOM      2  C   UNL     1       4.064   4.208  18.145  0.00  0.00    +0.000 A 
ATOM      3  C   UNL     1       3.609   3.336  19.106  0.00  0.00    +0.000 A 
ATOM      4  C   UNL     1       2.772   3.858  20.057  0.00  0.00    +0.000 A 
ATOM      5  N   UNL     1       2.349   5.138  20.071  0.00  0.00    +0.000 NA
ATOM      6  C   UNL     1       2.818   5.909  19.074  0.00  0.00    +0.000 A 
ATOM      7  N   UNL     1       3.680   5.490  18.123  0.00  0.00    +0.000 NA
ATOM      8  H   UNL     1       4.690   2.876  16.769  0.00  0.00    +0.000 HD
ENDROOT
BRANCH   6   9
ATOM      9  C   UNL     1       2.316   7.299  19.012  0.00  0.00    +0.000 A 
ATOM     10  C   UNL     1       1.689   7.880  20.129  0.00  0.00    +0.000 A 
ATOM     11  C   UNL     1       1.186   9.182  20.089  0.00  0.00    +0.000 A 
ATOM     12  C   UNL     1       1.379   9.974  18.964  0.00  0.00    +0.000 A 
ATOM     13  C   UNL     1       1.949   9.415  17.820  0.00  0.00    +0.000 A 
ATOM     14  C   UNL     1       2.411   8.089  17.848  0.00  0.00    +0.000 A 
BRANCH  12  15
ATOM     15  O   UNL     1       1.042  11.313  18.915  0.00  0.00    +0.000 OA
BRANCH  15  16
ATOM     16  C   UNL     1       0.145  11.789  19.855  0.00  0.00    +0.000 A 
ATOM     17  C   UNL     1      -1.241  11.599  19.755  0.00  0.00    +0.000 A 
ATOM     18  C   UNL     1      -2.100  12.220  20.660  0.00  0.00    +0.000 A 
ATOM     19  C   UNL     1      -1.565  12.960  21.705  0.00  0.00    +0.000 A 
ATOM     20  F   UNL     1      -2.387  13.566  22.572  0.00  0.00    +0.000 F 
ATOM     21  C   UNL     1      -0.188  13.083  21.869  0.00  0.00    +0.000 A 
ATOM     22  C   UNL     1       0.672  12.493  20.938  0.00  0.00    +0.000 A 
ENDBRANCH  15  16
ENDBRANCH  12  15
ENDBRANCH   6   9
BRANCH   4  23
ATOM     23  C   UNL     1       2.291   2.972  21.164  0.00  0.00    +0.000 C 
ATOM     24  N   UNL     1       0.935   2.851  21.296  0.00  0.00    +0.000 N 
ATOM     25  O   UNL     1       3.064   2.386  21.914  0.00  0.00    +0.000 OA
ATOM     26  H   UNL     1       0.315   3.346  20.677  0.00  0.00    +0.000 HD
ATOM     27  H   UNL     1       0.570   2.269  22.038  0.00  0.00    +0.000 HD
ENDBRANCH   4  23
BRANCH   1  28
ATOM     28  C   UNL     1       5.853   4.606  16.423  0.00  0.00    +0.000 C 
ATOM     29  C   UNL     1       5.103   5.880  16.017  0.00  0.00    +0.000 C 
ATOM     30  C   UNL     1       6.183   3.807  15.146  0.00  0.00    +0.000 C 
BRANCH  28  31
ATOM     31  C   UNL     1       7.196   4.965  17.107  0.00  0.00    +0.000 C 
ATOM     32  O   UNL     1       8.116   4.177  17.306  0.00  0.00    +0.000 OA
BRANCH  31  34
ATOM     33  C   UNL     1       7.899   6.497  18.736  0.00  0.00    +0.000 C 
ATOM     34  O   UNL     1       7.204   6.274  17.513  0.00  0.00    +0.000 OA
ENDBRANCH  31  34
ENDBRANCH  28  31
ENDBRANCH   1  28
TORSDOF 7
ENDMDL
MODEL 8
REMARK VINA RESULT:      -8.9      1.299      2.099
REMARK  Name = 
REMARK  10 active torsions:
REMARK  status: ('A' for Active; 'I' for Inactive)
REMARK    1  A    between atoms: C_1  and  O_2
REMARK    2  A    between atoms: O_2  and  C_3
REMARK    3  A    between atoms: C_3  and  C_5
REMARK    4  A    between atoms: C_5  and  C_6
REMARK    5  A    between atoms: C_5  and  C_7
REMARK    6  A    between atoms: C_5  and  N_8
REMARK    7  A    between atoms: C_11  and  C_12
REMARK    8  A    between atoms: C_16  and  C_17
REMARK    9  A    between atoms: C_20  and  O_21
REMARK   10  A    between atoms: O_21  and  C_22
REMARK                            x       y       z     vdW  Elec       q    Type
REMARK                         _______ _______ _______ _____ _____    ______ ____
ROOT
ATOM      1  N   UNL     1       5.083   4.289  16.547  0.00  0.00    +0.000 N 
ATOM      2  C   UNL     1       4.031   4.569  17.413  0.00  0.00    +0.000 A 
ATOM      3  C   UNL     1       3.440   3.501  18.046  0.00  0.00    +0.000 A 
ATOM      4  C   UNL     1       2.482   3.799  18.980  0.00  0.00    +0.000 A 
ATOM      5  N   UNL     1       2.071   5.050  19.269  0.00  0.00    +0.000 NA
ATOM      6  C   UNL     1       2.681   6.029  18.577  0.00  0.00    +0.000 A 
ATOM      7  N   UNL     1       3.664   5.830  17.674  0.00  0.00    +0.000 NA
ATOM      8  H   UNL     1       4.833   3.607  15.835  0.00  0.00    +0.000 HD
ENDROOT
BRANCH   6   9
ATOM      9  C   UNL     1       2.204   7.409  18.812  0.00  0.00    +0.000 A 
ATOM     10  C   UNL     1       2.331   8.387  17.808  0.00  0.00    +0.000 A 
ATOM     11  C   UNL     1       1.909   9.702  18.011  0.00  0.00    +0.000 A 
ATOM     12  C   UNL     1       1.261  10.056  19.189  0.00  0.00    +0.000 A 
ATOM     13  C   UNL     1       1.164   9.127  20.225  0.00  0.00    +0.000 A 
ATOM     14  C   UNL     1       1.632   7.817  20.034  0.00  0.00    +0.000 A 
BRANCH  12  15
ATOM     15  O   UNL     1       0.686  11.296  19.392  0.00  0.00    +0.000 OA
BRANCH  15  16
ATOM     16  C   UNL     1      -0.665  11.433  19.125  0.00  0.00    +0.000 A 
ATOM     17  C   UNL     1      -1.498  12.317  19.827  0.00  0.00    +0.000 A 
ATOM     18  C   UNL     1      -2.874  12.309  19.604  0.00  0.00    +0.000 A 
ATOM     19  C   UNL     1      -3.398  11.476  18.626  0.00  0.00    +0.000 A 
ATOM     20  F   UNL     1      -4.720  11.457  18.414  0.00  0.00    +0.000 F 
ATOM     21  C   UNL     1      -2.573  10.657  17.859  0.00  0.00    +0.000 A 
ATOM     22  C   UNL     1      -1.197  10.637  18.110  0.00  0.00    +0.000 A 
ENDBRANCH  15  16
ENDBRANCH  12  15
ENDBRANCH   6   9
BRANCH   4  23
ATOM     23  C   UNL     1       1.844   2.681  19.746  0.00  0.00    +0.000 C 
ATOM     24  N   UNL     1       1.610   1.527  19.049  0.00  0.00    +0.000 N 
ATOM     25  O   UNL     1       1.545   2.788  20.930  0.00  0.00    +0.000 OA
ATOM     26  H   UNL     1       1.855   1.459  18.074  0.00  0.00    +0.000 HD
ATOM     27  H   UNL     1       1.173   0.752  19.527  0.00  0.00    +0.000 HD
ENDBRANCH   4  23
BRANCH   1  28
ATOM     28  C   UNL     1       6.046   5.316  16.106  0.00  0.00    +0.000 C 
ATOM     29  C   UNL     1       6.953   5.760  17.260  0.00  0.00    +0.000 C 
ATOM     30  C   UNL     1       5.197   6.523  15.661  0.00  0.00    +0.000 C 
BRANCH  28  31
ATOM     31  C   UNL     1       6.897   4.871  14.890  0.00  0.00    +0.000 C 
ATOM     32  O   UNL     1       7.854   5.492  14.437  0.00  0.00    +0.000 OA
BRANCH  31  34
ATOM     33  C   UNL     1       6.231   3.762  12.936  0.00  0.00    +0.000 C 
ATOM     34  O   UNL     1       6.407   3.712  14.348  0.00  0.00    +0.000 OA
ENDBRANCH  31  34
ENDBRANCH  28  31
ENDBRANCH   1  28
TORSDOF 7
ENDMDL
MODEL 9
REMARK VINA RESULT:      -8.8      1.025      1.881
REMARK  Name = 
REMARK  10 active torsions:
REMARK  status: ('A' for Active; 'I' for Inactive)
REMARK    1  A    between atoms: C_1  and  O_2
REMARK    2  A    between atoms: O_2  and  C_3
REMARK    3  A    between atoms: C_3  and  C_5
REMARK    4  A    between atoms: C_5  and  C_6
REMARK    5  A    between atoms: C_5  and  C_7
REMARK    6  A    between atoms: C_5  and  N_8
REMARK    7  A    between atoms: C_11  and  C_12
REMARK    8  A    between atoms: C_16  and  C_17
REMARK    9  A    between atoms: C_20  and  O_21
REMARK   10  A    between atoms: O_21  and  C_22
REMARK                            x       y       z     vdW  Elec       q    Type
REMARK                         _______ _______ _______ _____ _____    ______ ____
ROOT
ATOM      1  N   UNL     1       5.083   4.327  17.525  0.00  0.00    +0.000 N 
ATOM      2  C   UNL     1       4.064   4.680  18.403  0.00  0.00    +0.000 A 
ATOM      3  C   UNL     1       3.613   3.705  19.262  0.00  0.00    +0.000 A 
ATOM      4  C   UNL     1       2.690   4.095  20.197  0.00  0.00    +0.000 A 
ATOM      5  N   UNL     1       2.184   5.342  20.286  0.00  0.00    +0.000 NA
ATOM      6  C   UNL     1       2.658   6.219  19.384  0.00  0.00    +0.000 A 
ATOM      7  N   UNL     1       3.599   5.934  18.459  0.00  0.00    +0.000 NA
ATOM      8  H   UNL     1       4.854   3.506  16.968  0.00  0.00    +0.000 HD
ENDROOT
BRANCH   6   9
ATOM      9  C   UNL     1       2.071   7.576  19.401  0.00  0.00    +0.000 A 
ATOM     10  C   UNL     1       1.456   8.072  20.565  0.00  0.00    +0.000 A 
ATOM     11  C   UNL     1       0.874   9.341  20.600  0.00  0.00    +0.000 A 
ATOM     12  C   UNL     1       0.972  10.188  19.503  0.00  0.00    +0.000 A 
ATOM     13  C   UNL     1       1.527   9.712  18.316  0.00  0.00    +0.000 A 
ATOM     14  C   UNL     1       2.070   8.417  18.269  0.00  0.00    +0.000 A 
BRANCH  12  15
ATOM     15  O   UNL     1       0.553  11.504  19.524  0.00  0.00    +0.000 OA
BRANCH  15  16
ATOM     16  C   UNL     1      -0.805  11.750  19.637  0.00  0.00    +0.000 A 
ATOM     17  C   UNL     1      -1.727  11.425  18.631  0.00  0.00    +0.000 A 
ATOM     18  C   UNL     1      -3.058  11.822  18.747  0.00  0.00    +0.000 A 
ATOM     19  C   UNL     1      -3.475  12.468  19.902  0.00  0.00    +0.000 A 
ATOM     20  F   UNL     1      -4.751  12.859  20.015  0.00  0.00    +0.000 F 
ATOM     21  C   UNL     1      -2.590  12.717  20.948  0.00  0.00    +0.000 A 
ATOM     22  C   UNL     1      -1.246  12.354  20.814  0.00  0.00    +0.000 A 
ENDBRANCH  15  16
ENDBRANCH  12  15
ENDBRANCH   6   9
BRANCH   4  23
ATOM     23  C   UNL     1       2.205   3.092  21.199  0.00  0.00    +0.000 C 
ATOM     24  N   UNL     1       0.860   2.843  21.202  0.00  0.00    +0.000 N 
ATOM     25  O   UNL     1       2.966   2.525  21.976  0.00  0.00    +0.000 OA
ATOM     26  H   UNL     1       0.249   3.324  20.563  0.00  0.00    +0.000 HD
ATOM     27  H   UNL     1       0.492   2.179  21.870  0.00  0.00    +0.000 HD
ENDBRANCH   4  23
BRANCH   1  28
ATOM     28  C   UNL     1       5.919   5.327  16.833  0.00  0.00    +0.000 C 
ATOM     29  C   UNL     1       6.959   5.934  17.782  0.00  0.00    +0.000 C 
ATOM     30  C   UNL     1       4.954   6.444  16.387  0.00  0.00    +0.000 C 
BRANCH  28  31
ATOM     31  C   UNL     1       6.608   4.771  15.562  0.00  0.00    +0.000 C 
ATOM     32  O   UNL     1       7.821   4.691  15.397  0.00  0.00    +0.000 OA
BRANCH  31  34
ATOM     33  C   UNL     1       6.238   3.830  13.447  0.00  0.00    +0.000 C 
ATOM     34  O   UNL     1       5.680   4.424  14.615  0.00  0.00    +0.000 OA
ENDBRANCH  31  34
ENDBRANCH  28  31
ENDBRANCH   1  28
TORSDOF 7
ENDMDL
