MODEL 1
REMARK VINA RESULT:      -9.0      0.000      0.000
REMARK  Name = 
REMARK  9 active torsions:
REMARK  status: ('A' for Active; 'I' for Inactive)
REMARK    1  A    between atoms: C_1  and  O_2
REMARK    2  A    between atoms: O_2  and  C_3
REMARK    3  A    between atoms: C_7  and  C_8
REMARK    4  A    between atoms: C_9  and  C_10
REMARK    5  A    between atoms: C_10  and  C_12
REMARK    6  A    between atoms: C_15  and  O_16
REMARK    7  A    between atoms: O_16  and  C_17
REMARK    8  A    between atoms: C_17  and  C_18
REMARK    9  A    between atoms: N_20  and  C_21
REMARK                            x       y       z     vdW  Elec       q    Type
REMARK                         _______ _______ _______ _____ _____    ______ ____
ROOT
ATOM      1  C   UNL     1       6.114   5.823  17.699  0.00  0.00    +0.000 A 
ATOM      2  C   UNL     1       6.273   5.183  18.932  0.00  0.00    +0.000 A 
ATOM      3  C   UNL     1       5.251   4.386  19.443  0.00  0.00    +0.000 A 
ATOM      4  C   UNL     1       4.048   4.241  18.747  0.00  0.00    +0.000 A 
ATOM      5  C   UNL     1       3.873   4.874  17.519  0.00  0.00    +0.000 A 
ATOM      6  C   UNL     1       4.903   5.672  16.999  0.00  0.00    +0.000 A 
ENDROOT
BRANCH   1   7
ATOM      7  C   UNL     1       7.225   6.655  17.175  0.00  0.00    +0.000 C 
ATOM      8  O   UNL     1       7.743   6.408  16.094  0.00  0.00    +0.000 OA
BRANCH   7  10
ATOM      9  C   UNL     1       8.235   8.888  17.455  0.00  0.00    +0.000 C 
ATOM     10  C   UNL     1       7.630   7.822  18.000  0.00  0.00    +0.000 C 
BRANCH   9  15
ATOM     11  C   UNL     1       9.030  12.454  18.486  0.00  0.00    +0.000 A 
ATOM     12  C   UNL     1       9.558  12.236  19.759  0.00  0.00    +0.000 A 
ATOM     13  C   UNL     1       9.652  10.944  20.274  0.00  0.00    +0.000 A 
ATOM     14  C   UNL     1       9.216   9.856  19.515  0.00  0.00    +0.000 A 
ATOM     15  C   UNL     1       8.669  10.052  18.243  0.00  0.00    +0.000 A 
ATOM     16  C   UNL     1       8.589  11.362  17.735  0.00  0.00    +0.000 A 
BRANCH  11  18
ATOM     17  C   UNL     1       9.776  14.683  18.850  0.00  0.00    +0.000 C 
ATOM     18  O   UNL     1       9.011  13.761  18.082  0.00  0.00    +0.000 OA
ENDBRANCH  11  18
ENDBRANCH   9  15
ENDBRANCH   7  10
ENDBRANCH   1   7
BRANCH   4  19
ATOM     19  O   UNL     1       3.130   3.430  19.353  0.00  0.00    +0.000 OA
BRANCH  19  20
ATOM     20  C   UNL     1       2.641   3.865  20.620  0.00  0.00    +0.000 C 
BRANCH  20  21
ATOM     21  C   UNL     1       1.821   5.138  20.440  0.00  0.00    +0.000 C 
ATOM     22  O   UNL     1       0.598   5.093  20.314  0.00  0.00    +0.000 OA
ATOM     23  N   UNL     1       2.586   6.302  20.431  0.00  0.00    +0.000 N 
ATOM     24  H   UNL     1       3.541   6.152  20.113  0.00  0.00    +0.000 HD
BRANCH  23  25
ATOM     25  C   UNL     1       1.992   7.549  20.174  0.00  0.00    +0.000 A 
ATOM     26  C   UNL     1       2.107   8.098  18.884  0.00  0.00    +0.000 A 
ATOM     27  C   UNL     1       1.335   9.206  18.528  0.00  0.00    +0.000 A 
ATOM     28  C   UNL     1       0.539   9.767  19.511  0.00  0.00    +0.000 A 
ATOM     29  C   UNL     1       0.534   9.330  20.811  0.00  0.00    +0.000 A 
ATOM     30  C   UNL     1       1.241   8.200  21.165  0.00  0.00    +0.000 A 
ATOM     31  C   UNL     1      -0.310  10.231  21.617  0.00  0.00    +0.000 C 
ATOM     32  O   UNL     1      -1.028  10.981  20.615  0.00  0.00    +0.000 OA
ATOM     33  C   UNL     1      -0.478  10.813  19.375  0.00  0.00    +0.000 C 
ATOM     34  O   UNL     1      -0.800  11.375  18.356  0.00  0.00    +0.000 OA
ENDBRANCH  23  25
ENDBRANCH  20  21
ENDBRANCH  19  20
ENDBRANCH   4  19
TORSDOF 8
ENDMDL
MODEL 2
REMARK VINA RESULT:      -8.8      0.694      1.342
REMARK  Name = 
REMARK  9 active torsions:
REMARK  status: ('A' for Active; 'I' for Inactive)
REMARK    1  A    between atoms: C_1  and  O_2
REMARK    2  A    between atoms: O_2  and  C_3
REMARK    3  A    between atoms: C_7  and  C_8
REMARK    4  A    between atoms: C_9  and  C_10
REMARK    5  A    between atoms: C_10  and  C_12
REMARK    6  A    between atoms: C_15  and  O_16
REMARK    7  A    between atoms: O_16  and  C_17
REMARK    8  A    between atoms: C_17  and  C_18
REMARK    9  A    between atoms: N_20  and  C_21
REMARK                            x       y       z     vdW  Elec       q    Type
REMARK                         _______ _______ _______ _____ _____    ______ ____
ROOT
ATOM      1  C   UNL     1       6.125   5.708  17.657  0.00  0.00    +0.000 A 
ATOM      2  C   UNL     1       6.207   5.313  18.996  0.00  0.00    +0.000 A 
ATOM      3  C   UNL     1       5.181   4.565  19.568  0.00  0.00    +0.000 A 
ATOM      4  C   UNL     1       4.049   4.225  18.824  0.00  0.00    +0.000 A 
ATOM      5  C   UNL     1       3.951   4.613  17.490  0.00  0.00    +0.000 A 
ATOM      6  C   UNL     1       4.985   5.362  16.909  0.00  0.00    +0.000 A 
ENDROOT
BRANCH   1   7
ATOM      7  C   UNL     1       7.239   6.495  17.072  0.00  0.00    +0.000 C 
ATOM      8  O   UNL     1       7.639   6.273  15.937  0.00  0.00    +0.000 OA
BRANCH   7  10
ATOM      9  C   UNL     1       7.928   8.835  17.438  0.00  0.00    +0.000 C 
ATOM     10  C   UNL     1       7.797   7.586  17.911  0.00  0.00    +0.000 C 
BRANCH   9  15
ATOM     11  C   UNL     1       9.056  12.293  18.520  0.00  0.00    +0.000 A 
ATOM     12  C   UNL     1       9.634  11.994  19.754  0.00  0.00    +0.000 A 
ATOM     13  C   UNL     1       9.654  10.684  20.227  0.00  0.00    +0.000 A 
ATOM     14  C   UNL     1       9.093   9.657  19.464  0.00  0.00    +0.000 A 
ATOM     15  C   UNL     1       8.494   9.936  18.232  0.00  0.00    +0.000 A 
ATOM     16  C   UNL     1       8.490  11.263  17.765  0.00  0.00    +0.000 A 
BRANCH  11  18
ATOM     17  C   UNL     1       7.884  14.312  18.063  0.00  0.00    +0.000 C 
ATOM     18  O   UNL     1       9.119  13.610  18.154  0.00  0.00    +0.000 OA
ENDBRANCH  11  18
ENDBRANCH   9  15
ENDBRANCH   7  10
ENDBRANCH   1   7
BRANCH   4  19
ATOM     19  O   UNL     1       3.120   3.486  19.500  0.00  0.00    +0.000 OA
BRANCH  19  20
ATOM     20  C   UNL     1       2.726   3.981  20.778  0.00  0.00    +0.000 C 
BRANCH  20  21
ATOM     21  C   UNL     1       1.724   5.117  20.597  0.00  0.00    +0.000 C 
ATOM     22  O   UNL     1       0.558   4.889  20.275  0.00  0.00    +0.000 OA
ATOM     23  N   UNL     1       2.260   6.382  20.826  0.00  0.00    +0.000 N 
ATOM     24  H   UNL     1       3.261   6.430  20.650  0.00  0.00    +0.000 HD
BRANCH  23  25
ATOM     25  C   UNL     1       1.493   7.537  20.604  0.00  0.00    +0.000 A 
ATOM     26  C   UNL     1       0.548   7.915  21.575  0.00  0.00    +0.000 A 
ATOM     27  C   UNL     1      -0.055   9.173  21.505  0.00  0.00    +0.000 A 
ATOM     28  C   UNL     1       0.257   9.967  20.417  0.00  0.00    +0.000 A 
ATOM     29  C   UNL     1       1.062   9.547  19.388  0.00  0.00    +0.000 A 
ATOM     30  C   UNL     1       1.714   8.334  19.471  0.00  0.00    +0.000 A 
ATOM     31  C   UNL     1       1.069  10.576  18.333  0.00  0.00    +0.000 C 
ATOM     32  O   UNL     1       0.492  11.720  18.995  0.00  0.00    +0.000 OA
ATOM     33  C   UNL     1      -0.094  11.370  20.179  0.00  0.00    +0.000 C 
ATOM     34  O   UNL     1      -0.732  12.086  20.913  0.00  0.00    +0.000 OA
ENDBRANCH  23  25
ENDBRANCH  20  21
ENDBRANCH  19  20
ENDBRANCH   4  19
TORSDOF 8
ENDMDL
MODEL 3
REMARK VINA RESULT:      -8.2      1.297      2.107
REMARK  Name = 
REMARK  9 active torsions:
REMARK  status: ('A' for Active; 'I' for Inactive)
REMARK    1  A    between atoms: C_1  and  O_2
REMARK    2  A    between atoms: O_2  and  C_3
REMARK    3  A    between atoms: C_7  and  C_8
REMARK    4  A    between atoms: C_9  and  C_10
REMARK    5  A    between atoms: C_10  and  C_12
REMARK    6  A    between atoms: C_15  and  O_16
REMARK    7  A    between atoms: O_16  and  C_17
REMARK    8  A    between atoms: C_17  and  C_18
REMARK    9  A    between atoms: N_20  and  C_21
REMARK                            x       y       z     vdW  Elec       q    Type
REMARK                         _______ _______ _______ _____ _____    ______ ____
ROOT
ATOM      1  C   UNL     1       6.090   6.467  17.667  0.00  0.00    +0.000 A 
ATOM      2  C   UNL     1       6.289   5.499  18.657  0.00  0.00    +0.000 A 
ATOM      3  C   UNL     1       5.200   4.824  19.203  0.00  0.00    +0.000 A 
ATOM      4  C   UNL     1       3.899   5.124  18.792  0.00  0.00    +0.000 A 
ATOM      5  C   UNL     1       3.684   6.087  17.809  0.00  0.00    +0.000 A 
ATOM      6  C   UNL     1       4.779   6.764  17.253  0.00  0.00    +0.000 A 
ENDROOT
BRANCH   1   7
ATOM      7  C   UNL     1       7.271   7.160  17.095  0.00  0.00    +0.000 C 
ATOM      8  O   UNL     1       7.958   6.629  16.233  0.00  0.00    +0.000 OA
BRANCH   7  10
ATOM      9  C   UNL     1       8.634   8.829  18.297  0.00  0.00    +0.000 C 
ATOM     10  C   UNL     1       7.536   8.539  17.583  0.00  0.00    +0.000 C 
BRANCH   9  15
ATOM     11  C   UNL     1       9.316  11.713  20.668  0.00  0.00    +0.000 A 
ATOM     12  C   UNL     1       9.408  12.768  19.760  0.00  0.00    +0.000 A 
ATOM     13  C   UNL     1       9.251  12.542  18.394  0.00  0.00    +0.000 A 
ATOM     14  C   UNL     1       8.999  11.251  17.924  0.00  0.00    +0.000 A 
ATOM     15  C   UNL     1       8.919  10.176  18.815  0.00  0.00    +0.000 A 
ATOM     16  C   UNL     1       9.072  10.423  20.191  0.00  0.00    +0.000 A 
BRANCH  11  18
ATOM     17  C   UNL     1       8.357  11.820  22.843  0.00  0.00    +0.000 C 
ATOM     18  O   UNL     1       9.464  12.064  21.982  0.00  0.00    +0.000 OA
ENDBRANCH  11  18
ENDBRANCH   9  15
ENDBRANCH   7  10
ENDBRANCH   1   7
BRANCH   4  19
ATOM     19  O   UNL     1       2.922   4.388  19.401  0.00  0.00    +0.000 OA
BRANCH  19  20
ATOM     20  C   UNL     1       2.615   4.738  20.749  0.00  0.00    +0.000 C 
BRANCH  20  21
ATOM     21  C   UNL     1       1.558   5.838  20.763  0.00  0.00    +0.000 C 
ATOM     22  O   UNL     1       0.372   5.580  20.559  0.00  0.00    +0.000 OA
ATOM     23  N   UNL     1       2.071   7.108  21.016  0.00  0.00    +0.000 N 
ATOM     24  H   UNL     1       3.043   7.211  20.732  0.00  0.00    +0.000 HD
BRANCH  23  25
ATOM     25  C   UNL     1       1.242   8.240  20.963  0.00  0.00    +0.000 A 
ATOM     26  C   UNL     1       0.591   8.654  22.139  0.00  0.00    +0.000 A 
ATOM     27  C   UNL     1      -0.042   9.898  22.183  0.00  0.00    +0.000 A 
ATOM     28  C   UNL     1      -0.063  10.641  21.016  0.00  0.00    +0.000 A 
ATOM     29  C   UNL     1       0.439  10.180  19.825  0.00  0.00    +0.000 A 
ATOM     30  C   UNL     1       1.121   8.982  19.779  0.00  0.00    +0.000 A 
ATOM     31  C   UNL     1       0.128  11.155  18.763  0.00  0.00    +0.000 C 
ATOM     32  O   UNL     1      -0.276  12.322  19.507  0.00  0.00    +0.000 OA
ATOM     33  C   UNL     1      -0.503  12.025  20.822  0.00  0.00    +0.000 C 
ATOM     34  O   UNL     1      -0.933  12.768  21.671  0.00  0.00    +0.000 OA
ENDBRANCH  23  25
ENDBRANCH  20  21
ENDBRANCH  19  20
ENDBRANCH   4  19
TORSDOF 8
ENDMDL
MODEL 4
REMARK VINA RESULT:      -8.2      4.543      6.904
REMARK  Name = 
REMARK  9 active torsions:
REMARK  status: ('A' for Active; 'I' for Inactive)
REMARK    1  A    between atoms: C_1  and  O_2
REMARK    2  A    between atoms: O_2  and  C_3
REMARK    3  A    between atoms: C_7  and  C_8
REMARK    4  A    between atoms: C_9  and  C_10
REMARK    5  A    between atoms: C_10  and  C_12
REMARK    6  A    between atoms: C_15  and  O_16
REMARK    7  A    between atoms: O_16  and  C_17
REMARK    8  A    between atoms: C_17  and  C_18
REMARK    9  A    between atoms: N_20  and  C_21
REMARK                            x       y       z     vdW  Elec       q    Type
REMARK                         _______ _______ _______ _____ _____    ______ ____
ROOT
ATOM      1  C   UNL     1       3.713   5.375  18.509  0.00  0.00    +0.000 A 
ATOM      2  C   UNL     1       2.989   5.364  19.706  0.00  0.00    +0.000 A 
ATOM      3  C   UNL     1       2.237   6.476  20.078  0.00  0.00    +0.000 A 
ATOM      4  C   UNL     1       2.221   7.622  19.280  0.00  0.00    +0.000 A 
ATOM      5  C   UNL     1       2.940   7.650  18.087  0.00  0.00    +0.000 A 
ATOM      6  C   UNL     1       3.693   6.530  17.706  0.00  0.00    +0.000 A 
ENDROOT
BRANCH   1   7
ATOM      7  C   UNL     1       4.495   4.170  18.133  0.00  0.00    +0.000 C 
ATOM      8  O   UNL     1       4.815   3.340  18.973  0.00  0.00    +0.000 OA
BRANCH   7  10
ATOM      9  C   UNL     1       5.911   4.558  16.151  0.00  0.00    +0.000 C 
ATOM     10  C   UNL     1       4.814   4.006  16.692  0.00  0.00    +0.000 C 
BRANCH   9  15
ATOM     11  C   UNL     1       5.881   3.458  12.519  0.00  0.00    +0.000 A 
ATOM     12  C   UNL     1       6.963   4.188  12.026  0.00  0.00    +0.000 A 
ATOM     13  C   UNL     1       7.691   5.028  12.866  0.00  0.00    +0.000 A 
ATOM     14  C   UNL     1       7.339   5.144  14.213  0.00  0.00    +0.000 A 
ATOM     15  C   UNL     1       6.249   4.434  14.725  0.00  0.00    +0.000 A 
ATOM     16  C   UNL     1       5.530   3.584  13.865  0.00  0.00    +0.000 A 
BRANCH  11  18
ATOM     17  C   UNL     1       3.967   3.051  11.165  0.00  0.00    +0.000 C 
ATOM     18  O   UNL     1       5.261   2.651  11.604  0.00  0.00    +0.000 OA
ENDBRANCH  11  18
ENDBRANCH   9  15
ENDBRANCH   7  10
ENDBRANCH   1   7
BRANCH   4  19
ATOM     19  O   UNL     1       1.442   8.640  19.754  0.00  0.00    +0.000 OA
BRANCH  19  20
ATOM     20  C   UNL     1       1.474   8.856  21.163  0.00  0.00    +0.000 C 
BRANCH  20  21
ATOM     21  C   UNL     1       0.114   9.362  21.632  0.00  0.00    +0.000 C 
ATOM     22  O   UNL     1      -0.762   8.580  22.001  0.00  0.00    +0.000 OA
ATOM     23  N   UNL     1      -0.015  10.748  21.591  0.00  0.00    +0.000 N 
ATOM     24  H   UNL     1       0.580  11.185  20.891  0.00  0.00    +0.000 HD
BRANCH  23  25
ATOM     25  C   UNL     1      -1.240  11.365  21.896  0.00  0.00    +0.000 A 
ATOM     26  C   UNL     1      -1.713  11.306  23.220  0.00  0.00    +0.000 A 
ATOM     27  C   UNL     1      -2.792  12.102  23.608  0.00  0.00    +0.000 A 
ATOM     28  C   UNL     1      -3.404  12.864  22.629  0.00  0.00    +0.000 A 
ATOM     29  C   UNL     1      -3.045  12.814  21.306  0.00  0.00    +0.000 A 
ATOM     30  C   UNL     1      -1.943  12.081  20.916  0.00  0.00    +0.000 A 
ATOM     31  C   UNL     1      -3.985  13.634  20.521  0.00  0.00    +0.000 C 
ATOM     32  O   UNL     1      -4.669  14.398  21.535  0.00  0.00    +0.000 OA
ATOM     33  C   UNL     1      -4.433  13.897  22.785  0.00  0.00    +0.000 C 
ATOM     34  O   UNL     1      -4.931  14.263  23.821  0.00  0.00    +0.000 OA
ENDBRANCH  23  25
ENDBRANCH  20  21
ENDBRANCH  19  20
ENDBRANCH   4  19
TORSDOF 8
ENDMDL
MODEL 5
REMARK VINA RESULT:      -8.1      3.849      6.486
REMARK  Name = 
REMARK  9 active torsions:
REMARK  status: ('A' for Active; 'I' for Inactive)
REMARK    1  A    between atoms: C_1  and  O_2
REMARK    2  A    between atoms: O_2  and  C_3
REMARK    3  A    between atoms: C_7  and  C_8
REMARK    4  A    between atoms: C_9  and  C_10
REMARK    5  A    between atoms: C_10  and  C_12
REMARK    6  A    between atoms: C_15  and  O_16
REMARK    7  A    between atoms: O_16  and  C_17
REMARK    8  A    between atoms: C_17  and  C_18
REMARK    9  A    between atoms: N_20  and  C_21
REMARK                            x       y       z     vdW  Elec       q    Type
REMARK                         _______ _______ _______ _____ _____    ______ ____
ROOT
ATOM      1  C   UNL     1       5.161   4.964  17.484  0.00  0.00    +0.000 A 
ATOM      2  C   UNL     1       3.956   4.331  17.161  0.00  0.00    +0.000 A 
ATOM      3  C   UNL     1       3.303   3.548  18.110  0.00  0.00    +0.000 A 
ATOM      4  C   UNL     1       3.854   3.361  19.379  0.00  0.00    +0.000 A 
ATOM      5  C   UNL     1       5.054   3.983  19.716  0.00  0.00    +0.000 A 
ATOM      6  C   UNL     1       5.712   4.777  18.765  0.00  0.00    +0.000 A 
ENDROOT
BRANCH   1   7
ATOM      7  C   UNL     1       5.828   5.803  16.457  0.00  0.00    +0.000 C 
ATOM      8  O   UNL     1       6.495   6.778  16.775  0.00  0.00    +0.000 OA
BRANCH   7  10
ATOM      9  C   UNL     1       5.883   4.087  14.686  0.00  0.00    +0.000 C 
ATOM     10  C   UNL     1       5.686   5.365  15.044  0.00  0.00    +0.000 C 
BRANCH   9  15
ATOM     11  C   UNL     1       4.444   3.117  11.310  0.00  0.00    +0.000 A 
ATOM     12  C   UNL     1       5.597   2.670  10.664  0.00  0.00    +0.000 A 
ATOM     13  C   UNL     1       6.826   2.686  11.320  0.00  0.00    +0.000 A 
ATOM     14  C   UNL     1       6.911   3.152  12.635  0.00  0.00    +0.000 A 
ATOM     15  C   UNL     1       5.771   3.620  13.296  0.00  0.00    +0.000 A 
ATOM     16  C   UNL     1       4.536   3.589  12.622  0.00  0.00    +0.000 A 
BRANCH  11  18
ATOM     17  C   UNL     1       3.045   4.082   9.645  0.00  0.00    +0.000 C 
ATOM     18  O   UNL     1       3.295   3.031  10.572  0.00  0.00    +0.000 OA
ENDBRANCH  11  18
ENDBRANCH   9  15
ENDBRANCH   7  10
ENDBRANCH   1   7
BRANCH   4  19
ATOM     19  O   UNL     1       3.112   2.576  20.216  0.00  0.00    +0.000 OA
BRANCH  19  20
ATOM     20  C   UNL     1       2.499   3.234  21.322  0.00  0.00    +0.000 C 
BRANCH  20  21
ATOM     21  C   UNL     1       1.716   4.445  20.825  0.00  0.00    +0.000 C 
ATOM     22  O   UNL     1       0.637   4.310  20.249  0.00  0.00    +0.000 OA
ATOM     23  N   UNL     1       2.341   5.663  21.084  0.00  0.00    +0.000 N 
ATOM     24  H   UNL     1       3.353   5.587  21.152  0.00  0.00    +0.000 HD
BRANCH  23  25
ATOM     25  C   UNL     1       1.797   6.865  20.601  0.00  0.00    +0.000 A 
ATOM     26  C   UNL     1       0.897   7.573  21.418  0.00  0.00    +0.000 A 
ATOM     27  C   UNL     1       0.527   8.876  21.078  0.00  0.00    +0.000 A 
ATOM     28  C   UNL     1       1.014   9.384  19.887  0.00  0.00    +0.000 A 
ATOM     29  C   UNL     1       1.771   8.647  19.012  0.00  0.00    +0.000 A 
ATOM     30  C   UNL     1       2.197   7.382  19.360  0.00  0.00    +0.000 A 
ATOM     31  C   UNL     1       1.999   9.438  17.789  0.00  0.00    +0.000 C 
ATOM     32  O   UNL     1       1.606  10.767  18.189  0.00  0.00    +0.000 OA
ATOM     33  C   UNL     1       0.924  10.753  19.373  0.00  0.00    +0.000 C 
ATOM     34  O   UNL     1       0.394  11.692  19.918  0.00  0.00    +0.000 OA
ENDBRANCH  23  25
ENDBRANCH  20  21
ENDBRANCH  19  20
ENDBRANCH   4  19
TORSDOF 8
ENDMDL
MODEL 6
REMARK VINA RESULT:      -8.0      2.007      8.496
REMARK  Name = 
REMARK  9 active torsions:
REMARK  status: ('A' for Active; 'I' for Inactive)
REMARK    1  A    between atoms: C_1  and  O_2
REMARK    2  A    between atoms: O_2  and  C_3
REMARK    3  A    between atoms: C_7  and  C_8
REMARK    4  A    between atoms: C_9  and  C_10
REMARK    5  A    between atoms: C_10  and  C_12
REMARK    6  A    between atoms: C_15  and  O_16
REMARK    7  A    between atoms: O_16  and  C_17
REMARK    8  A    between atoms: C_17  and  C_18
REMARK    9  A    between atoms: N_20  and  C_21
REMARK                            x       y       z     vdW  Elec       q    Type
REMARK                         _______ _______ _______ _____ _____    ______ ____
ROOT
ATOM      1  C   UNL     1       3.050   6.045  19.461  0.00  0.00    +0.000 A 
ATOM      2  C   UNL     1       3.107   6.983  18.425  0.00  0.00    +0.000 A 
ATOM      3  C   UNL     1       4.264   7.108  17.660  0.00  0.00    +0.000 A 
ATOM      4  C   UNL     1       5.386   6.323  17.934  0.00  0.00    +0.000 A 
ATOM      5  C   UNL     1       5.346   5.386  18.964  0.00  0.00    +0.000 A 
ATOM      6  C   UNL     1       4.180   5.254  19.733  0.00  0.00    +0.000 A 
ENDROOT
BRANCH   1   7
ATOM      7  C   UNL     1       1.799   5.927  20.252  0.00  0.00    +0.000 C 
ATOM      8  O   UNL     1       1.447   4.852  20.717  0.00  0.00    +0.000 OA
BRANCH   7  10
ATOM      9  C   UNL     1       1.391   8.040  21.457  0.00  0.00    +0.000 C 
ATOM     10  C   UNL     1       1.039   7.182  20.488  0.00  0.00    +0.000 C 
BRANCH   9  15
ATOM     11  C   UNL     1       0.148  11.621  21.256  0.00  0.00    +0.000 A 
ATOM     12  C   UNL     1      -0.740  11.640  22.333  0.00  0.00    +0.000 A 
ATOM     13  C   UNL     1      -0.930  10.501  23.112  0.00  0.00    +0.000 A 
ATOM     14  C   UNL     1      -0.231   9.328  22.819  0.00  0.00    +0.000 A 
ATOM     15  C   UNL     1       0.651   9.281  21.734  0.00  0.00    +0.000 A 
ATOM     16  C   UNL     1       0.838  10.442  20.963  0.00  0.00    +0.000 A 
BRANCH  11  18
ATOM     17  C   UNL     1      -0.390  13.935  21.145  0.00  0.00    +0.000 C 
ATOM     18  O   UNL     1       0.267  12.805  20.581  0.00  0.00    +0.000 OA
ENDBRANCH  11  18
ENDBRANCH   9  15
ENDBRANCH   7  10
ENDBRANCH   1   7
BRANCH   4  19
ATOM     19  O   UNL     1       6.453   6.539  17.107  0.00  0.00    +0.000 OA
BRANCH  19  20
ATOM     20  C   UNL     1       7.701   6.807  17.743  0.00  0.00    +0.000 C 
BRANCH  20  21
ATOM     21  C   UNL     1       7.884   8.313  17.892  0.00  0.00    +0.000 C 
ATOM     22  O   UNL     1       7.233   9.103  17.207  0.00  0.00    +0.000 OA
ATOM     23  N   UNL     1       8.832   8.673  18.847  0.00  0.00    +0.000 N 
ATOM     24  H   UNL     1       9.548   7.964  18.987  0.00  0.00    +0.000 HD
BRANCH  23  25
ATOM     25  C   UNL     1       9.189  10.019  19.032  0.00  0.00    +0.000 A 
ATOM     26  C   UNL     1       9.239  10.527  20.343  0.00  0.00    +0.000 A 
ATOM     27  C   UNL     1       9.815  11.776  20.582  0.00  0.00    +0.000 A 
ATOM     28  C   UNL     1      10.245  12.499  19.483  0.00  0.00    +0.000 A 
ATOM     29  C   UNL     1      10.064  12.075  18.191  0.00  0.00    +0.000 A 
ATOM     30  C   UNL     1       9.554  10.819  17.940  0.00  0.00    +0.000 A 
ATOM     31  C   UNL     1      10.505  13.139  17.271  0.00  0.00    +0.000 C 
ATOM     32  O   UNL     1      11.245  14.026  18.135  0.00  0.00    +0.000 OA
ATOM     33  C   UNL     1      11.022  13.741  19.454  0.00  0.00    +0.000 C 
ATOM     34  O   UNL     1      11.427  14.358  20.409  0.00  0.00    +0.000 OA
ENDBRANCH  23  25
ENDBRANCH  20  21
ENDBRANCH  19  20
ENDBRANCH   4  19
TORSDOF 8
ENDMDL
MODEL 7
REMARK VINA RESULT:      -8.0      4.535      7.027
REMARK  Name = 
REMARK  9 active torsions:
REMARK  status: ('A' for Active; 'I' for Inactive)
REMARK    1  A    between atoms: C_1  and  O_2
REMARK    2  A    between atoms: O_2  and  C_3
REMARK    3  A    between atoms: C_7  and  C_8
REMARK    4  A    between atoms: C_9  and  C_10
REMARK    5  A    between atoms: C_10  and  C_12
REMARK    6  A    between atoms: C_15  and  O_16
REMARK    7  A    between atoms: O_16  and  C_17
REMARK    8  A    between atoms: C_17  and  C_18
REMARK    9  A    between atoms: N_20  and  C_21
REMARK                            x       y       z     vdW  Elec       q    Type
REMARK                         _______ _______ _______ _____ _____    ______ ____
ROOT
ATOM      1  C   UNL     1       3.325   5.149  18.669  0.00  0.00    +0.000 A 
ATOM      2  C   UNL     1       3.401   6.289  17.863  0.00  0.00    +0.000 A 
ATOM      3  C   UNL     1       2.846   7.491  18.298  0.00  0.00    +0.000 A 
ATOM      4  C   UNL     1       2.185   7.564  19.526  0.00  0.00    +0.000 A 
ATOM      5  C   UNL     1       2.099   6.437  20.339  0.00  0.00    +0.000 A 
ATOM      6  C   UNL     1       2.661   5.227  19.906  0.00  0.00    +0.000 A 
ENDROOT
BRANCH   1   7
ATOM      7  C   UNL     1       3.936   3.886  18.183  0.00  0.00    +0.000 C 
ATOM      8  O   UNL     1       4.033   2.911  18.915  0.00  0.00    +0.000 OA
BRANCH   7  10
ATOM      9  C   UNL     1       5.595   4.254  16.395  0.00  0.00    +0.000 C 
ATOM     10  C   UNL     1       4.367   3.858  16.761  0.00  0.00    +0.000 C 
BRANCH   9  15
ATOM     11  C   UNL     1       5.873   3.487  12.688  0.00  0.00    +0.000 A 
ATOM     12  C   UNL     1       6.986   4.259  12.355  0.00  0.00    +0.000 A 
ATOM     13  C   UNL     1       7.636   5.019  13.324  0.00  0.00    +0.000 A 
ATOM     14  C   UNL     1       7.174   5.014  14.643  0.00  0.00    +0.000 A 
ATOM     15  C   UNL     1       6.051   4.260  14.996  0.00  0.00    +0.000 A 
ATOM     16  C   UNL     1       5.411   3.491  14.007  0.00  0.00    +0.000 A 
BRANCH  11  18
ATOM     17  C   UNL     1       4.082   3.206  11.149  0.00  0.00    +0.000 C 
ATOM     18  O   UNL     1       5.337   2.766  11.656  0.00  0.00    +0.000 OA
ENDBRANCH  11  18
ENDBRANCH   9  15
ENDBRANCH   7  10
ENDBRANCH   1   7
BRANCH   4  19
ATOM     19  O   UNL     1       1.691   8.800  19.838  0.00  0.00    +0.000 OA
BRANCH  19  20
ATOM     20  C   UNL     1       0.876   9.423  18.848  0.00  0.00    +0.000 C 
BRANCH  20  21
ATOM     21  C   UNL     1       0.071  10.550  19.486  0.00  0.00    +0.000 C 
ATOM     22  O   UNL     1      -0.734  11.207  18.826  0.00  0.00    +0.000 OA
ATOM     23  N   UNL     1       0.345  10.741  20.838  0.00  0.00    +0.000 N 
ATOM     24  H   UNL     1       1.283  10.449  21.102  0.00  0.00    +0.000 HD
BRANCH  23  25
ATOM     25  C   UNL     1      -0.241  11.804  21.545  0.00  0.00    +0.000 A 
ATOM     26  C   UNL     1      -1.411  11.557  22.286  0.00  0.00    +0.000 A 
ATOM     27  C   UNL     1      -1.880  12.517  23.185  0.00  0.00    +0.000 A 
ATOM     28  C   UNL     1      -1.199  13.720  23.242  0.00  0.00    +0.000 A 
ATOM     29  C   UNL     1      -0.148  14.027  22.416  0.00  0.00    +0.000 A 
ATOM     30  C   UNL     1       0.367  13.068  21.567  0.00  0.00    +0.000 A 
ATOM     31  C   UNL     1       0.249  15.428  22.642  0.00  0.00    +0.000 C 
ATOM     32  O   UNL     1      -0.427  15.759  23.872  0.00  0.00    +0.000 OA
ATOM     33  C   UNL     1      -1.369  14.822  24.194  0.00  0.00    +0.000 C 
ATOM     34  O   UNL     1      -2.153  14.864  25.111  0.00  0.00    +0.000 OA
ENDBRANCH  23  25
ENDBRANCH  20  21
ENDBRANCH  19  20
ENDBRANCH   4  19
TORSDOF 8
ENDMDL
MODEL 8
REMARK VINA RESULT:      -7.9      4.452      7.350
REMARK  Name = 
REMARK  9 active torsions:
REMARK  status: ('A' for Active; 'I' for Inactive)
REMARK    1  A    between atoms: C_1  and  O_2
REMARK    2  A    between atoms: O_2  and  C_3
REMARK    3  A    between atoms: C_7  and  C_8
REMARK    4  A    between atoms: C_9  and  C_10
REMARK    5  A    between atoms: C_10  and  C_12
REMARK    6  A    between atoms: C_15  and  O_16
REMARK    7  A    between atoms: O_16  and  C_17
REMARK    8  A    between atoms: C_17  and  C_18
REMARK    9  A    between atoms: N_20  and  C_21
REMARK                            x       y       z     vdW  Elec       q    Type
REMARK                         _______ _______ _______ _____ _____    ______ ____
ROOT
ATOM      1  C   UNL     1       3.588   6.091  18.495  0.00  0.00    +0.000 A 
ATOM      2  C   UNL     1       3.390   7.215  17.686  0.00  0.00    +0.000 A 
ATOM      3  C   UNL     1       2.574   8.255  18.123  0.00  0.00    +0.000 A 
ATOM      4  C   UNL     1       1.922   8.178  19.356  0.00  0.00    +0.000 A 
ATOM      5  C   UNL     1       2.107   7.064  20.172  0.00  0.00    +0.000 A 
ATOM      6  C   UNL     1       2.933   6.017  19.737  0.00  0.00    +0.000 A 
ENDROOT
BRANCH   1   7
ATOM      7  C   UNL     1       4.473   5.004  18.007  0.00  0.00    +0.000 C 
ATOM      8  O   UNL     1       4.861   4.122  18.760  0.00  0.00    +0.000 OA
BRANCH   7  10
ATOM      9  C   UNL     1       5.755   4.211  16.055  0.00  0.00    +0.000 C 
ATOM     10  C   UNL     1       4.811   5.018  16.560  0.00  0.00    +0.000 C 
BRANCH   9  15
ATOM     11  C   UNL     1       5.810   3.447  12.337  0.00  0.00    +0.000 A 
ATOM     12  C   UNL     1       6.917   4.199  11.942  0.00  0.00    +0.000 A 
ATOM     13  C   UNL     1       7.634   4.945  12.875  0.00  0.00    +0.000 A 
ATOM     14  C   UNL     1       7.247   4.945  14.217  0.00  0.00    +0.000 A 
ATOM     15  C   UNL     1       6.131   4.211  14.633  0.00  0.00    +0.000 A 
ATOM     16  C   UNL     1       5.423   3.456  13.680  0.00  0.00    +0.000 A 
BRANCH  11  18
ATOM     17  C   UNL     1       3.858   3.084  11.028  0.00  0.00    +0.000 C 
ATOM     18  O   UNL     1       5.203   2.738  11.336  0.00  0.00    +0.000 OA
ENDBRANCH  11  18
ENDBRANCH   9  15
ENDBRANCH   7  10
ENDBRANCH   1   7
BRANCH   4  19
ATOM     19  O   UNL     1       1.156   9.265  19.669  0.00  0.00    +0.000 OA
BRANCH  19  20
ATOM     20  C   UNL     1       0.375   9.167  20.858  0.00  0.00    +0.000 C 
BRANCH  20  21
ATOM     21  C   UNL     1      -0.438  10.444  21.041  0.00  0.00    +0.000 C 
ATOM     22  O   UNL     1      -0.870  11.066  20.072  0.00  0.00    +0.000 OA
ATOM     23  N   UNL     1      -0.620  10.808  22.374  0.00  0.00    +0.000 N 
ATOM     24  H   UNL     1       0.122  10.474  22.985  0.00  0.00    +0.000 HD
BRANCH  23  25
ATOM     25  C   UNL     1      -1.261  12.013  22.707  0.00  0.00    +0.000 A 
ATOM     26  C   UNL     1      -2.578  11.961  23.199  0.00  0.00    +0.000 A 
ATOM     27  C   UNL     1      -3.154  13.102  23.761  0.00  0.00    +0.000 A 
ATOM     28  C   UNL     1      -2.412  14.269  23.733  0.00  0.00    +0.000 A 
ATOM     29  C   UNL     1      -1.188  14.364  23.121  0.00  0.00    +0.000 A 
ATOM     30  C   UNL     1      -0.577  13.234  22.617  0.00  0.00    +0.000 A 
ATOM     31  C   UNL     1      -0.743  15.769  23.151  0.00  0.00    +0.000 C 
ATOM     32  O   UNL     1      -1.641  16.370  24.107  0.00  0.00    +0.000 OA
ATOM     33  C   UNL     1      -2.698  15.549  24.386  0.00  0.00    +0.000 C 
ATOM     34  O   UNL     1      -3.655  15.806  25.076  0.00  0.00    +0.000 OA
ENDBRANCH  23  25
ENDBRANCH  20  21
ENDBRANCH  19  20
ENDBRANCH   4  19
TORSDOF 8
ENDMDL
MODEL 9
REMARK VINA RESULT:      -7.9      4.735      6.867
REMARK  Name = 
REMARK  9 active torsions:
REMARK  status: ('A' for Active; 'I' for Inactive)
REMARK    1  A    between atoms: C_1  and  O_2
REMARK    2  A    between atoms: O_2  and  C_3
REMARK    3  A    between atoms: C_7  and  C_8
REMARK    4  A    between atoms: C_9  and  C_10
REMARK    5  A    between atoms: C_10  and  C_12
REMARK    6  A    between atoms: C_15  and  O_16
REMARK    7  A    between atoms: O_16  and  C_17
REMARK    8  A    between atoms: C_17  and  C_18
REMARK    9  A    between atoms: N_20  and  C_21
REMARK                            x       y       z     vdW  Elec       q    Type
REMARK                         _______ _______ _______ _____ _____    ______ ____
ROOT
ATOM      1  C   UNL     1       3.416   4.927  18.477  0.00  0.00    +0.000 A 
ATOM      2  C   UNL     1       2.934   5.002  19.788  0.00  0.00    +0.000 A 
ATOM      3  C   UNL     1       2.348   6.178  20.251  0.00  0.00    +0.000 A 
ATOM      4  C   UNL     1       2.262   7.302  19.426  0.00  0.00    +0.000 A 
ATOM      5  C   UNL     1       2.740   7.244  18.119  0.00  0.00    +0.000 A 
ATOM      6  C   UNL     1       3.325   6.059  17.647  0.00  0.00    +0.000 A 
ENDROOT
BRANCH   1   7
ATOM      7  C   UNL     1       4.023   3.656  18.008  0.00  0.00    +0.000 C 
ATOM      8  O   UNL     1       4.064   2.672  18.734  0.00  0.00    +0.000 OA
BRANCH   7  10
ATOM      9  C   UNL     1       5.584   4.362  16.233  0.00  0.00    +0.000 C 
ATOM     10  C   UNL     1       4.523   3.633  16.609  0.00  0.00    +0.000 C 
BRANCH   9  15
ATOM     11  C   UNL     1       5.930   3.734  12.506  0.00  0.00    +0.000 A 
ATOM     12  C   UNL     1       7.133   4.394  12.250  0.00  0.00    +0.000 A 
ATOM     13  C   UNL     1       7.820   5.036  13.279  0.00  0.00    +0.000 A 
ATOM     14  C   UNL     1       7.306   5.022  14.578  0.00  0.00    +0.000 A 
ATOM     15  C   UNL     1       6.094   4.380  14.854  0.00  0.00    +0.000 A 
ATOM     16  C   UNL     1       5.418   3.730  13.805  0.00  0.00    +0.000 A 
BRANCH  11  18
ATOM     17  C   UNL     1       3.941   3.114  11.358  0.00  0.00    +0.000 C 
ATOM     18  O   UNL     1       5.363   3.122  11.421  0.00  0.00    +0.000 OA
ENDBRANCH  11  18
ENDBRANCH   9  15
ENDBRANCH   7  10
ENDBRANCH   1   7
BRANCH   4  19
ATOM     19  O   UNL     1       1.662   8.388  19.998  0.00  0.00    +0.000 OA
BRANCH  19  20
ATOM     20  C   UNL     1       0.940   8.149  21.204  0.00  0.00    +0.000 C 
BRANCH  20  21
ATOM     21  C   UNL     1       0.692   9.472  21.920  0.00  0.00    +0.000 C 
ATOM     22  O   UNL     1       1.245   9.729  22.989  0.00  0.00    +0.000 OA
ATOM     23  N   UNL     1      -0.196  10.314  21.255  0.00  0.00    +0.000 N 
ATOM     24  H   UNL     1      -0.862   9.813  20.670  0.00  0.00    +0.000 HD
BRANCH  23  25
ATOM     25  C   UNL     1      -0.607  11.527  21.833  0.00  0.00    +0.000 A 
ATOM     26  C   UNL     1      -1.736  11.525  22.672  0.00  0.00    +0.000 A 
ATOM     27  C   UNL     1      -2.028  12.649  23.447  0.00  0.00    +0.000 A 
ATOM     28  C   UNL     1      -1.218  13.759  23.287  0.00  0.00    +0.000 A 
ATOM     29  C   UNL     1      -0.206  13.821  22.363  0.00  0.00    +0.000 A 
ATOM     30  C   UNL     1       0.135  12.700  21.634  0.00  0.00    +0.000 A 
ATOM     31  C   UNL     1       0.357  15.183  22.357  0.00  0.00    +0.000 C 
ATOM     32  O   UNL     1      -0.183  15.759  23.564  0.00  0.00    +0.000 OA
ATOM     33  C   UNL     1      -1.193  14.993  24.076  0.00  0.00    +0.000 C 
ATOM     34  O   UNL     1      -1.895  15.255  25.023  0.00  0.00    +0.000 OA
ENDBRANCH  23  25
ENDBRANCH  20  21
ENDBRANCH  19  20
ENDBRANCH   4  19
TORSDOF 8
ENDMDL
