MODEL 1
REMARK VINA RESULT:      -6.6      0.000      0.000
REMARK  Name = 
REMARK  8 active torsions:
REMARK  status: ('A' for Active; 'I' for Inactive)
REMARK    1  A    between atoms: S_1  and  C_2
REMARK    2  A    between atoms: C_5  and  C_6
REMARK    3  A    between atoms: C_6  and  O_7
REMARK    4  A    between atoms: O_7  and  C_8
REMARK    5  A    between atoms: N_15  and  C_16
REMARK    6  A    between atoms: C_16  and  C_17
REMARK    7  A    between atoms: C_17  and  C_18
REMARK    8  A    between atoms: C_18  and  N_19
REMARK                            x       y       z     vdW  Elec       q    Type
REMARK                         _______ _______ _______ _____ _____    ______ ____
ROOT
ATOM      1  C   UNL     1       5.682   5.184  15.947  0.00  0.00    +0.000 A 
ATOM      2  N   UNL     1       6.336   6.265  16.273  0.00  0.00    +0.000 NA
ATOM      3  N   UNL     1       5.859   6.691  17.482  0.00  0.00    +0.000 NA
ATOM      4  C   UNL     1       4.926   5.846  17.886  0.00  0.00    +0.000 A 
ATOM      5  N   UNL     1       4.788   4.849  16.933  0.00  0.00    +0.000 N 
ENDROOT
BRANCH   1   6
ATOM      6  S   UNL     1       5.898   4.336  14.462  0.00  0.00    +0.000 S 
ATOM      7  H   UNL     1       4.976   3.389  14.701  0.00  0.00    +0.000 HD
ENDBRANCH   1   6
BRANCH   4   8
ATOM      8  C   UNL     1       4.146   5.991  19.149  0.00  0.00    +0.000 C 
BRANCH   8   9
ATOM      9  O   UNL     1       2.787   6.172  18.762  0.00  0.00    +0.000 OA
BRANCH   9  10
ATOM     10  C   UNL     1       2.252   7.422  18.887  0.00  0.00    +0.000 A 
ATOM     11  C   UNL     1       2.146   8.382  17.876  0.00  0.00    +0.000 A 
ATOM     12  C   UNL     1       1.547   9.618  18.149  0.00  0.00    +0.000 A 
ATOM     13  C   UNL     1       1.060   9.894  19.425  0.00  0.00    +0.000 A 
ATOM     14 CL   UNL     1       0.322  11.413  19.751  0.00  0.00    +0.000 Cl
ATOM     15  C   UNL     1       1.168   8.945  20.437  0.00  0.00    +0.000 A 
ATOM     16  C   UNL     1       1.764   7.712  20.162  0.00  0.00    +0.000 A 
ENDBRANCH   9  10
ENDBRANCH   8   9
ENDBRANCH   4   8
BRANCH   5  17
ATOM     17  C   UNL     1       3.813   3.776  16.914  0.00  0.00    +0.000 C 
BRANCH  17  18
ATOM     18  C   UNL     1       4.156   2.575  17.795  0.00  0.00    +0.000 C 
BRANCH  18  19
ATOM     19  C   UNL     1       2.892   1.916  18.352  0.00  0.00    +0.000 C 
BRANCH  19  20
ATOM     20  N   UNL     1       2.342   2.674  19.459  0.00  0.00    +0.000 N 
ATOM     21  C   UNL     1       2.923   2.856  20.680  0.00  0.00    +0.000 A 
ATOM     22  C   UNL     1       2.014   3.602  21.394  0.00  0.00    +0.000 A 
ATOM     23  N   UNL     1       0.912   3.886  20.631  0.00  0.00    +0.000 NA
ATOM     24  C   UNL     1       1.137   3.316  19.469  0.00  0.00    +0.000 A 
ENDBRANCH  19  20
ENDBRANCH  18  19
ENDBRANCH  17  18
ENDBRANCH   5  17
TORSDOF 8
ENDMDL
MODEL 2
REMARK VINA RESULT:      -6.6      1.221      1.522
REMARK  Name = 
REMARK  8 active torsions:
REMARK  status: ('A' for Active; 'I' for Inactive)
REMARK    1  A    between atoms: S_1  and  C_2
REMARK    2  A    between atoms: C_5  and  C_6
REMARK    3  A    between atoms: C_6  and  O_7
REMARK    4  A    between atoms: O_7  and  C_8
REMARK    5  A    between atoms: N_15  and  C_16
REMARK    6  A    between atoms: C_16  and  C_17
REMARK    7  A    between atoms: C_17  and  C_18
REMARK    8  A    between atoms: C_18  and  N_19
REMARK                            x       y       z     vdW  Elec       q    Type
REMARK                         _______ _______ _______ _____ _____    ______ ____
ROOT
ATOM      1  C   UNL     1       5.568   5.096  15.204  0.00  0.00    +0.000 A 
ATOM      2  N   UNL     1       5.725   6.370  14.963  0.00  0.00    +0.000 NA
ATOM      3  N   UNL     1       5.181   7.061  16.010  0.00  0.00    +0.000 NA
ATOM      4  C   UNL     1       4.710   6.191  16.888  0.00  0.00    +0.000 A 
ATOM      5  N   UNL     1       4.951   4.911  16.415  0.00  0.00    +0.000 N 
ENDROOT
BRANCH   1   6
ATOM      6  S   UNL     1       6.039   3.843  14.117  0.00  0.00    +0.000 S 
ATOM      7  H   UNL     1       6.519   3.011  15.056  0.00  0.00    +0.000 HD
ENDBRANCH   1   6
BRANCH   4   8
ATOM      8  C   UNL     1       4.012   6.562  18.152  0.00  0.00    +0.000 C 
BRANCH   8   9
ATOM      9  O   UNL     1       2.981   7.475  17.786  0.00  0.00    +0.000 OA
BRANCH   9  10
ATOM     10  C   UNL     1       2.206   7.992  18.784  0.00  0.00    +0.000 A 
ATOM     11  C   UNL     1       1.491   9.192  18.741  0.00  0.00    +0.000 A 
ATOM     12  C   UNL     1       0.716   9.582  19.840  0.00  0.00    +0.000 A 
ATOM     13  C   UNL     1       0.658   8.779  20.977  0.00  0.00    +0.000 A 
ATOM     14 CL   UNL     1      -0.300   9.263  22.320  0.00  0.00    +0.000 Cl
ATOM     15  C   UNL     1       1.373   7.586  21.029  0.00  0.00    +0.000 A 
ATOM     16  C   UNL     1       2.144   7.198  19.931  0.00  0.00    +0.000 A 
ENDBRANCH   9  10
ENDBRANCH   8   9
ENDBRANCH   4   8
BRANCH   5  17
ATOM     17  C   UNL     1       4.516   3.657  17.002  0.00  0.00    +0.000 C 
BRANCH  17  18
ATOM     18  C   UNL     1       3.001   3.469  17.076  0.00  0.00    +0.000 C 
BRANCH  18  19
ATOM     19  C   UNL     1       2.635   2.235  17.903  0.00  0.00    +0.000 C 
BRANCH  19  20
ATOM     20  N   UNL     1       2.292   2.592  19.265  0.00  0.00    +0.000 N 
ATOM     21  C   UNL     1       1.057   2.956  19.717  0.00  0.00    +0.000 A 
ATOM     22  C   UNL     1       1.239   3.233  21.053  0.00  0.00    +0.000 A 
ATOM     23  N   UNL     1       2.544   3.031  21.417  0.00  0.00    +0.000 NA
ATOM     24  C   UNL     1       3.156   2.642  20.321  0.00  0.00    +0.000 A 
ENDBRANCH  19  20
ENDBRANCH  18  19
ENDBRANCH  17  18
ENDBRANCH   5  17
TORSDOF 8
ENDMDL
MODEL 3
REMARK VINA RESULT:      -6.5      3.430      5.859
REMARK  Name = 
REMARK  8 active torsions:
REMARK  status: ('A' for Active; 'I' for Inactive)
REMARK    1  A    between atoms: S_1  and  C_2
REMARK    2  A    between atoms: C_5  and  C_6
REMARK    3  A    between atoms: C_6  and  O_7
REMARK    4  A    between atoms: O_7  and  C_8
REMARK    5  A    between atoms: N_15  and  C_16
REMARK    6  A    between atoms: C_16  and  C_17
REMARK    7  A    between atoms: C_17  and  C_18
REMARK    8  A    between atoms: C_18  and  N_19
REMARK                            x       y       z     vdW  Elec       q    Type
REMARK                         _______ _______ _______ _____ _____    ______ ____
ROOT
ATOM      1  C   UNL     1       2.194   3.085  19.142  0.00  0.00    +0.000 A 
ATOM      2  N   UNL     1       2.749   1.922  18.937  0.00  0.00    +0.000 NA
ATOM      3  N   UNL     1       3.694   2.078  17.961  0.00  0.00    +0.000 NA
ATOM      4  C   UNL     1       3.712   3.349  17.594  0.00  0.00    +0.000 A 
ATOM      5  N   UNL     1       2.770   4.038  18.340  0.00  0.00    +0.000 N 
ENDROOT
BRANCH   1   6
ATOM      6  S   UNL     1       0.893   3.354  20.241  0.00  0.00    +0.000 S 
ATOM      7  H   UNL     1       1.358   2.554  21.214  0.00  0.00    +0.000 HD
ENDBRANCH   1   6
BRANCH   4   8
ATOM      8  C   UNL     1       4.591   3.905  16.526  0.00  0.00    +0.000 C 
BRANCH   8   9
ATOM      9  O   UNL     1       5.923   3.835  17.026  0.00  0.00    +0.000 OA
BRANCH   9  10
ATOM     10  C   UNL     1       6.527   5.004  17.390  0.00  0.00    +0.000 A 
ATOM     11  C   UNL     1       7.481   5.164  18.399  0.00  0.00    +0.000 A 
ATOM     12  C   UNL     1       8.033   6.428  18.643  0.00  0.00    +0.000 A 
ATOM     13  C   UNL     1       7.632   7.525  17.883  0.00  0.00    +0.000 A 
ATOM     14 CL   UNL     1       8.319   9.073  18.185  0.00  0.00    +0.000 Cl
ATOM     15  C   UNL     1       6.679   7.374  16.881  0.00  0.00    +0.000 A 
ATOM     16  C   UNL     1       6.131   6.113  16.639  0.00  0.00    +0.000 A 
ENDBRANCH   9  10
ENDBRANCH   8   9
ENDBRANCH   4   8
BRANCH   5  17
ATOM     17  C   UNL     1       2.379   5.429  18.200  0.00  0.00    +0.000 C 
BRANCH  17  18
ATOM     18  C   UNL     1       3.076   6.396  19.156  0.00  0.00    +0.000 C 
BRANCH  18  19
ATOM     19  C   UNL     1       2.061   7.227  19.943  0.00  0.00    +0.000 C 
BRANCH  19  20
ATOM     20  N   UNL     1       1.788   8.491  19.288  0.00  0.00    +0.000 N 
ATOM     21  C   UNL     1       2.298   8.907  18.094  0.00  0.00    +0.000 A 
ATOM     22  C   UNL     1       1.785  10.171  17.913  0.00  0.00    +0.000 A 
ATOM     23  N   UNL     1       0.970  10.518  18.958  0.00  0.00    +0.000 NA
ATOM     24  C   UNL     1       0.987   9.486  19.772  0.00  0.00    +0.000 A 
ENDBRANCH  19  20
ENDBRANCH  18  19
ENDBRANCH  17  18
ENDBRANCH   5  17
TORSDOF 8
ENDMDL
MODEL 4
REMARK VINA RESULT:      -6.4      1.069      1.135
REMARK  Name = 
REMARK  8 active torsions:
REMARK  status: ('A' for Active; 'I' for Inactive)
REMARK    1  A    between atoms: S_1  and  C_2
REMARK    2  A    between atoms: C_5  and  C_6
REMARK    3  A    between atoms: C_6  and  O_7
REMARK    4  A    between atoms: O_7  and  C_8
REMARK    5  A    between atoms: N_15  and  C_16
REMARK    6  A    between atoms: C_16  and  C_17
REMARK    7  A    between atoms: C_17  and  C_18
REMARK    8  A    between atoms: C_18  and  N_19
REMARK                            x       y       z     vdW  Elec       q    Type
REMARK                         _______ _______ _______ _____ _____    ______ ____
ROOT
ATOM      1  C   UNL     1       5.808   5.550  16.784  0.00  0.00    +0.000 A 
ATOM      2  N   UNL     1       5.504   6.721  16.293  0.00  0.00    +0.000 NA
ATOM      3  N   UNL     1       4.296   7.090  16.816  0.00  0.00    +0.000 NA
ATOM      4  C   UNL     1       3.886   6.137  17.637  0.00  0.00    +0.000 A 
ATOM      5  N   UNL     1       4.837   5.131  17.658  0.00  0.00    +0.000 N 
ENDROOT
BRANCH   1   6
ATOM      6  S   UNL     1       7.216   4.656  16.347  0.00  0.00    +0.000 S 
ATOM      7  H   UNL     1       6.563   3.597  15.842  0.00  0.00    +0.000 HD
ENDBRANCH   1   6
BRANCH   4   8
ATOM      8  C   UNL     1       2.591   6.162  18.376  0.00  0.00    +0.000 C 
BRANCH   8   9
ATOM      9  O   UNL     1       2.743   7.120  19.419  0.00  0.00    +0.000 OA
BRANCH   9  10
ATOM     10  C   UNL     1       1.876   8.175  19.443  0.00  0.00    +0.000 A 
ATOM     11  C   UNL     1       1.573   9.023  18.373  0.00  0.00    +0.000 A 
ATOM     12  C   UNL     1       0.640  10.053  18.542  0.00  0.00    +0.000 A 
ATOM     13  C   UNL     1       0.015  10.237  19.774  0.00  0.00    +0.000 A 
ATOM     14 CL   UNL     1      -1.133  11.502  19.972  0.00  0.00    +0.000 Cl
ATOM     15  C   UNL     1       0.316   9.400  20.845  0.00  0.00    +0.000 A 
ATOM     16  C   UNL     1       1.246   8.373  20.673  0.00  0.00    +0.000 A 
ENDBRANCH   9  10
ENDBRANCH   8   9
ENDBRANCH   4   8
BRANCH   5  17
ATOM     17  C   UNL     1       4.754   3.853  18.339  0.00  0.00    +0.000 C 
BRANCH  17  18
ATOM     18  C   UNL     1       3.866   2.812  17.657  0.00  0.00    +0.000 C 
BRANCH  18  19
ATOM     19  C   UNL     1       3.346   1.781  18.661  0.00  0.00    +0.000 C 
BRANCH  19  20
ATOM     20  N   UNL     1       2.559   2.408  19.704  0.00  0.00    +0.000 N 
ATOM     21  C   UNL     1       2.932   2.577  21.005  0.00  0.00    +0.000 A 
ATOM     22  C   UNL     1       1.850   3.178  21.607  0.00  0.00    +0.000 A 
ATOM     23  N   UNL     1       0.844   3.387  20.700  0.00  0.00    +0.000 NA
ATOM     24  C   UNL     1       1.299   2.916  19.561  0.00  0.00    +0.000 A 
ENDBRANCH  19  20
ENDBRANCH  18  19
ENDBRANCH  17  18
ENDBRANCH   5  17
TORSDOF 8
ENDMDL
MODEL 5
REMARK VINA RESULT:      -6.4      3.468      5.735
REMARK  Name = 
REMARK  8 active torsions:
REMARK  status: ('A' for Active; 'I' for Inactive)
REMARK    1  A    between atoms: S_1  and  C_2
REMARK    2  A    between atoms: C_5  and  C_6
REMARK    3  A    between atoms: C_6  and  O_7
REMARK    4  A    between atoms: O_7  and  C_8
REMARK    5  A    between atoms: N_15  and  C_16
REMARK    6  A    between atoms: C_16  and  C_17
REMARK    7  A    between atoms: C_17  and  C_18
REMARK    8  A    between atoms: C_18  and  N_19
REMARK                            x       y       z     vdW  Elec       q    Type
REMARK                         _______ _______ _______ _____ _____    ______ ____
ROOT
ATOM      1  C   UNL     1       3.080   2.987  20.389  0.00  0.00    +0.000 A 
ATOM      2  N   UNL     1       4.209   2.340  20.497  0.00  0.00    +0.000 NA
ATOM      3  N   UNL     1       4.922   2.555  19.350  0.00  0.00    +0.000 NA
ATOM      4  C   UNL     1       4.218   3.348  18.561  0.00  0.00    +0.000 A 
ATOM      5  N   UNL     1       3.028   3.663  19.196  0.00  0.00    +0.000 N 
ENDROOT
BRANCH   1   6
ATOM      6  S   UNL     1       1.826   2.946  21.572  0.00  0.00    +0.000 S 
ATOM      7  H   UNL     1       0.884   3.516  20.803  0.00  0.00    +0.000 HD
ENDBRANCH   1   6
BRANCH   4   8
ATOM      8  C   UNL     1       4.650   3.784  17.201  0.00  0.00    +0.000 C 
BRANCH   8   9
ATOM      9  O   UNL     1       6.073   3.847  17.235  0.00  0.00    +0.000 OA
BRANCH   9  10
ATOM     10  C   UNL     1       6.649   5.046  17.547  0.00  0.00    +0.000 A 
ATOM     11  C   UNL     1       7.550   5.285  18.588  0.00  0.00    +0.000 A 
ATOM     12  C   UNL     1       8.078   6.569  18.772  0.00  0.00    +0.000 A 
ATOM     13  C   UNL     1       7.705   7.608  17.922  0.00  0.00    +0.000 A 
ATOM     14 CL   UNL     1       8.362   9.180  18.152  0.00  0.00    +0.000 Cl
ATOM     15  C   UNL     1       6.803   7.378  16.888  0.00  0.00    +0.000 A 
ATOM     16  C   UNL     1       6.279   6.096  16.706  0.00  0.00    +0.000 A 
ENDBRANCH   9  10
ENDBRANCH   8   9
ENDBRANCH   4   8
BRANCH   5  17
ATOM     17  C   UNL     1       1.914   4.421  18.657  0.00  0.00    +0.000 C 
BRANCH  17  18
ATOM     18  C   UNL     1       2.295   5.733  17.974  0.00  0.00    +0.000 C 
BRANCH  18  19
ATOM     19  C   UNL     1       2.872   6.735  18.976  0.00  0.00    +0.000 C 
BRANCH  19  20
ATOM     20  N   UNL     1       2.149   7.991  18.946  0.00  0.00    +0.000 N 
ATOM     21  C   UNL     1       2.115   8.879  17.911  0.00  0.00    +0.000 A 
ATOM     22  C   UNL     1       1.339   9.920  18.365  0.00  0.00    +0.000 A 
ATOM     23  N   UNL     1       0.895   9.675  19.638  0.00  0.00    +0.000 NA
ATOM     24  C   UNL     1       1.395   8.505  19.963  0.00  0.00    +0.000 A 
ENDBRANCH  19  20
ENDBRANCH  18  19
ENDBRANCH  17  18
ENDBRANCH   5  17
TORSDOF 8
ENDMDL
MODEL 6
REMARK VINA RESULT:      -6.4      1.114      1.561
REMARK  Name = 
REMARK  8 active torsions:
REMARK  status: ('A' for Active; 'I' for Inactive)
REMARK    1  A    between atoms: S_1  and  C_2
REMARK    2  A    between atoms: C_5  and  C_6
REMARK    3  A    between atoms: C_6  and  O_7
REMARK    4  A    between atoms: O_7  and  C_8
REMARK    5  A    between atoms: N_15  and  C_16
REMARK    6  A    between atoms: C_16  and  C_17
REMARK    7  A    between atoms: C_17  and  C_18
REMARK    8  A    between atoms: C_18  and  N_19
REMARK                            x       y       z     vdW  Elec       q    Type
REMARK                         _______ _______ _______ _____ _____    ______ ____
ROOT
ATOM      1  C   UNL     1       6.026   5.542  17.066  0.00  0.00    +0.000 A 
ATOM      2  N   UNL     1       5.813   6.704  16.510  0.00  0.00    +0.000 NA
ATOM      3  N   UNL     1       4.551   7.104  16.855  0.00  0.00    +0.000 NA
ATOM      4  C   UNL     1       4.016   6.179  17.635  0.00  0.00    +0.000 A 
ATOM      5  N   UNL     1       4.938   5.159  17.809  0.00  0.00    +0.000 N 
ENDROOT
BRANCH   1   6
ATOM      6  S   UNL     1       7.464   4.617  16.846  0.00  0.00    +0.000 S 
ATOM      7  H   UNL     1       8.229   5.339  17.682  0.00  0.00    +0.000 HD
ENDBRANCH   1   6
BRANCH   4   8
ATOM      8  C   UNL     1       2.633   6.241  18.189  0.00  0.00    +0.000 C 
BRANCH   8   9
ATOM      9  O   UNL     1       2.752   6.790  19.499  0.00  0.00    +0.000 OA
BRANCH   9  10
ATOM     10  C   UNL     1       1.898   7.798  19.844  0.00  0.00    +0.000 A 
ATOM     11  C   UNL     1       1.267   7.962  21.081  0.00  0.00    +0.000 A 
ATOM     12  C   UNL     1       0.433   9.065  21.297  0.00  0.00    +0.000 A 
ATOM     13  C   UNL     1       0.228   9.998  20.282  0.00  0.00    +0.000 A 
ATOM     14 CL   UNL     1      -0.794  11.353  20.558  0.00  0.00    +0.000 Cl
ATOM     15  C   UNL     1       0.848   9.838  19.047  0.00  0.00    +0.000 A 
ATOM     16  C   UNL     1       1.681   8.737  18.834  0.00  0.00    +0.000 A 
ENDBRANCH   9  10
ENDBRANCH   8   9
ENDBRANCH   4   8
BRANCH   5  17
ATOM     17  C   UNL     1       4.740   3.901  18.503  0.00  0.00    +0.000 C 
BRANCH  17  18
ATOM     18  C   UNL     1       3.947   2.851  17.725  0.00  0.00    +0.000 C 
BRANCH  18  19
ATOM     19  C   UNL     1       3.310   1.826  18.665  0.00  0.00    +0.000 C 
BRANCH  19  20
ATOM     20  N   UNL     1       2.502   2.470  19.682  0.00  0.00    +0.000 N 
ATOM     21  C   UNL     1       2.806   2.572  21.009  0.00  0.00    +0.000 A 
ATOM     22  C   UNL     1       1.730   3.223  21.567  0.00  0.00    +0.000 A 
ATOM     23  N   UNL     1       0.797   3.528  20.610  0.00  0.00    +0.000 NA
ATOM     24  C   UNL     1       1.289   3.065  19.483  0.00  0.00    +0.000 A 
ENDBRANCH  19  20
ENDBRANCH  18  19
ENDBRANCH  17  18
ENDBRANCH   5  17
TORSDOF 8
ENDMDL
MODEL 7
REMARK VINA RESULT:      -6.3      3.912      5.905
REMARK  Name = 
REMARK  8 active torsions:
REMARK  status: ('A' for Active; 'I' for Inactive)
REMARK    1  A    between atoms: S_1  and  C_2
REMARK    2  A    between atoms: C_5  and  C_6
REMARK    3  A    between atoms: C_6  and  O_7
REMARK    4  A    between atoms: O_7  and  C_8
REMARK    5  A    between atoms: N_15  and  C_16
REMARK    6  A    between atoms: C_16  and  C_17
REMARK    7  A    between atoms: C_17  and  C_18
REMARK    8  A    between atoms: C_18  and  N_19
REMARK                            x       y       z     vdW  Elec       q    Type
REMARK                         _______ _______ _______ _____ _____    ______ ____
ROOT
ATOM      1  C   UNL     1       4.143   6.419  17.947  0.00  0.00    +0.000 A 
ATOM      2  N   UNL     1       4.572   7.467  17.297  0.00  0.00    +0.000 NA
ATOM      3  N   UNL     1       5.792   7.155  16.764  0.00  0.00    +0.000 NA
ATOM      4  C   UNL     1       6.084   5.906  17.087  0.00  0.00    +0.000 A 
ATOM      5  N   UNL     1       5.042   5.387  17.838  0.00  0.00    +0.000 N 
ENDROOT
BRANCH   1   6
ATOM      6  S   UNL     1       2.672   6.374  18.845  0.00  0.00    +0.000 S 
ATOM      7  H   UNL     1       2.572   7.702  19.022  0.00  0.00    +0.000 HD
ENDBRANCH   1   6
BRANCH   4   8
ATOM      8  C   UNL     1       7.351   5.213  16.714  0.00  0.00    +0.000 C 
BRANCH   8   9
ATOM      9  O   UNL     1       7.586   5.518  15.343  0.00  0.00    +0.000 OA
BRANCH   9  10
ATOM     10  C   UNL     1       6.928   4.775  14.405  0.00  0.00    +0.000 A 
ATOM     11  C   UNL     1       5.733   4.074  14.593  0.00  0.00    +0.000 A 
ATOM     12  C   UNL     1       5.161   3.372  13.526  0.00  0.00    +0.000 A 
ATOM     13  C   UNL     1       5.781   3.368  12.278  0.00  0.00    +0.000 A 
ATOM     14 CL   UNL     1       5.069   2.507  10.970  0.00  0.00    +0.000 Cl
ATOM     15  C   UNL     1       6.973   4.058  12.085  0.00  0.00    +0.000 A 
ATOM     16  C   UNL     1       7.542   4.759  13.151  0.00  0.00    +0.000 A 
ENDBRANCH   9  10
ENDBRANCH   8   9
ENDBRANCH   4   8
BRANCH   5  17
ATOM     17  C   UNL     1       4.982   4.091  18.487  0.00  0.00    +0.000 C 
BRANCH  17  18
ATOM     18  C   UNL     1       4.036   3.084  17.835  0.00  0.00    +0.000 C 
BRANCH  18  19
ATOM     19  C   UNL     1       3.665   1.961  18.805  0.00  0.00    +0.000 C 
BRANCH  19  20
ATOM     20  N   UNL     1       2.792   2.437  19.859  0.00  0.00    +0.000 N 
ATOM     21  C   UNL     1       1.520   2.906  19.703  0.00  0.00    +0.000 A 
ATOM     22  C   UNL     1       1.122   3.271  20.969  0.00  0.00    +0.000 A 
ATOM     23  N   UNL     1       2.113   3.020  21.881  0.00  0.00    +0.000 NA
ATOM     24  C   UNL     1       3.107   2.516  21.186  0.00  0.00    +0.000 A 
ENDBRANCH  19  20
ENDBRANCH  18  19
ENDBRANCH  17  18
ENDBRANCH   5  17
TORSDOF 8
ENDMDL
MODEL 8
REMARK VINA RESULT:      -6.3      0.965      1.416
REMARK  Name = 
REMARK  8 active torsions:
REMARK  status: ('A' for Active; 'I' for Inactive)
REMARK    1  A    between atoms: S_1  and  C_2
REMARK    2  A    between atoms: C_5  and  C_6
REMARK    3  A    between atoms: C_6  and  O_7
REMARK    4  A    between atoms: O_7  and  C_8
REMARK    5  A    between atoms: N_15  and  C_16
REMARK    6  A    between atoms: C_16  and  C_17
REMARK    7  A    between atoms: C_17  and  C_18
REMARK    8  A    between atoms: C_18  and  N_19
REMARK                            x       y       z     vdW  Elec       q    Type
REMARK                         _______ _______ _______ _____ _____    ______ ____
ROOT
ATOM      1  C   UNL     1       5.943   5.465  16.080  0.00  0.00    +0.000 A 
ATOM      2  N   UNL     1       6.266   6.684  16.416  0.00  0.00    +0.000 NA
ATOM      3  N   UNL     1       5.289   7.158  17.248  0.00  0.00    +0.000 NA
ATOM      4  C   UNL     1       4.386   6.207  17.420  0.00  0.00    +0.000 A 
ATOM      5  N   UNL     1       4.775   5.091  16.695  0.00  0.00    +0.000 N 
ENDROOT
BRANCH   1   6
ATOM      6  S   UNL     1       6.849   4.495  14.980  0.00  0.00    +0.000 S 
ATOM      7  H   UNL     1       6.849   5.382  13.971  0.00  0.00    +0.000 HD
ENDBRANCH   1   6
BRANCH   4   8
ATOM      8  C   UNL     1       3.149   6.357  18.238  0.00  0.00    +0.000 C 
BRANCH   8   9
ATOM      9  O   UNL     1       2.625   7.647  17.940  0.00  0.00    +0.000 OA
BRANCH   9  10
ATOM     10  C   UNL     1       1.918   8.288  18.917  0.00  0.00    +0.000 A 
ATOM     11  C   UNL     1       1.822   7.902  20.257  0.00  0.00    +0.000 A 
ATOM     12  C   UNL     1       1.075   8.676  21.154  0.00  0.00    +0.000 A 
ATOM     13  C   UNL     1       0.427   9.828  20.712  0.00  0.00    +0.000 A 
ATOM     14 CL   UNL     1      -0.484  10.776  21.821  0.00  0.00    +0.000 Cl
ATOM     15  C   UNL     1       0.514  10.215  19.379  0.00  0.00    +0.000 A 
ATOM     16  C   UNL     1       1.260   9.441  18.486  0.00  0.00    +0.000 A 
ENDBRANCH   9  10
ENDBRANCH   8   9
ENDBRANCH   4   8
BRANCH   5  17
ATOM     17  C   UNL     1       4.035   3.857  16.512  0.00  0.00    +0.000 C 
BRANCH  17  18
ATOM     18  C   UNL     1       3.984   2.946  17.739  0.00  0.00    +0.000 C 
BRANCH  18  19
ATOM     19  C   UNL     1       2.546   2.542  18.072  0.00  0.00    +0.000 C 
BRANCH  19  20
ATOM     20  N   UNL     1       2.278   2.660  19.492  0.00  0.00    +0.000 N 
ATOM     21  C   UNL     1       3.209   2.792  20.480  0.00  0.00    +0.000 A 
ATOM     22  C   UNL     1       2.481   2.827  21.647  0.00  0.00    +0.000 A 
ATOM     23  N   UNL     1       1.139   2.735  21.385  0.00  0.00    +0.000 NA
ATOM     24  C   UNL     1       1.045   2.638  20.078  0.00  0.00    +0.000 A 
ENDBRANCH  19  20
ENDBRANCH  18  19
ENDBRANCH  17  18
ENDBRANCH   5  17
TORSDOF 8
ENDMDL
MODEL 9
REMARK VINA RESULT:      -6.3      3.327      5.852
REMARK  Name = 
REMARK  8 active torsions:
REMARK  status: ('A' for Active; 'I' for Inactive)
REMARK    1  A    between atoms: S_1  and  C_2
REMARK    2  A    between atoms: C_5  and  C_6
REMARK    3  A    between atoms: C_6  and  O_7
REMARK    4  A    between atoms: O_7  and  C_8
REMARK    5  A    between atoms: N_15  and  C_16
REMARK    6  A    between atoms: C_16  and  C_17
REMARK    7  A    between atoms: C_17  and  C_18
REMARK    8  A    between atoms: C_18  and  N_19
REMARK                            x       y       z     vdW  Elec       q    Type
REMARK                         _______ _______ _______ _____ _____    ______ ____
ROOT
ATOM      1  C   UNL     1       2.792   2.860  20.215  0.00  0.00    +0.000 A 
ATOM      2  N   UNL     1       3.682   1.921  20.040  0.00  0.00    +0.000 NA
ATOM      3  N   UNL     1       4.206   2.073  18.786  0.00  0.00    +0.000 NA
ATOM      4  C   UNL     1       3.634   3.121  18.217  0.00  0.00    +0.000 A 
ATOM      5  N   UNL     1       2.724   3.668  19.108  0.00  0.00    +0.000 N 
ENDROOT
BRANCH   1   6
ATOM      6  S   UNL     1       1.819   3.016  21.629  0.00  0.00    +0.000 S 
ATOM      7  H   UNL     1       2.421   2.039  22.326  0.00  0.00    +0.000 HD
ENDBRANCH   1   6
BRANCH   4   8
ATOM      8  C   UNL     1       3.920   3.587  16.829  0.00  0.00    +0.000 C 
BRANCH   8   9
ATOM      9  O   UNL     1       5.338   3.640  16.709  0.00  0.00    +0.000 OA
BRANCH   9  10
ATOM     10  C   UNL     1       5.956   4.827  16.984  0.00  0.00    +0.000 A 
ATOM     11  C   UNL     1       5.570   6.087  16.520  0.00  0.00    +0.000 A 
ATOM     12  C   UNL     1       6.290   7.224  16.908  0.00  0.00    +0.000 A 
ATOM     13  C   UNL     1       7.391   7.100  17.753  0.00  0.00    +0.000 A 
ATOM     14 CL   UNL     1       8.268   8.501  18.228  0.00  0.00    +0.000 Cl
ATOM     15  C   UNL     1       7.785   5.848  18.213  0.00  0.00    +0.000 A 
ATOM     16  C   UNL     1       7.064   4.716  17.826  0.00  0.00    +0.000 A 
ENDBRANCH   9  10
ENDBRANCH   8   9
ENDBRANCH   4   8
BRANCH   5  17
ATOM     17  C   UNL     1       1.802   4.762  18.867  0.00  0.00    +0.000 C 
BRANCH  17  18
ATOM     18  C   UNL     1       2.461   6.105  18.554  0.00  0.00    +0.000 C 
BRANCH  18  19
ATOM     19  C   UNL     1       2.163   7.137  19.643  0.00  0.00    +0.000 C 
BRANCH  19  20
ATOM     20  N   UNL     1       1.883   8.441  19.076  0.00  0.00    +0.000 N 
ATOM     21  C   UNL     1       1.096   9.409  19.628  0.00  0.00    +0.000 A 
ATOM     22  C   UNL     1       1.106  10.436  18.711  0.00  0.00    +0.000 A 
ATOM     23  N   UNL     1       1.889  10.117  17.633  0.00  0.00    +0.000 NA
ATOM     24  C   UNL     1       2.347   8.910  17.880  0.00  0.00    +0.000 A 
ENDBRANCH  19  20
ENDBRANCH  18  19
ENDBRANCH  17  18
ENDBRANCH   5  17
TORSDOF 8
ENDMDL
