MODEL 1
REMARK VINA RESULT:      -8.2      0.000      0.000
REMARK  Name = 
REMARK  4 active torsions:
REMARK  status: ('A' for Active; 'I' for Inactive)
REMARK    1  A    between atoms: C_1  and  C_2
REMARK    2  A    between atoms: N_4  and  C_5
REMARK    3  A    between atoms: C_8  and  C_9
REMARK    4  A    between atoms: C_14  and  C_16
REMARK                            x       y       z     vdW  Elec       q    Type
REMARK                         _______ _______ _______ _____ _____    ______ ____
ROOT
ATOM      1  C   UNL     1       3.383   5.215  18.739  0.00  0.00    +0.000 A 
ATOM      2  C   UNL     1       3.061   4.202  19.624  0.00  0.00    +0.000 A 
ATOM      3  S   UNL     1       2.170   4.843  20.951  0.00  0.00    +0.000 S 
ATOM      4  C   UNL     1       2.213   6.376  20.210  0.00  0.00    +0.000 A 
ATOM      5  N   UNL     1       1.532   7.369  20.865  0.00  0.00    +0.000 N 
ATOM      6  C   UNL     1       1.311   8.579  20.261  0.00  0.00    +0.000 C 
ATOM      7  O   UNL     1       1.631   8.895  19.117  0.00  0.00    +0.000 OA
ATOM      8  N   UNL     1       2.892   6.458  19.095  0.00  0.00    +0.000 NA
ATOM      9  H   UNL     1       1.148   7.174  21.778  0.00  0.00    +0.000 HD
ENDROOT
BRANCH   1  13
ATOM     10  C   UNL     1       5.760   4.675  15.214  0.00  0.00    +0.000 A 
ATOM     11  C   UNL     1       5.367   5.951  15.607  0.00  0.00    +0.000 A 
ATOM     12  C   UNL     1       4.588   6.140  16.758  0.00  0.00    +0.000 A 
ATOM     13  C   UNL     1       4.191   5.049  17.537  0.00  0.00    +0.000 A 
ATOM     14  C   UNL     1       4.594   3.766  17.141  0.00  0.00    +0.000 A 
ATOM     15  C   UNL     1       5.359   3.577  15.978  0.00  0.00    +0.000 A 
BRANCH  10  19
ATOM     16  C   UNL     1       7.219   3.659  11.882  0.00  0.00    +0.000 C 
ATOM     17  C   UNL     1       6.107   3.871  12.873  0.00  0.00    +0.000 C 
ATOM     18  O   UNL     1       4.955   3.555  12.591  0.00  0.00    +0.000 OA
ATOM     19  N   UNL     1       6.547   4.426  14.063  0.00  0.00    +0.000 N 
ATOM     20  H   UNL     1       7.502   4.757  14.092  0.00  0.00    +0.000 HD
ENDBRANCH  10  19
ENDBRANCH   1  13
BRANCH   6  21
ATOM     21  C   UNL     1       0.595   9.570  21.144  0.00  0.00    +0.000 C 
ATOM     22  C   UNL     1       0.622   9.313  22.460  0.00  0.00    +0.000 C 
ATOM     23  O   UNL     1      -0.005  10.021  23.434  0.00  0.00    +0.000 OA
ATOM     24  C   UNL     1      -0.765  11.131  22.977  0.00  0.00    +0.000 C 
ATOM     25  C   UNL     1      -1.028  11.224  21.468  0.00  0.00    +0.000 C 
ATOM     26  O   UNL     1      -0.054  10.649  20.591  0.00  0.00    +0.000 OA
ENDBRANCH   6  21
TORSDOF 3
ENDMDL
MODEL 2
REMARK VINA RESULT:      -8.0      0.651      1.355
REMARK  Name = 
REMARK  4 active torsions:
REMARK  status: ('A' for Active; 'I' for Inactive)
REMARK    1  A    between atoms: C_1  and  C_2
REMARK    2  A    between atoms: N_4  and  C_5
REMARK    3  A    between atoms: C_8  and  C_9
REMARK    4  A    between atoms: C_14  and  C_16
REMARK                            x       y       z     vdW  Elec       q    Type
REMARK                         _______ _______ _______ _____ _____    ______ ____
ROOT
ATOM      1  C   UNL     1       3.398   5.128  18.780  0.00  0.00    +0.000 A 
ATOM      2  C   UNL     1       3.078   4.104  19.653  0.00  0.00    +0.000 A 
ATOM      3  S   UNL     1       2.150   4.720  20.966  0.00  0.00    +0.000 S 
ATOM      4  C   UNL     1       2.180   6.259  20.235  0.00  0.00    +0.000 A 
ATOM      5  N   UNL     1       1.468   7.235  20.883  0.00  0.00    +0.000 N 
ATOM      6  C   UNL     1       1.236   8.444  20.282  0.00  0.00    +0.000 C 
ATOM      7  O   UNL     1       1.572   8.773  19.147  0.00  0.00    +0.000 OA
ATOM      8  N   UNL     1       2.878   6.360  19.134  0.00  0.00    +0.000 NA
ATOM      9  H   UNL     1       1.071   7.028  21.787  0.00  0.00    +0.000 HD
ENDROOT
BRANCH   1  13
ATOM     10  C   UNL     1       5.846   4.760  15.282  0.00  0.00    +0.000 A 
ATOM     11  C   UNL     1       5.536   3.637  16.043  0.00  0.00    +0.000 A 
ATOM     12  C   UNL     1       4.736   3.745  17.191  0.00  0.00    +0.000 A 
ATOM     13  C   UNL     1       4.232   4.985  17.593  0.00  0.00    +0.000 A 
ATOM     14  C   UNL     1       4.542   6.113  16.820  0.00  0.00    +0.000 A 
ATOM     15  C   UNL     1       5.358   6.005  15.682  0.00  0.00    +0.000 A 
BRANCH  10  19
ATOM     16  C   UNL     1       7.432   4.141  11.910  0.00  0.00    +0.000 C 
ATOM     17  C   UNL     1       6.318   4.088  12.921  0.00  0.00    +0.000 C 
ATOM     18  O   UNL     1       5.258   3.531  12.650  0.00  0.00    +0.000 OA
ATOM     19  N   UNL     1       6.647   4.708  14.115  0.00  0.00    +0.000 N 
ATOM     20  H   UNL     1       7.507   5.239  14.136  0.00  0.00    +0.000 HD
ENDBRANCH  10  19
ENDBRANCH   1  13
BRANCH   6  21
ATOM     21  C   UNL     1       0.486   9.416  21.157  0.00  0.00    +0.000 C 
ATOM     22  C   UNL     1       0.773  10.714  20.977  0.00  0.00    +0.000 C 
ATOM     23  O   UNL     1       0.276  11.758  21.690  0.00  0.00    +0.000 OA
ATOM     24  C   UNL     1      -0.625  11.402  22.729  0.00  0.00    +0.000 C 
ATOM     25  C   UNL     1      -0.701   9.918  23.110  0.00  0.00    +0.000 C 
ATOM     26  O   UNL     1      -0.417   8.957  22.087  0.00  0.00    +0.000 OA
ENDBRANCH   6  21
TORSDOF 3
ENDMDL
MODEL 3
REMARK VINA RESULT:      -7.5      0.997      1.398
REMARK  Name = 
REMARK  4 active torsions:
REMARK  status: ('A' for Active; 'I' for Inactive)
REMARK    1  A    between atoms: C_1  and  C_2
REMARK    2  A    between atoms: N_4  and  C_5
REMARK    3  A    between atoms: C_8  and  C_9
REMARK    4  A    between atoms: C_14  and  C_16
REMARK                            x       y       z     vdW  Elec       q    Type
REMARK                         _______ _______ _______ _____ _____    ______ ____
ROOT
ATOM      1  C   UNL     1       3.285   5.168  18.798  0.00  0.00    +0.000 A 
ATOM      2  C   UNL     1       3.040   4.196  19.751  0.00  0.00    +0.000 A 
ATOM      3  S   UNL     1       2.223   4.889  21.099  0.00  0.00    +0.000 S 
ATOM      4  C   UNL     1       2.191   6.384  20.282  0.00  0.00    +0.000 A 
ATOM      5  N   UNL     1       1.534   7.398  20.930  0.00  0.00    +0.000 N 
ATOM      6  C   UNL     1       1.252   8.572  20.282  0.00  0.00    +0.000 C 
ATOM      7  O   UNL     1       1.492   8.835  19.106  0.00  0.00    +0.000 OA
ATOM      8  N   UNL     1       2.795   6.420  19.123  0.00  0.00    +0.000 NA
ATOM      9  H   UNL     1       1.213   7.243  21.874  0.00  0.00    +0.000 HD
ENDROOT
BRANCH   1  13
ATOM     10  C   UNL     1       5.445   4.594  15.141  0.00  0.00    +0.000 A 
ATOM     11  C   UNL     1       5.023   3.497  15.887  0.00  0.00    +0.000 A 
ATOM     12  C   UNL     1       4.317   3.673  17.086  0.00  0.00    +0.000 A 
ATOM     13  C   UNL     1       4.019   4.954  17.556  0.00  0.00    +0.000 A 
ATOM     14  C   UNL     1       4.440   6.057  16.799  0.00  0.00    +0.000 A 
ATOM     15  C   UNL     1       5.163   5.879  15.608  0.00  0.00    +0.000 A 
BRANCH  10  19
ATOM     16  C   UNL     1       7.834   4.788  12.221  0.00  0.00    +0.000 C 
ATOM     17  C   UNL     1       7.396   5.032  13.641  0.00  0.00    +0.000 C 
ATOM     18  O   UNL     1       8.108   5.671  14.410  0.00  0.00    +0.000 OA
ATOM     19  N   UNL     1       6.160   4.474  13.924  0.00  0.00    +0.000 N 
ATOM     20  H   UNL     1       5.760   3.861  13.226  0.00  0.00    +0.000 HD
ENDBRANCH  10  19
ENDBRANCH   1  13
BRANCH   6  21
ATOM     21  C   UNL     1       0.575   9.595  21.159  0.00  0.00    +0.000 C 
ATOM     22  C   UNL     1       0.574   9.334  22.475  0.00  0.00    +0.000 C 
ATOM     23  O   UNL     1      -0.028  10.071  23.444  0.00  0.00    +0.000 OA
ATOM     24  C   UNL     1      -0.728  11.217  22.981  0.00  0.00    +0.000 C 
ATOM     25  C   UNL     1      -0.969  11.325  21.470  0.00  0.00    +0.000 C 
ATOM     26  O   UNL     1      -0.013  10.705  20.602  0.00  0.00    +0.000 OA
ENDBRANCH   6  21
TORSDOF 3
ENDMDL
MODEL 4
REMARK VINA RESULT:      -7.5      1.670      2.054
REMARK  Name = 
REMARK  4 active torsions:
REMARK  status: ('A' for Active; 'I' for Inactive)
REMARK    1  A    between atoms: C_1  and  C_2
REMARK    2  A    between atoms: N_4  and  C_5
REMARK    3  A    between atoms: C_8  and  C_9
REMARK    4  A    between atoms: C_14  and  C_16
REMARK                            x       y       z     vdW  Elec       q    Type
REMARK                         _______ _______ _______ _____ _____    ______ ____
ROOT
ATOM      1  C   UNL     1       3.383   5.789  18.182  0.00  0.00    +0.000 A 
ATOM      2  C   UNL     1       3.018   5.095  19.322  0.00  0.00    +0.000 A 
ATOM      3  S   UNL     1       2.158   6.136  20.391  0.00  0.00    +0.000 S 
ATOM      4  C   UNL     1       2.270   7.381  19.234  0.00  0.00    +0.000 A 
ATOM      5  N   UNL     1       1.635   8.551  19.561  0.00  0.00    +0.000 N 
ATOM      6  C   UNL     1       1.468   9.538  18.626  0.00  0.00    +0.000 C 
ATOM      7  O   UNL     1       1.800   9.491  17.444  0.00  0.00    +0.000 OA
ATOM      8  N   UNL     1       2.950   7.102  18.152  0.00  0.00    +0.000 NA
ATOM      9  H   UNL     1       1.244   8.649  20.486  0.00  0.00    +0.000 HD
ENDROOT
BRANCH   1  13
ATOM     10  C   UNL     1       5.744   4.234  14.961  0.00  0.00    +0.000 A 
ATOM     11  C   UNL     1       5.077   3.369  15.824  0.00  0.00    +0.000 A 
ATOM     12  C   UNL     1       4.302   3.867  16.882  0.00  0.00    +0.000 A 
ATOM     13  C   UNL     1       4.182   5.243  17.091  0.00  0.00    +0.000 A 
ATOM     14  C   UNL     1       4.851   6.112  16.217  0.00  0.00    +0.000 A 
ATOM     15  C   UNL     1       5.641   5.611  15.169  0.00  0.00    +0.000 A 
BRANCH  10  19
ATOM     16  C   UNL     1       7.179   2.925  11.721  0.00  0.00    +0.000 C 
ATOM     17  C   UNL     1       6.085   3.449  12.613  0.00  0.00    +0.000 C 
ATOM     18  O   UNL     1       4.932   3.534  12.198  0.00  0.00    +0.000 OA
ATOM     19  N   UNL     1       6.539   3.787  13.877  0.00  0.00    +0.000 N 
ATOM     20  H   UNL     1       7.539   3.789  14.022  0.00  0.00    +0.000 HD
ENDBRANCH  10  19
ENDBRANCH   1  13
BRANCH   6  21
ATOM     21  C   UNL     1       0.798  10.775  19.171  0.00  0.00    +0.000 C 
ATOM     22  C   UNL     1      -0.438  10.607  19.664  0.00  0.00    +0.000 C 
ATOM     23  O   UNL     1      -1.256  11.579  20.143  0.00  0.00    +0.000 OA
ATOM     24  C   UNL     1      -0.721  12.895  20.091  0.00  0.00    +0.000 C 
ATOM     25  C   UNL     1       0.550  13.100  19.257  0.00  0.00    +0.000 C 
ATOM     26  O   UNL     1       1.443  11.988  19.129  0.00  0.00    +0.000 OA
ENDBRANCH   6  21
TORSDOF 3
ENDMDL
MODEL 5
REMARK VINA RESULT:      -7.4      1.538      2.082
REMARK  Name = 
REMARK  4 active torsions:
REMARK  status: ('A' for Active; 'I' for Inactive)
REMARK    1  A    between atoms: C_1  and  C_2
REMARK    2  A    between atoms: N_4  and  C_5
REMARK    3  A    between atoms: C_8  and  C_9
REMARK    4  A    between atoms: C_14  and  C_16
REMARK                            x       y       z     vdW  Elec       q    Type
REMARK                         _______ _______ _______ _____ _____    ______ ____
ROOT
ATOM      1  C   UNL     1       3.423   5.782  18.193  0.00  0.00    +0.000 A 
ATOM      2  C   UNL     1       3.088   5.087  19.341  0.00  0.00    +0.000 A 
ATOM      3  S   UNL     1       2.222   6.115  20.417  0.00  0.00    +0.000 S 
ATOM      4  C   UNL     1       2.293   7.356  19.252  0.00  0.00    +0.000 A 
ATOM      5  N   UNL     1       1.639   8.515  19.582  0.00  0.00    +0.000 N 
ATOM      6  C   UNL     1       1.438   9.494  18.645  0.00  0.00    +0.000 C 
ATOM      7  O   UNL     1       1.755   9.447  17.458  0.00  0.00    +0.000 OA
ATOM      8  N   UNL     1       2.963   7.086  18.162  0.00  0.00    +0.000 NA
ATOM      9  H   UNL     1       1.259   8.611  20.512  0.00  0.00    +0.000 HD
ENDROOT
BRANCH   1  13
ATOM     10  C   UNL     1       5.769   4.258  14.946  0.00  0.00    +0.000 A 
ATOM     11  C   UNL     1       5.142   3.384  15.830  0.00  0.00    +0.000 A 
ATOM     12  C   UNL     1       4.373   3.872  16.897  0.00  0.00    +0.000 A 
ATOM     13  C   UNL     1       4.218   5.246  17.093  0.00  0.00    +0.000 A 
ATOM     14  C   UNL     1       4.846   6.123  16.197  0.00  0.00    +0.000 A 
ATOM     15  C   UNL     1       5.630   5.634  15.140  0.00  0.00    +0.000 A 
BRANCH  10  19
ATOM     16  C   UNL     1       7.181   2.950  11.696  0.00  0.00    +0.000 C 
ATOM     17  C   UNL     1       6.089   3.451  12.602  0.00  0.00    +0.000 C 
ATOM     18  O   UNL     1       4.927   3.495  12.208  0.00  0.00    +0.000 OA
ATOM     19  N   UNL     1       6.556   3.821  13.852  0.00  0.00    +0.000 N 
ATOM     20  H   UNL     1       7.558   3.855  13.977  0.00  0.00    +0.000 HD
ENDBRANCH  10  19
ENDBRANCH   1  13
BRANCH   6  21
ATOM     21  C   UNL     1       0.752  10.720  19.193  0.00  0.00    +0.000 C 
ATOM     22  C   UNL     1       1.428  11.872  19.083  0.00  0.00    +0.000 C 
ATOM     23  O   UNL     1       1.043  13.084  19.560  0.00  0.00    +0.000 OA
ATOM     24  C   UNL     1      -0.199  13.091  20.251  0.00  0.00    +0.000 C 
ATOM     25  C   UNL     1      -0.798  11.730  20.626  0.00  0.00    +0.000 C 
ATOM     26  O   UNL     1      -0.486  10.615  19.782  0.00  0.00    +0.000 OA
ENDBRANCH   6  21
TORSDOF 3
ENDMDL
MODEL 6
REMARK VINA RESULT:      -7.4      1.306      1.555
REMARK  Name = 
REMARK  4 active torsions:
REMARK  status: ('A' for Active; 'I' for Inactive)
REMARK    1  A    between atoms: C_1  and  C_2
REMARK    2  A    between atoms: N_4  and  C_5
REMARK    3  A    between atoms: C_8  and  C_9
REMARK    4  A    between atoms: C_14  and  C_16
REMARK                            x       y       z     vdW  Elec       q    Type
REMARK                         _______ _______ _______ _____ _____    ______ ____
ROOT
ATOM      1  C   UNL     1       3.420   5.774  18.362  0.00  0.00    +0.000 A 
ATOM      2  C   UNL     1       3.144   4.964  19.449  0.00  0.00    +0.000 A 
ATOM      3  S   UNL     1       2.244   5.845  20.624  0.00  0.00    +0.000 S 
ATOM      4  C   UNL     1       2.226   7.185  19.571  0.00  0.00    +0.000 A 
ATOM      5  N   UNL     1       1.517   8.272  20.011  0.00  0.00    +0.000 N 
ATOM      6  C   UNL     1       1.246   9.317  19.166  0.00  0.00    +0.000 C 
ATOM      7  O   UNL     1       1.543   9.391  17.976  0.00  0.00    +0.000 OA
ATOM      8  N   UNL     1       2.889   7.048  18.452  0.00  0.00    +0.000 NA
ATOM      9  H   UNL     1       1.150   8.265  20.951  0.00  0.00    +0.000 HD
ENDROOT
BRANCH   1  13
ATOM     10  C   UNL     1       5.767   4.566  14.986  0.00  0.00    +0.000 A 
ATOM     11  C   UNL     1       5.547   5.916  15.241  0.00  0.00    +0.000 A 
ATOM     12  C   UNL     1       4.780   6.323  16.342  0.00  0.00    +0.000 A 
ATOM     13  C   UNL     1       4.221   5.380  17.209  0.00  0.00    +0.000 A 
ATOM     14  C   UNL     1       4.449   4.021  16.952  0.00  0.00    +0.000 A 
ATOM     15  C   UNL     1       5.203   3.615  15.838  0.00  0.00    +0.000 A 
BRANCH  10  19
ATOM     16  C   UNL     1       7.125   3.109  11.776  0.00  0.00    +0.000 C 
ATOM     17  C   UNL     1       6.040   3.605  12.694  0.00  0.00    +0.000 C 
ATOM     18  O   UNL     1       4.862   3.542  12.355  0.00  0.00    +0.000 OA
ATOM     19  N   UNL     1       6.534   4.099  13.890  0.00  0.00    +0.000 N 
ATOM     20  H   UNL     1       7.537   4.209  13.965  0.00  0.00    +0.000 HD
ENDBRANCH  10  19
ENDBRANCH   1  13
BRANCH   6  21
ATOM     21  C   UNL     1       0.505  10.450  19.830  0.00  0.00    +0.000 C 
ATOM     22  C   UNL     1      -0.711  10.727  19.337  0.00  0.00    +0.000 C 
ATOM     23  O   UNL     1      -1.530  11.737  19.726  0.00  0.00    +0.000 OA
ATOM     24  C   UNL     1      -1.009  12.573  20.750  0.00  0.00    +0.000 C 
ATOM     25  C   UNL     1       0.482  12.428  21.080  0.00  0.00    +0.000 C 
ATOM     26  O   UNL     1       1.085  11.147  20.862  0.00  0.00    +0.000 OA
ENDBRANCH   6  21
TORSDOF 3
ENDMDL
MODEL 7
REMARK VINA RESULT:      -7.4      3.783      5.276
REMARK  Name = 
REMARK  4 active torsions:
REMARK  status: ('A' for Active; 'I' for Inactive)
REMARK    1  A    between atoms: C_1  and  C_2
REMARK    2  A    between atoms: N_4  and  C_5
REMARK    3  A    between atoms: C_8  and  C_9
REMARK    4  A    between atoms: C_14  and  C_16
REMARK                            x       y       z     vdW  Elec       q    Type
REMARK                         _______ _______ _______ _____ _____    ______ ____
ROOT
ATOM      1  C   UNL     1       1.304   9.458  19.479  0.00  0.00    +0.000 A 
ATOM      2  C   UNL     1       1.628  10.479  18.604  0.00  0.00    +0.000 A 
ATOM      3  S   UNL     1       0.762  11.908  19.023  0.00  0.00    +0.000 S 
ATOM      4  C   UNL     1       0.100  11.086  20.361  0.00  0.00    +0.000 A 
ATOM      5  N   UNL     1      -0.706  11.838  21.176  0.00  0.00    +0.000 N 
ATOM      6  C   UNL     1      -1.113  11.354  22.392  0.00  0.00    +0.000 C 
ATOM      7  O   UNL     1      -0.796  10.279  22.895  0.00  0.00    +0.000 OA
ATOM      8  N   UNL     1       0.420   9.824  20.478  0.00  0.00    +0.000 NA
ATOM      9  H   UNL     1      -0.947  12.775  20.890  0.00  0.00    +0.000 HD
ENDROOT
BRANCH   1  13
ATOM     10  C   UNL     1       2.768   5.443  19.150  0.00  0.00    +0.000 A 
ATOM     11  C   UNL     1       2.161   5.876  20.326  0.00  0.00    +0.000 A 
ATOM     12  C   UNL     1       1.679   7.187  20.445  0.00  0.00    +0.000 A 
ATOM     13  C   UNL     1       1.796   8.089  19.384  0.00  0.00    +0.000 A 
ATOM     14  C   UNL     1       2.403   7.648  18.199  0.00  0.00    +0.000 A 
ATOM     15  C   UNL     1       2.901   6.340  18.088  0.00  0.00    +0.000 A 
BRANCH  10  19
ATOM     16  C   UNL     1       3.423   1.811  18.348  0.00  0.00    +0.000 C 
ATOM     17  C   UNL     1       2.667   3.110  18.260  0.00  0.00    +0.000 C 
ATOM     18  O   UNL     1       1.629   3.182  17.610  0.00  0.00    +0.000 OA
ATOM     19  N   UNL     1       3.271   4.131  18.975  0.00  0.00    +0.000 N 
ATOM     20  H   UNL     1       4.194   3.950  19.346  0.00  0.00    +0.000 HD
ENDBRANCH  10  19
ENDBRANCH   1  13
BRANCH   6  21
ATOM     21  C   UNL     1      -2.036  12.289  23.132  0.00  0.00    +0.000 C 
ATOM     22  C   UNL     1      -1.531  13.492  23.442  0.00  0.00    +0.000 C 
ATOM     23  O   UNL     1      -2.148  14.467  24.159  0.00  0.00    +0.000 OA
ATOM     24  C   UNL     1      -3.451  14.141  24.621  0.00  0.00    +0.000 C 
ATOM     25  C   UNL     1      -3.882  12.672  24.519  0.00  0.00    +0.000 C 
ATOM     26  O   UNL     1      -3.307  11.886  23.468  0.00  0.00    +0.000 OA
ENDBRANCH   6  21
TORSDOF 3
ENDMDL
MODEL 8
REMARK VINA RESULT:      -7.4      3.902      5.372
REMARK  Name = 
REMARK  4 active torsions:
REMARK  status: ('A' for Active; 'I' for Inactive)
REMARK    1  A    between atoms: C_1  and  C_2
REMARK    2  A    between atoms: N_4  and  C_5
REMARK    3  A    between atoms: C_8  and  C_9
REMARK    4  A    between atoms: C_14  and  C_16
REMARK                            x       y       z     vdW  Elec       q    Type
REMARK                         _______ _______ _______ _____ _____    ______ ____
ROOT
ATOM      1  C   UNL     1       1.270   9.489  19.481  0.00  0.00    +0.000 A 
ATOM      2  C   UNL     1       1.480  10.441  18.500  0.00  0.00    +0.000 A 
ATOM      3  S   UNL     1       0.690  11.910  18.931  0.00  0.00    +0.000 S 
ATOM      4  C   UNL     1       0.210  11.194  20.401  0.00  0.00    +0.000 A 
ATOM      5  N   UNL     1      -0.470  12.015  21.263  0.00  0.00    +0.000 N 
ATOM      6  C   UNL     1      -0.712  11.623  22.554  0.00  0.00    +0.000 C 
ATOM      7  O   UNL     1      -0.337  10.580  23.084  0.00  0.00    +0.000 OA
ATOM      8  N   UNL     1       0.534   9.938  20.563  0.00  0.00    +0.000 NA
ATOM      9  H   UNL     1      -0.742  12.934  20.947  0.00  0.00    +0.000 HD
ENDROOT
BRANCH   1  13
ATOM     10  C   UNL     1       2.653   5.439  19.245  0.00  0.00    +0.000 A 
ATOM     11  C   UNL     1       2.014   5.897  20.393  0.00  0.00    +0.000 A 
ATOM     12  C   UNL     1       1.558   7.220  20.482  0.00  0.00    +0.000 A 
ATOM     13  C   UNL     1       1.734   8.108  19.418  0.00  0.00    +0.000 A 
ATOM     14  C   UNL     1       2.373   7.642  18.260  0.00  0.00    +0.000 A 
ATOM     15  C   UNL     1       2.845   6.321  18.179  0.00  0.00    +0.000 A 
BRANCH  10  19
ATOM     16  C   UNL     1       3.224   1.767  18.572  0.00  0.00    +0.000 C 
ATOM     17  C   UNL     1       2.478   3.070  18.469  0.00  0.00    +0.000 C 
ATOM     18  O   UNL     1       1.404   3.125  17.877  0.00  0.00    +0.000 OA
ATOM     19  N   UNL     1       3.132   4.114  19.100  0.00  0.00    +0.000 N 
ATOM     20  H   UNL     1       4.074   3.939  19.425  0.00  0.00    +0.000 HD
ENDBRANCH  10  19
ENDBRANCH   1  13
BRANCH   6  21
ATOM     21  C   UNL     1      -1.518  12.623  23.344  0.00  0.00    +0.000 C 
ATOM     22  C   UNL     1      -2.817  12.333  23.509  0.00  0.00    +0.000 C 
ATOM     23  O   UNL     1      -3.746  13.110  24.123  0.00  0.00    +0.000 OA
ATOM     24  C   UNL     1      -3.262  14.351  24.616  0.00  0.00    +0.000 C 
ATOM     25  C   UNL     1      -1.866  14.790  24.154  0.00  0.00    +0.000 C 
ATOM     26  O   UNL     1      -0.923  13.762  23.833  0.00  0.00    +0.000 OA
ENDBRANCH   6  21
TORSDOF 3
ENDMDL
MODEL 9
REMARK VINA RESULT:      -7.3      3.792      5.246
REMARK  Name = 
REMARK  4 active torsions:
REMARK  status: ('A' for Active; 'I' for Inactive)
REMARK    1  A    between atoms: C_1  and  C_2
REMARK    2  A    between atoms: N_4  and  C_5
REMARK    3  A    between atoms: C_8  and  C_9
REMARK    4  A    between atoms: C_14  and  C_16
REMARK                            x       y       z     vdW  Elec       q    Type
REMARK                         _______ _______ _______ _____ _____    ______ ____
ROOT
ATOM      1  C   UNL     1       1.342   9.550  19.331  0.00  0.00    +0.000 A 
ATOM      2  C   UNL     1       1.513  10.522  18.362  0.00  0.00    +0.000 A 
ATOM      3  S   UNL     1       0.692  11.963  18.825  0.00  0.00    +0.000 S 
ATOM      4  C   UNL     1       0.252  11.214  20.291  0.00  0.00    +0.000 A 
ATOM      5  N   UNL     1      -0.437  12.004  21.174  0.00  0.00    +0.000 N 
ATOM      6  C   UNL     1      -0.650  11.587  22.462  0.00  0.00    +0.000 C 
ATOM      7  O   UNL     1      -0.240  10.547  22.972  0.00  0.00    +0.000 OA
ATOM      8  N   UNL     1       0.611   9.964  20.429  0.00  0.00    +0.000 NA
ATOM      9  H   UNL     1      -0.737  12.920  20.876  0.00  0.00    +0.000 HD
ENDROOT
BRANCH   1  13
ATOM     10  C   UNL     1       2.791   5.522  19.115  0.00  0.00    +0.000 A 
ATOM     11  C   UNL     1       2.960   6.388  18.038  0.00  0.00    +0.000 A 
ATOM     12  C   UNL     1       2.489   7.708  18.097  0.00  0.00    +0.000 A 
ATOM     13  C   UNL     1       1.841   8.183  19.241  0.00  0.00    +0.000 A 
ATOM     14  C   UNL     1       1.678   7.310  20.326  0.00  0.00    +0.000 A 
ATOM     15  C   UNL     1       2.134   5.983  20.258  0.00  0.00    +0.000 A 
BRANCH  10  19
ATOM     16  C   UNL     1       3.391   1.822  18.649  0.00  0.00    +0.000 C 
ATOM     17  C   UNL     1       2.737   3.144  18.348  0.00  0.00    +0.000 C 
ATOM     18  O   UNL     1       1.846   3.219  17.506  0.00  0.00    +0.000 OA
ATOM     19  N   UNL     1       3.247   4.181  19.111  0.00  0.00    +0.000 N 
ATOM     20  H   UNL     1       4.072   3.985  19.662  0.00  0.00    +0.000 HD
ENDBRANCH  10  19
ENDBRANCH   1  13
BRANCH   6  21
ATOM     21  C   UNL     1      -1.470  12.554  23.279  0.00  0.00    +0.000 C 
ATOM     22  C   UNL     1      -2.760  12.230  23.454  0.00  0.00    +0.000 C 
ATOM     23  O   UNL     1      -3.700  12.974  24.092  0.00  0.00    +0.000 OA
ATOM     24  C   UNL     1      -3.240  14.218  24.599  0.00  0.00    +0.000 C 
ATOM     25  C   UNL     1      -1.861  14.698  24.129  0.00  0.00    +0.000 C 
ATOM     26  O   UNL     1      -0.897  13.699  23.779  0.00  0.00    +0.000 OA
ENDBRANCH   6  21
TORSDOF 3
ENDMDL
