MODEL 1
REMARK VINA RESULT:      -7.4      0.000      0.000
REMARK  Name = 
REMARK  15 active torsions:
REMARK  status: ('A' for Active; 'I' for Inactive)
REMARK    1  A    between atoms: C_1  and  O_2
REMARK    2  A    between atoms: O_2  and  C_3
REMARK    3  A    between atoms: C_6  and  C_7
REMARK    4  A    between atoms: C_7  and  C_8
REMARK    5  A    between atoms: C_8  and  C_9
REMARK    6  A    between atoms: C_12  and  C_13
REMARK    7  A    between atoms: C_13  and  C_14
REMARK    8  A    between atoms: C_14  and  C_15
REMARK    9  A    between atoms: C_18  and  O_19
REMARK   10  A    between atoms: O_19  and  C_20
REMARK   11  A    between atoms: N_23  and  C_24
REMARK   12  A    between atoms: C_24  and  C_25
REMARK   13  A    between atoms: C_25  and  O_26
REMARK   14  A    between atoms: C_25  and  C_27
REMARK   15  A    between atoms: C_27  and  O_28
REMARK                            x       y       z     vdW  Elec       q    Type
REMARK                         _______ _______ _______ _____ _____    ______ ____
ROOT
ATOM      1  C   UNL     1       5.019   5.961  17.301  0.00  0.00    +0.000 C 
ATOM      2  C   UNL     1       5.697   5.740  15.951  0.00  0.00    +0.000 C 
ATOM      3  C   UNL     1       7.094   6.325  16.156  0.00  0.00    +0.000 C 
ATOM      4  C   UNL     1       7.351   6.119  17.681  0.00  0.00    +0.000 C 
ATOM      5  N   UNL     1       6.099   5.659  18.315  0.00  0.00    +0.000 NA
ENDROOT
BRANCH   1   6
ATOM      6  C   UNL     1       4.412   7.380  17.569  0.00  0.00    +0.000 C 
BRANCH   6   7
ATOM      7  C   UNL     1       2.853   7.394  17.688  0.00  0.00    +0.000 C 
BRANCH   7  11
ATOM      8  C   UNL     1       1.365   3.965  19.862  0.00  0.00    +0.000 A 
ATOM      9  C   UNL     1       1.932   5.067  20.503  0.00  0.00    +0.000 A 
ATOM     10  C   UNL     1       2.396   6.156  19.797  0.00  0.00    +0.000 A 
ATOM     11  C   UNL     1       2.318   6.182  18.405  0.00  0.00    +0.000 A 
ATOM     12  C   UNL     1       1.711   5.102  17.723  0.00  0.00    +0.000 A 
ATOM     13  C   UNL     1       1.242   3.989  18.448  0.00  0.00    +0.000 A 
BRANCH   8  15
ATOM     14  C   UNL     1       1.398   2.609  21.865  0.00  0.00    +0.000 C 
ATOM     15  O   UNL     1       0.960   2.873  20.570  0.00  0.00    +0.000 OA
ENDBRANCH   8  15
ENDBRANCH   7  11
ENDBRANCH   6   7
ENDBRANCH   1   6
BRANCH   4  16
ATOM     16  C   UNL     1       7.895   7.388  18.398  0.00  0.00    +0.000 C 
BRANCH  16  17
ATOM     17  C   UNL     1       7.828   8.672  17.525  0.00  0.00    +0.000 C 
BRANCH  17  18
ATOM     18  C   UNL     1       8.495   9.864  18.188  0.00  0.00    +0.000 A 
ATOM     19  C   UNL     1       9.238   9.697  19.359  0.00  0.00    +0.000 A 
ATOM     20  C   UNL     1       9.865  10.775  19.965  0.00  0.00    +0.000 A 
ATOM     21  C   UNL     1       9.779  12.067  19.422  0.00  0.00    +0.000 A 
ATOM     22  C   UNL     1       9.035  12.255  18.239  0.00  0.00    +0.000 A 
ATOM     23  C   UNL     1       8.403  11.161  17.623  0.00  0.00    +0.000 A 
BRANCH  21  24
ATOM     24  O   UNL     1      10.396  13.122  20.018  0.00  0.00    +0.000 OA
ATOM     25  C   UNL     1       9.941  13.721  21.189  0.00  0.00    +0.000 C 
ENDBRANCH  21  24
ENDBRANCH  17  18
ENDBRANCH  16  17
ENDBRANCH   4  16
BRANCH   5  26
ATOM     26  C   UNL     1       6.167   4.196  18.614  0.00  0.00    +0.000 C 
BRANCH  26  27
ATOM     27  C   UNL     1       4.786   3.455  18.593  0.00  0.00    +0.000 C 
BRANCH  27  28
ATOM     28  O   UNL     1       4.642   2.591  17.507  0.00  0.00    +0.000 OA
ATOM     29  H   UNL     1       3.883   2.917  16.961  0.00  0.00    +0.000 HD
ENDBRANCH  27  28
BRANCH  27  30
ATOM     30  C   UNL     1       4.586   2.677  19.904  0.00  0.00    +0.000 C 
BRANCH  30  31
ATOM     31  O   UNL     1       5.156   1.396  19.814  0.00  0.00    +0.000 OA
ATOM     32  H   UNL     1       4.644   0.803  20.423  0.00  0.00    +0.000 HD
ENDBRANCH  30  31
ENDBRANCH  27  30
ENDBRANCH  26  27
ENDBRANCH   5  26
TORSDOF 13
ENDMDL
MODEL 2
REMARK VINA RESULT:      -7.3      2.934      8.113
REMARK  Name = 
REMARK  15 active torsions:
REMARK  status: ('A' for Active; 'I' for Inactive)
REMARK    1  A    between atoms: C_1  and  O_2
REMARK    2  A    between atoms: O_2  and  C_3
REMARK    3  A    between atoms: C_6  and  C_7
REMARK    4  A    between atoms: C_7  and  C_8
REMARK    5  A    between atoms: C_8  and  C_9
REMARK    6  A    between atoms: C_12  and  C_13
REMARK    7  A    between atoms: C_13  and  C_14
REMARK    8  A    between atoms: C_14  and  C_15
REMARK    9  A    between atoms: C_18  and  O_19
REMARK   10  A    between atoms: O_19  and  C_20
REMARK   11  A    between atoms: N_23  and  C_24
REMARK   12  A    between atoms: C_24  and  C_25
REMARK   13  A    between atoms: C_25  and  O_26
REMARK   14  A    between atoms: C_25  and  C_27
REMARK   15  A    between atoms: C_27  and  O_28
REMARK                            x       y       z     vdW  Elec       q    Type
REMARK                         _______ _______ _______ _____ _____    ______ ____
ROOT
ATOM      1  C   UNL     1       7.760   6.655  17.445  0.00  0.00    +0.000 C 
ATOM      2  C   UNL     1       7.639   5.808  18.711  0.00  0.00    +0.000 C 
ATOM      3  C   UNL     1       6.130   5.720  18.936  0.00  0.00    +0.000 C 
ATOM      4  C   UNL     1       5.544   5.820  17.494  0.00  0.00    +0.000 C 
ATOM      5  N   UNL     1       6.636   6.165  16.561  0.00  0.00    +0.000 NA
ENDROOT
BRANCH   1   6
ATOM      6  C   UNL     1       7.670   8.209  17.617  0.00  0.00    +0.000 C 
BRANCH   6   7
ATOM      7  C   UNL     1       8.657   8.791  18.681  0.00  0.00    +0.000 C 
BRANCH   7  11
ATOM      8  C   UNL     1       9.490  13.008  18.207  0.00  0.00    +0.000 A 
ATOM      9  C   UNL     1      10.270  12.179  19.013  0.00  0.00    +0.000 A 
ATOM     10  C   UNL     1       9.996  10.835  19.149  0.00  0.00    +0.000 A 
ATOM     11  C   UNL     1       8.913  10.263  18.484  0.00  0.00    +0.000 A 
ATOM     12  C   UNL     1       8.125  11.062  17.624  0.00  0.00    +0.000 A 
ATOM     13  C   UNL     1       8.405  12.437  17.491  0.00  0.00    +0.000 A 
BRANCH   8  15
ATOM     14  C   UNL     1      10.864  14.865  17.489  0.00  0.00    +0.000 C 
ATOM     15  O   UNL     1       9.740  14.345  18.126  0.00  0.00    +0.000 OA
ENDBRANCH   8  15
ENDBRANCH   7  11
ENDBRANCH   6   7
ENDBRANCH   1   6
BRANCH   4  16
ATOM     16  C   UNL     1       4.373   6.836  17.367  0.00  0.00    +0.000 C 
BRANCH  16  17
ATOM     17  C   UNL     1       3.115   6.440  18.190  0.00  0.00    +0.000 C 
BRANCH  17  18
ATOM     18  C   UNL     1       2.340   7.647  18.688  0.00  0.00    +0.000 A 
ATOM     19  C   UNL     1       2.049   8.705  17.824  0.00  0.00    +0.000 A 
ATOM     20  C   UNL     1       1.328   9.806  18.263  0.00  0.00    +0.000 A 
ATOM     21  C   UNL     1       0.864   9.892  19.585  0.00  0.00    +0.000 A 
ATOM     22  C   UNL     1       1.146   8.832  20.471  0.00  0.00    +0.000 A 
ATOM     23  C   UNL     1       1.873   7.715  20.024  0.00  0.00    +0.000 A 
BRANCH  21  24
ATOM     24  O   UNL     1       0.156  10.971  20.011  0.00  0.00    +0.000 OA
ATOM     25  C   UNL     1       0.740  12.109  20.559  0.00  0.00    +0.000 C 
ENDBRANCH  21  24
ENDBRANCH  17  18
ENDBRANCH  16  17
ENDBRANCH   4  16
BRANCH   5  26
ATOM     26  C   UNL     1       7.052   4.965  15.772  0.00  0.00    +0.000 C 
BRANCH  26  27
ATOM     27  C   UNL     1       6.850   5.095  14.223  0.00  0.00    +0.000 C 
BRANCH  27  28
ATOM     28  O   UNL     1       7.993   5.537  13.556  0.00  0.00    +0.000 OA
ATOM     29  H   UNL     1       8.534   6.059  14.200  0.00  0.00    +0.000 HD
ENDBRANCH  27  28
BRANCH  27  30
ATOM     30  C   UNL     1       6.395   3.748  13.637  0.00  0.00    +0.000 C 
BRANCH  30  31
ATOM     31  O   UNL     1       5.162   3.884  12.977  0.00  0.00    +0.000 OA
ATOM     32  H   UNL     1       4.456   3.901  13.674  0.00  0.00    +0.000 HD
ENDBRANCH  30  31
ENDBRANCH  27  30
ENDBRANCH  26  27
ENDBRANCH   5  26
TORSDOF 13
ENDMDL
MODEL 3
REMARK VINA RESULT:      -7.3      1.809      8.743
REMARK  Name = 
REMARK  15 active torsions:
REMARK  status: ('A' for Active; 'I' for Inactive)
REMARK    1  A    between atoms: C_1  and  O_2
REMARK    2  A    between atoms: O_2  and  C_3
REMARK    3  A    between atoms: C_6  and  C_7
REMARK    4  A    between atoms: C_7  and  C_8
REMARK    5  A    between atoms: C_8  and  C_9
REMARK    6  A    between atoms: C_12  and  C_13
REMARK    7  A    between atoms: C_13  and  C_14
REMARK    8  A    between atoms: C_14  and  C_15
REMARK    9  A    between atoms: C_18  and  O_19
REMARK   10  A    between atoms: O_19  and  C_20
REMARK   11  A    between atoms: N_23  and  C_24
REMARK   12  A    between atoms: C_24  and  C_25
REMARK   13  A    between atoms: C_25  and  O_26
REMARK   14  A    between atoms: C_25  and  C_27
REMARK   15  A    between atoms: C_27  and  O_28
REMARK                            x       y       z     vdW  Elec       q    Type
REMARK                         _______ _______ _______ _____ _____    ______ ____
ROOT
ATOM      1  C   UNL     1       7.679   6.477  17.478  0.00  0.00    +0.000 C 
ATOM      2  C   UNL     1       7.483   5.669  18.760  0.00  0.00    +0.000 C 
ATOM      3  C   UNL     1       6.004   5.877  19.087  0.00  0.00    +0.000 C 
ATOM      4  C   UNL     1       5.352   6.092  17.687  0.00  0.00    +0.000 C 
ATOM      5  N   UNL     1       6.424   6.217  16.678  0.00  0.00    +0.000 NA
ENDROOT
BRANCH   1   6
ATOM      6  C   UNL     1       7.906   8.018  17.637  0.00  0.00    +0.000 C 
BRANCH   6   7
ATOM      7  C   UNL     1       8.713   8.416  18.916  0.00  0.00    +0.000 C 
BRANCH   7  11
ATOM      8  C   UNL     1       9.481  12.671  18.982  0.00  0.00    +0.000 A 
ATOM      9  C   UNL     1       8.963  12.023  17.861  0.00  0.00    +0.000 A 
ATOM     10  C   UNL     1       8.717  10.667  17.857  0.00  0.00    +0.000 A 
ATOM     11  C   UNL     1       8.991   9.895  18.984  0.00  0.00    +0.000 A 
ATOM     12  C   UNL     1       9.477  10.523  20.155  0.00  0.00    +0.000 A 
ATOM     13  C   UNL     1       9.732  11.909  20.154  0.00  0.00    +0.000 A 
BRANCH   8  15
ATOM     14  C   UNL     1      10.161  14.664  17.792  0.00  0.00    +0.000 C 
ATOM     15  O   UNL     1       9.769  14.002  18.953  0.00  0.00    +0.000 OA
ENDBRANCH   8  15
ENDBRANCH   7  11
ENDBRANCH   6   7
ENDBRANCH   1   6
BRANCH   4  16
ATOM     16  C   UNL     1       4.396   7.316  17.626  0.00  0.00    +0.000 C 
BRANCH  16  17
ATOM     17  C   UNL     1       2.898   6.929  17.475  0.00  0.00    +0.000 C 
BRANCH  17  18
ATOM     18  C   UNL     1       2.521   5.719  18.311  0.00  0.00    +0.000 A 
ATOM     19  C   UNL     1       2.448   5.817  19.703  0.00  0.00    +0.000 A 
ATOM     20  C   UNL     1       2.089   4.723  20.476  0.00  0.00    +0.000 A 
ATOM     21  C   UNL     1       1.784   3.485  19.889  0.00  0.00    +0.000 A 
ATOM     22  C   UNL     1       1.849   3.368  18.485  0.00  0.00    +0.000 A 
ATOM     23  C   UNL     1       2.209   4.478  17.702  0.00  0.00    +0.000 A 
BRANCH  21  24
ATOM     24  O   UNL     1       1.430   2.415  20.650  0.00  0.00    +0.000 OA
ATOM     25  C   UNL     1       1.422   2.428  22.042  0.00  0.00    +0.000 C 
ENDBRANCH  21  24
ENDBRANCH  17  18
ENDBRANCH  16  17
ENDBRANCH   4  16
BRANCH   5  26
ATOM     26  C   UNL     1       6.542   4.960  15.877  0.00  0.00    +0.000 C 
BRANCH  26  27
ATOM     27  C   UNL     1       6.541   5.167  14.323  0.00  0.00    +0.000 C 
BRANCH  27  28
ATOM     28  O   UNL     1       7.819   5.348  13.793  0.00  0.00    +0.000 OA
ATOM     29  H   UNL     1       8.471   5.040  14.471  0.00  0.00    +0.000 HD
ENDBRANCH  27  28
BRANCH  27  30
ATOM     30  C   UNL     1       5.856   3.976  13.634  0.00  0.00    +0.000 C 
BRANCH  30  31
ATOM     31  O   UNL     1       6.741   3.340  12.746  0.00  0.00    +0.000 OA
ATOM     32  H   UNL     1       6.196   2.758  12.155  0.00  0.00    +0.000 HD
ENDBRANCH  30  31
ENDBRANCH  27  30
ENDBRANCH  26  27
ENDBRANCH   5  26
TORSDOF 13
ENDMDL
MODEL 4
REMARK VINA RESULT:      -7.2      2.797      6.712
REMARK  Name = 
REMARK  15 active torsions:
REMARK  status: ('A' for Active; 'I' for Inactive)
REMARK    1  A    between atoms: C_1  and  O_2
REMARK    2  A    between atoms: O_2  and  C_3
REMARK    3  A    between atoms: C_6  and  C_7
REMARK    4  A    between atoms: C_7  and  C_8
REMARK    5  A    between atoms: C_8  and  C_9
REMARK    6  A    between atoms: C_12  and  C_13
REMARK    7  A    between atoms: C_13  and  C_14
REMARK    8  A    between atoms: C_14  and  C_15
REMARK    9  A    between atoms: C_18  and  O_19
REMARK   10  A    between atoms: O_19  and  C_20
REMARK   11  A    between atoms: N_23  and  C_24
REMARK   12  A    between atoms: C_24  and  C_25
REMARK   13  A    between atoms: C_25  and  O_26
REMARK   14  A    between atoms: C_25  and  C_27
REMARK   15  A    between atoms: C_27  and  O_28
REMARK                            x       y       z     vdW  Elec       q    Type
REMARK                         _______ _______ _______ _____ _____    ______ ____
ROOT
ATOM      1  C   UNL     1       3.694   3.592  17.135  0.00  0.00    +0.000 C 
ATOM      2  C   UNL     1       4.325   2.837  18.303  0.00  0.00    +0.000 C 
ATOM      3  C   UNL     1       4.563   3.930  19.344  0.00  0.00    +0.000 C 
ATOM      4  C   UNL     1       3.433   4.964  19.048  0.00  0.00    +0.000 C 
ATOM      5  N   UNL     1       2.757   4.580  17.792  0.00  0.00    +0.000 NA
ENDROOT
BRANCH   1   6
ATOM      6  C   UNL     1       4.668   4.340  16.162  0.00  0.00    +0.000 C 
BRANCH   6   7
ATOM      7  C   UNL     1       6.182   4.066  16.440  0.00  0.00    +0.000 C 
BRANCH   7  11
ATOM      8  C   UNL     1       8.106   7.471  18.287  0.00  0.00    +0.000 A 
ATOM      9  C   UNL     1       7.446   7.560  17.062  0.00  0.00    +0.000 A 
ATOM     10  C   UNL     1       6.831   6.468  16.489  0.00  0.00    +0.000 A 
ATOM     11  C   UNL     1       6.862   5.226  17.121  0.00  0.00    +0.000 A 
ATOM     12  C   UNL     1       7.485   5.106  18.385  0.00  0.00    +0.000 A 
ATOM     13  C   UNL     1       8.116   6.224  18.965  0.00  0.00    +0.000 A 
BRANCH   8  15
ATOM     14  C   UNL     1       8.564   9.845  18.351  0.00  0.00    +0.000 C 
ATOM     15  O   UNL     1       8.756   8.546  18.814  0.00  0.00    +0.000 OA
ENDBRANCH   8  15
ENDBRANCH   7  11
ENDBRANCH   6   7
ENDBRANCH   1   6
BRANCH   4  16
ATOM     16  C   UNL     1       3.936   6.433  18.973  0.00  0.00    +0.000 C 
BRANCH  16  17
ATOM     17  C   UNL     1       3.156   7.306  17.950  0.00  0.00    +0.000 C 
BRANCH  17  18
ATOM     18  C   UNL     1       2.219   8.294  18.622  0.00  0.00    +0.000 A 
ATOM     19  C   UNL     1       1.823   8.104  19.948  0.00  0.00    +0.000 A 
ATOM     20  C   UNL     1       0.981   9.009  20.577  0.00  0.00    +0.000 A 
ATOM     21  C   UNL     1       0.502  10.145  19.907  0.00  0.00    +0.000 A 
ATOM     22  C   UNL     1       0.892  10.355  18.568  0.00  0.00    +0.000 A 
ATOM     23  C   UNL     1       1.749   9.440  17.932  0.00  0.00    +0.000 A 
BRANCH  21  24
ATOM     24  O   UNL     1      -0.323  11.030  20.527  0.00  0.00    +0.000 OA
ATOM     25  C   UNL     1      -0.788  10.870  21.829  0.00  0.00    +0.000 C 
ENDBRANCH  21  24
ENDBRANCH  17  18
ENDBRANCH  16  17
ENDBRANCH   4  16
BRANCH   5  26
ATOM     26  C   UNL     1       1.428   3.957  18.079  0.00  0.00    +0.000 C 
BRANCH  26  27
ATOM     27  C   UNL     1       1.258   3.418  19.541  0.00  0.00    +0.000 C 
BRANCH  27  28
ATOM     28  O   UNL     1       0.314   4.131  20.281  0.00  0.00    +0.000 OA
ATOM     29  H   UNL     1       0.783   4.884  20.722  0.00  0.00    +0.000 HD
ENDBRANCH  27  28
BRANCH  27  30
ATOM     30  C   UNL     1       0.877   1.929  19.512  0.00  0.00    +0.000 C 
BRANCH  30  31
ATOM     31  O   UNL     1       0.304   1.587  18.275  0.00  0.00    +0.000 OA
ATOM     32  H   UNL     1      -0.417   2.244  18.093  0.00  0.00    +0.000 HD
ENDBRANCH  30  31
ENDBRANCH  27  30
ENDBRANCH  26  27
ENDBRANCH   5  26
TORSDOF 13
ENDMDL
MODEL 5
REMARK VINA RESULT:      -7.1      1.419      8.740
REMARK  Name = 
REMARK  15 active torsions:
REMARK  status: ('A' for Active; 'I' for Inactive)
REMARK    1  A    between atoms: C_1  and  O_2
REMARK    2  A    between atoms: O_2  and  C_3
REMARK    3  A    between atoms: C_6  and  C_7
REMARK    4  A    between atoms: C_7  and  C_8
REMARK    5  A    between atoms: C_8  and  C_9
REMARK    6  A    between atoms: C_12  and  C_13
REMARK    7  A    between atoms: C_13  and  C_14
REMARK    8  A    between atoms: C_14  and  C_15
REMARK    9  A    between atoms: C_18  and  O_19
REMARK   10  A    between atoms: O_19  and  C_20
REMARK   11  A    between atoms: N_23  and  C_24
REMARK   12  A    between atoms: C_24  and  C_25
REMARK   13  A    between atoms: C_25  and  O_26
REMARK   14  A    between atoms: C_25  and  C_27
REMARK   15  A    between atoms: C_27  and  O_28
REMARK                            x       y       z     vdW  Elec       q    Type
REMARK                         _______ _______ _______ _____ _____    ______ ____
ROOT
ATOM      1  C   UNL     1       7.656   7.156  17.328  0.00  0.00    +0.000 C 
ATOM      2  C   UNL     1       7.641   6.151  18.479  0.00  0.00    +0.000 C 
ATOM      3  C   UNL     1       6.165   6.083  18.870  0.00  0.00    +0.000 C 
ATOM      4  C   UNL     1       5.423   6.395  17.534  0.00  0.00    +0.000 C 
ATOM      5  N   UNL     1       6.416   6.826  16.529  0.00  0.00    +0.000 NA
ENDROOT
BRANCH   1   6
ATOM      6  C   UNL     1       7.661   8.675  17.709  0.00  0.00    +0.000 C 
BRANCH   6   7
ATOM      7  C   UNL     1       8.773   9.071  18.735  0.00  0.00    +0.000 C 
BRANCH   7  11
ATOM      8  C   UNL     1      10.092  13.178  18.425  0.00  0.00    +0.000 A 
ATOM      9  C   UNL     1      10.768  12.233  19.195  0.00  0.00    +0.000 A 
ATOM     10  C   UNL     1      10.340  10.925  19.279  0.00  0.00    +0.000 A 
ATOM     11  C   UNL     1       9.199  10.509  18.595  0.00  0.00    +0.000 A 
ATOM     12  C   UNL     1       8.511  11.428  17.769  0.00  0.00    +0.000 A 
ATOM     13  C   UNL     1       8.949  12.765  17.690  0.00  0.00    +0.000 A 
BRANCH   8  15
ATOM     14  C   UNL     1       9.618  15.536  18.174  0.00  0.00    +0.000 C 
ATOM     15  O   UNL     1      10.496  14.479  18.395  0.00  0.00    +0.000 OA
ENDBRANCH   8  15
ENDBRANCH   7  11
ENDBRANCH   6   7
ENDBRANCH   1   6
BRANCH   4  16
ATOM     16  C   UNL     1       4.295   7.455  17.681  0.00  0.00    +0.000 C 
BRANCH  16  17
ATOM     17  C   UNL     1       2.884   6.918  17.310  0.00  0.00    +0.000 C 
BRANCH  17  18
ATOM     18  C   UNL     1       2.373   5.888  18.301  0.00  0.00    +0.000 A 
ATOM     19  C   UNL     1       2.407   6.150  19.673  0.00  0.00    +0.000 A 
ATOM     20  C   UNL     1       1.927   5.223  20.587  0.00  0.00    +0.000 A 
ATOM     21  C   UNL     1       1.389   3.997  20.167  0.00  0.00    +0.000 A 
ATOM     22  C   UNL     1       1.344   3.716  18.786  0.00  0.00    +0.000 A 
ATOM     23  C   UNL     1       1.826   4.657  17.859  0.00  0.00    +0.000 A 
BRANCH  21  24
ATOM     24  O   UNL     1       0.919   3.092  21.066  0.00  0.00    +0.000 OA
ATOM     25  C   UNL     1       1.733   2.383  21.945  0.00  0.00    +0.000 C 
ENDBRANCH  21  24
ENDBRANCH  17  18
ENDBRANCH  16  17
ENDBRANCH   4  16
BRANCH   5  26
ATOM     26  C   UNL     1       6.679   5.729  15.547  0.00  0.00    +0.000 C 
BRANCH  26  27
ATOM     27  C   UNL     1       5.515   4.691  15.394  0.00  0.00    +0.000 C 
BRANCH  27  28
ATOM     28  O   UNL     1       5.251   4.356  14.065  0.00  0.00    +0.000 OA
ATOM     29  H   UNL     1       5.481   5.140  13.506  0.00  0.00    +0.000 HD
ENDBRANCH  27  28
BRANCH  27  30
ATOM     30  C   UNL     1       5.835   3.418  16.196  0.00  0.00    +0.000 C 
BRANCH  30  31
ATOM     31  O   UNL     1       4.730   3.028  16.971  0.00  0.00    +0.000 OA
ATOM     32  H   UNL     1       4.156   2.457  16.398  0.00  0.00    +0.000 HD
ENDBRANCH  30  31
ENDBRANCH  27  30
ENDBRANCH  26  27
ENDBRANCH   5  26
TORSDOF 13
ENDMDL
MODEL 6
REMARK VINA RESULT:      -7.1      2.795      7.843
REMARK  Name = 
REMARK  15 active torsions:
REMARK  status: ('A' for Active; 'I' for Inactive)
REMARK    1  A    between atoms: C_1  and  O_2
REMARK    2  A    between atoms: O_2  and  C_3
REMARK    3  A    between atoms: C_6  and  C_7
REMARK    4  A    between atoms: C_7  and  C_8
REMARK    5  A    between atoms: C_8  and  C_9
REMARK    6  A    between atoms: C_12  and  C_13
REMARK    7  A    between atoms: C_13  and  C_14
REMARK    8  A    between atoms: C_14  and  C_15
REMARK    9  A    between atoms: C_18  and  O_19
REMARK   10  A    between atoms: O_19  and  C_20
REMARK   11  A    between atoms: N_23  and  C_24
REMARK   12  A    between atoms: C_24  and  C_25
REMARK   13  A    between atoms: C_25  and  O_26
REMARK   14  A    between atoms: C_25  and  C_27
REMARK   15  A    between atoms: C_27  and  O_28
REMARK                            x       y       z     vdW  Elec       q    Type
REMARK                         _______ _______ _______ _____ _____    ______ ____
ROOT
ATOM      1  C   UNL     1       7.652   6.313  17.085  0.00  0.00    +0.000 C 
ATOM      2  C   UNL     1       7.625   5.328  18.252  0.00  0.00    +0.000 C 
ATOM      3  C   UNL     1       6.135   5.180  18.556  0.00  0.00    +0.000 C 
ATOM      4  C   UNL     1       5.458   5.426  17.173  0.00  0.00    +0.000 C 
ATOM      5  N   UNL     1       6.483   5.899  16.220  0.00  0.00    +0.000 NA
ENDROOT
BRANCH   1   6
ATOM      6  C   UNL     1       7.546   7.836  17.436  0.00  0.00    +0.000 C 
BRANCH   6   7
ATOM      7  C   UNL     1       8.429   8.273  18.651  0.00  0.00    +0.000 C 
BRANCH   7  11
ATOM      8  C   UNL     1       9.396  12.487  18.719  0.00  0.00    +0.000 A 
ATOM      9  C   UNL     1       9.865  11.598  19.687  0.00  0.00    +0.000 A 
ATOM     10  C   UNL     1       9.553  10.256  19.648  0.00  0.00    +0.000 A 
ATOM     11  C   UNL     1       8.744   9.746  18.634  0.00  0.00    +0.000 A 
ATOM     12  C   UNL     1       8.286  10.609  17.611  0.00  0.00    +0.000 A 
ATOM     13  C   UNL     1       8.602  11.981  17.657  0.00  0.00    +0.000 A 
BRANCH   8  15
ATOM     14  C   UNL     1       9.053  14.659  19.727  0.00  0.00    +0.000 C 
ATOM     15  O   UNL     1       9.667  13.820  18.801  0.00  0.00    +0.000 OA
ENDBRANCH   8  15
ENDBRANCH   7  11
ENDBRANCH   6   7
ENDBRANCH   1   6
BRANCH   4  16
ATOM     16  C   UNL     1       4.264   6.421  17.232  0.00  0.00    +0.000 C 
BRANCH  16  17
ATOM     17  C   UNL     1       3.449   6.337  18.554  0.00  0.00    +0.000 C 
BRANCH  17  18
ATOM     18  C   UNL     1       2.556   7.546  18.766  0.00  0.00    +0.000 A 
ATOM     19  C   UNL     1       1.932   7.756  19.999  0.00  0.00    +0.000 A 
ATOM     20  C   UNL     1       1.127   8.866  20.210  0.00  0.00    +0.000 A 
ATOM     21  C   UNL     1       0.916   9.815  19.198  0.00  0.00    +0.000 A 
ATOM     22  C   UNL     1       1.539   9.621  17.948  0.00  0.00    +0.000 A 
ATOM     23  C   UNL     1       2.358   8.499  17.735  0.00  0.00    +0.000 A 
BRANCH  21  24
ATOM     24  O   UNL     1       0.127  10.902  19.409  0.00  0.00    +0.000 OA
ATOM     25  C   UNL     1       0.431  12.177  18.940  0.00  0.00    +0.000 C 
ENDBRANCH  21  24
ENDBRANCH  17  18
ENDBRANCH  16  17
ENDBRANCH   4  16
BRANCH   5  26
ATOM     26  C   UNL     1       6.868   4.805  15.277  0.00  0.00    +0.000 C 
BRANCH  26  27
ATOM     27  C   UNL     1       7.109   5.266  13.798  0.00  0.00    +0.000 C 
BRANCH  27  28
ATOM     28  O   UNL     1       8.396   5.760  13.580  0.00  0.00    +0.000 OA
ATOM     29  H   UNL     1       8.318   6.727  13.383  0.00  0.00    +0.000 HD
ENDBRANCH  27  28
BRANCH  27  30
ATOM     30  C   UNL     1       6.829   4.104  12.832  0.00  0.00    +0.000 C 
BRANCH  30  31
ATOM     31  O   UNL     1       6.141   3.068  13.487  0.00  0.00    +0.000 OA
ATOM     32  H   UNL     1       6.532   2.984  14.394  0.00  0.00    +0.000 HD
ENDBRANCH  30  31
ENDBRANCH  27  30
ENDBRANCH  26  27
ENDBRANCH   5  26
TORSDOF 13
ENDMDL
MODEL 7
REMARK VINA RESULT:      -7.1      1.532      8.475
REMARK  Name = 
REMARK  15 active torsions:
REMARK  status: ('A' for Active; 'I' for Inactive)
REMARK    1  A    between atoms: C_1  and  O_2
REMARK    2  A    between atoms: O_2  and  C_3
REMARK    3  A    between atoms: C_6  and  C_7
REMARK    4  A    between atoms: C_7  and  C_8
REMARK    5  A    between atoms: C_8  and  C_9
REMARK    6  A    between atoms: C_12  and  C_13
REMARK    7  A    between atoms: C_13  and  C_14
REMARK    8  A    between atoms: C_14  and  C_15
REMARK    9  A    between atoms: C_18  and  O_19
REMARK   10  A    between atoms: O_19  and  C_20
REMARK   11  A    between atoms: N_23  and  C_24
REMARK   12  A    between atoms: C_24  and  C_25
REMARK   13  A    between atoms: C_25  and  O_26
REMARK   14  A    between atoms: C_25  and  C_27
REMARK   15  A    between atoms: C_27  and  O_28
REMARK                            x       y       z     vdW  Elec       q    Type
REMARK                         _______ _______ _______ _____ _____    ______ ____
ROOT
ATOM      1  C   UNL     1       7.806   6.043  18.237  0.00  0.00    +0.000 C 
ATOM      2  C   UNL     1       7.212   5.057  19.242  0.00  0.00    +0.000 C 
ATOM      3  C   UNL     1       5.723   5.402  19.238  0.00  0.00    +0.000 C 
ATOM      4  C   UNL     1       5.481   5.945  17.796  0.00  0.00    +0.000 C 
ATOM      5  N   UNL     1       6.787   6.100  17.122  0.00  0.00    +0.000 NA
ENDROOT
BRANCH   1   6
ATOM      6  C   UNL     1       8.114   7.488  18.757  0.00  0.00    +0.000 C 
BRANCH   6   7
ATOM      7  C   UNL     1       8.055   8.590  17.649  0.00  0.00    +0.000 C 
BRANCH   7  11
ATOM      8  C   UNL     1       9.508  12.369  19.170  0.00  0.00    +0.000 A 
ATOM      9  C   UNL     1       9.758  11.158  19.816  0.00  0.00    +0.000 A 
ATOM     10  C   UNL     1       9.294   9.961  19.315  0.00  0.00    +0.000 A 
ATOM     11  C   UNL     1       8.545   9.928  18.140  0.00  0.00    +0.000 A 
ATOM     12  C   UNL     1       8.308  11.130  17.434  0.00  0.00    +0.000 A 
ATOM     13  C   UNL     1       8.780  12.353  17.951  0.00  0.00    +0.000 A 
BRANCH   8  15
ATOM     14  C   UNL     1      10.289  13.685  21.043  0.00  0.00    +0.000 C 
ATOM     15  O   UNL     1       9.926  13.550  19.705  0.00  0.00    +0.000 OA
ENDBRANCH   8  15
ENDBRANCH   7  11
ENDBRANCH   6   7
ENDBRANCH   1   6
BRANCH   4  16
ATOM     16  C   UNL     1       4.683   7.279  17.758  0.00  0.00    +0.000 C 
BRANCH  16  17
ATOM     17  C   UNL     1       3.163   7.086  17.492  0.00  0.00    +0.000 C 
BRANCH  17  18
ATOM     18  C   UNL     1       2.540   6.041  18.399  0.00  0.00    +0.000 A 
ATOM     19  C   UNL     1       2.357   6.304  19.759  0.00  0.00    +0.000 A 
ATOM     20  C   UNL     1       1.774   5.363  20.595  0.00  0.00    +0.000 A 
ATOM     21  C   UNL     1       1.345   4.120  20.104  0.00  0.00    +0.000 A 
ATOM     22  C   UNL     1       1.519   3.837  18.733  0.00  0.00    +0.000 A 
ATOM     23  C   UNL     1       2.107   4.793  17.886  0.00  0.00    +0.000 A 
BRANCH  21  24
ATOM     24  O   UNL     1       0.772   3.200  20.926  0.00  0.00    +0.000 OA
ATOM     25  C   UNL     1       1.487   2.430  21.838  0.00  0.00    +0.000 C 
ENDBRANCH  21  24
ENDBRANCH  17  18
ENDBRANCH  16  17
ENDBRANCH   4  16
BRANCH   5  26
ATOM     26  C   UNL     1       7.003   4.997  16.135  0.00  0.00    +0.000 C 
BRANCH  26  27
ATOM     27  C   UNL     1       6.021   5.009  14.913  0.00  0.00    +0.000 C 
BRANCH  27  28
ATOM     28  O   UNL     1       5.496   6.273  14.643  0.00  0.00    +0.000 OA
ATOM     29  H   UNL     1       4.850   6.178  13.898  0.00  0.00    +0.000 HD
ENDBRANCH  27  28
BRANCH  27  30
ATOM     30  C   UNL     1       6.731   4.465  13.663  0.00  0.00    +0.000 C 
BRANCH  30  31
ATOM     31  O   UNL     1       6.146   3.258  13.244  0.00  0.00    +0.000 OA
ATOM     32  H   UNL     1       5.695   3.435  12.378  0.00  0.00    +0.000 HD
ENDBRANCH  30  31
ENDBRANCH  27  30
ENDBRANCH  26  27
ENDBRANCH   5  26
TORSDOF 13
ENDMDL
MODEL 8
REMARK VINA RESULT:      -7.0      2.759      7.967
REMARK  Name = 
REMARK  15 active torsions:
REMARK  status: ('A' for Active; 'I' for Inactive)
REMARK    1  A    between atoms: C_1  and  O_2
REMARK    2  A    between atoms: O_2  and  C_3
REMARK    3  A    between atoms: C_6  and  C_7
REMARK    4  A    between atoms: C_7  and  C_8
REMARK    5  A    between atoms: C_8  and  C_9
REMARK    6  A    between atoms: C_12  and  C_13
REMARK    7  A    between atoms: C_13  and  C_14
REMARK    8  A    between atoms: C_14  and  C_15
REMARK    9  A    between atoms: C_18  and  O_19
REMARK   10  A    between atoms: O_19  and  C_20
REMARK   11  A    between atoms: N_23  and  C_24
REMARK   12  A    between atoms: C_24  and  C_25
REMARK   13  A    between atoms: C_25  and  O_26
REMARK   14  A    between atoms: C_25  and  C_27
REMARK   15  A    between atoms: C_27  and  O_28
REMARK                            x       y       z     vdW  Elec       q    Type
REMARK                         _______ _______ _______ _____ _____    ______ ____
ROOT
ATOM      1  C   UNL     1       7.795   6.423  17.671  0.00  0.00    +0.000 C 
ATOM      2  C   UNL     1       7.617   5.669  18.988  0.00  0.00    +0.000 C 
ATOM      3  C   UNL     1       6.101   5.660  19.188  0.00  0.00    +0.000 C 
ATOM      4  C   UNL     1       5.544   5.688  17.732  0.00  0.00    +0.000 C 
ATOM      5  N   UNL     1       6.665   5.923  16.799  0.00  0.00    +0.000 NA
ENDROOT
BRANCH   1   6
ATOM      6  C   UNL     1       7.770   7.987  17.738  0.00  0.00    +0.000 C 
BRANCH   6   7
ATOM      7  C   UNL     1       8.691   8.593  18.846  0.00  0.00    +0.000 C 
BRANCH   7  11
ATOM      8  C   UNL     1       9.244  12.837  18.223  0.00  0.00    +0.000 A 
ATOM      9  C   UNL     1       8.324  12.088  17.489  0.00  0.00    +0.000 A 
ATOM     10  C   UNL     1       8.155  10.737  17.704  0.00  0.00    +0.000 A 
ATOM     11  C   UNL     1       8.913  10.072  18.665  0.00  0.00    +0.000 A 
ATOM     12  C   UNL     1       9.826  10.806  19.459  0.00  0.00    +0.000 A 
ATOM     13  C   UNL     1      10.000  12.186  19.233  0.00  0.00    +0.000 A 
BRANCH   8  15
ATOM     14  C   UNL     1       8.710  15.168  18.586  0.00  0.00    +0.000 C 
ATOM     15  O   UNL     1       9.440  14.160  17.962  0.00  0.00    +0.000 OA
ENDBRANCH   8  15
ENDBRANCH   7  11
ENDBRANCH   6   7
ENDBRANCH   1   6
BRANCH   4  16
ATOM     16  C   UNL     1       4.421   6.742  17.514  0.00  0.00    +0.000 C 
BRANCH  16  17
ATOM     17  C   UNL     1       3.063   6.345  18.160  0.00  0.00    +0.000 C 
BRANCH  17  18
ATOM     18  C   UNL     1       2.294   7.545  18.684  0.00  0.00    +0.000 A 
ATOM     19  C   UNL     1       1.942   7.624  20.034  0.00  0.00    +0.000 A 
ATOM     20  C   UNL     1       1.253   8.723  20.526  0.00  0.00    +0.000 A 
ATOM     21  C   UNL     1       0.892   9.790  19.691  0.00  0.00    +0.000 A 
ATOM     22  C   UNL     1       1.241   9.729  18.326  0.00  0.00    +0.000 A 
ATOM     23  C   UNL     1       1.942   8.618  17.827  0.00  0.00    +0.000 A 
BRANCH  21  24
ATOM     24  O   UNL     1       0.218  10.867  20.178  0.00  0.00    +0.000 OA
ATOM     25  C   UNL     1       0.265  12.132  19.599  0.00  0.00    +0.000 C 
ENDBRANCH  21  24
ENDBRANCH  17  18
ENDBRANCH  16  17
ENDBRANCH   4  16
BRANCH   5  26
ATOM     26  C   UNL     1       7.041   4.656  16.100  0.00  0.00    +0.000 C 
BRANCH  26  27
ATOM     27  C   UNL     1       6.293   4.407  14.745  0.00  0.00    +0.000 C 
BRANCH  27  28
ATOM     28  O   UNL     1       5.134   5.172  14.610  0.00  0.00    +0.000 OA
ATOM     29  H   UNL     1       4.560   4.989  15.396  0.00  0.00    +0.000 HD
ENDBRANCH  27  28
BRANCH  27  30
ATOM     30  C   UNL     1       7.238   4.684  13.564  0.00  0.00    +0.000 C 
BRANCH  30  31
ATOM     31  O   UNL     1       8.167   5.685  13.895  0.00  0.00    +0.000 OA
ATOM     32  H   UNL     1       8.691   5.882  13.075  0.00  0.00    +0.000 HD
ENDBRANCH  30  31
ENDBRANCH  27  30
ENDBRANCH  26  27
ENDBRANCH   5  26
TORSDOF 13
ENDMDL
MODEL 9
REMARK VINA RESULT:      -7.0      2.899      4.791
REMARK  Name = 
REMARK  15 active torsions:
REMARK  status: ('A' for Active; 'I' for Inactive)
REMARK    1  A    between atoms: C_1  and  O_2
REMARK    2  A    between atoms: O_2  and  C_3
REMARK    3  A    between atoms: C_6  and  C_7
REMARK    4  A    between atoms: C_7  and  C_8
REMARK    5  A    between atoms: C_8  and  C_9
REMARK    6  A    between atoms: C_12  and  C_13
REMARK    7  A    between atoms: C_13  and  C_14
REMARK    8  A    between atoms: C_14  and  C_15
REMARK    9  A    between atoms: C_18  and  O_19
REMARK   10  A    between atoms: O_19  and  C_20
REMARK   11  A    between atoms: N_23  and  C_24
REMARK   12  A    between atoms: C_24  and  C_25
REMARK   13  A    between atoms: C_25  and  O_26
REMARK   14  A    between atoms: C_25  and  C_27
REMARK   15  A    between atoms: C_27  and  O_28
REMARK                            x       y       z     vdW  Elec       q    Type
REMARK                         _______ _______ _______ _____ _____    ______ ____
ROOT
ATOM      1  C   UNL     1       2.197   5.524  18.392  0.00  0.00    +0.000 C 
ATOM      2  C   UNL     1       1.429   4.352  17.784  0.00  0.00    +0.000 C 
ATOM      3  C   UNL     1       2.528   3.499  17.150  0.00  0.00    +0.000 C 
ATOM      4  C   UNL     1       3.771   3.789  18.045  0.00  0.00    +0.000 C 
ATOM      5  N   UNL     1       3.443   4.894  18.970  0.00  0.00    +0.000 NA
ENDROOT
BRANCH   1   6
ATOM      6  C   UNL     1       2.585   6.696  17.428  0.00  0.00    +0.000 C 
BRANCH   6   7
ATOM      7  C   UNL     1       3.011   8.010  18.162  0.00  0.00    +0.000 C 
BRANCH   7  11
ATOM      8  C   UNL     1      -0.391  10.236  19.637  0.00  0.00    +0.000 A 
ATOM      9  C   UNL     1      -0.021  10.242  18.292  0.00  0.00    +0.000 A 
ATOM     10  C   UNL     1       1.062   9.523  17.835  0.00  0.00    +0.000 A 
ATOM     11  C   UNL     1       1.832   8.766  18.717  0.00  0.00    +0.000 A 
ATOM     12  C   UNL     1       1.462   8.701  20.081  0.00  0.00    +0.000 A 
ATOM     13  C   UNL     1       0.357   9.442  20.545  0.00  0.00    +0.000 A 
BRANCH   8  15
ATOM     14  C   UNL     1      -2.165  11.833  19.247  0.00  0.00    +0.000 C 
ATOM     15  O   UNL     1      -1.431  10.995  20.082  0.00  0.00    +0.000 OA
ENDBRANCH   8  15
ENDBRANCH   7  11
ENDBRANCH   6   7
ENDBRANCH   1   6
BRANCH   4  16
ATOM     16  C   UNL     1       5.059   4.115  17.236  0.00  0.00    +0.000 C 
BRANCH  16  17
ATOM     17  C   UNL     1       6.324   4.289  18.124  0.00  0.00    +0.000 C 
BRANCH  17  18
ATOM     18  C   UNL     1       6.878   5.702  18.079  0.00  0.00    +0.000 A 
ATOM     19  C   UNL     1       7.913   6.083  18.937  0.00  0.00    +0.000 A 
ATOM     20  C   UNL     1       8.438   7.366  18.894  0.00  0.00    +0.000 A 
ATOM     21  C   UNL     1       7.953   8.321  17.987  0.00  0.00    +0.000 A 
ATOM     22  C   UNL     1       6.910   7.954  17.112  0.00  0.00    +0.000 A 
ATOM     23  C   UNL     1       6.381   6.653  17.153  0.00  0.00    +0.000 A 
BRANCH  21  24
ATOM     24  O   UNL     1       8.472   9.577  17.946  0.00  0.00    +0.000 OA
ATOM     25  C   UNL     1       9.170  10.158  19.001  0.00  0.00    +0.000 C 
ENDBRANCH  21  24
ENDBRANCH  17  18
ENDBRANCH  16  17
ENDBRANCH   4  16
BRANCH   5  26
ATOM     26  C   UNL     1       3.196   4.369  20.348  0.00  0.00    +0.000 C 
BRANCH  26  27
ATOM     27  C   UNL     1       2.985   2.818  20.433  0.00  0.00    +0.000 C 
BRANCH  27  28
ATOM     28  O   UNL     1       3.907   2.184  21.266  0.00  0.00    +0.000 OA
ATOM     29  H   UNL     1       4.402   1.523  20.718  0.00  0.00    +0.000 HD
ENDBRANCH  27  28
BRANCH  27  30
ATOM     30  C   UNL     1       1.556   2.507  20.908  0.00  0.00    +0.000 C 
BRANCH  30  31
ATOM     31  O   UNL     1       1.507   2.419  22.310  0.00  0.00    +0.000 OA
ATOM     32  H   UNL     1       1.600   3.341  22.665  0.00  0.00    +0.000 HD
ENDBRANCH  30  31
ENDBRANCH  27  30
ENDBRANCH  26  27
ENDBRANCH   5  26
TORSDOF 13
ENDMDL
