MODEL 1
REMARK VINA RESULT:      -8.3      0.000      0.000
REMARK  Name = 
REMARK  10 active torsions:
REMARK  status: ('A' for Active; 'I' for Inactive)
REMARK    1  A    between atoms: C_1  and  C_2
REMARK    2  A    between atoms: C_2  and  C_3
REMARK    3  A    between atoms: C_3  and  C_4
REMARK    4  A    between atoms: C_4  and  C_5
REMARK    5  A    between atoms: C_5  and  C_6
REMARK    6  A    between atoms: C_6  and  C_7
REMARK    7  A    between atoms: C_7  and  N_8
REMARK    8  A    between atoms: N_8  and  C_9
REMARK    9  A    between atoms: N_17  and  C_18
REMARK   10  A    between atoms: C_21  and  C_22
REMARK                            x       y       z     vdW  Elec       q    Type
REMARK                         _______ _______ _______ _____ _____    ______ ____
ROOT
ATOM      1  C   UNL     1       5.580   5.114  16.970  0.00  0.00    +0.000 C 
ATOM      2  C   UNL     1       5.286   3.873  17.829  0.00  0.00    +0.000 C 
ATOM      3  C   UNL     1       3.810   3.630  17.965  0.00  0.00    +0.000 A 
ATOM      4  C   UNL     1       3.309   2.321  18.026  0.00  0.00    +0.000 A 
ATOM      5  C   UNL     1       1.945   2.096  18.192  0.00  0.00    +0.000 A 
ATOM      6  C   UNL     1       1.078   3.176  18.310  0.00  0.00    +0.000 A 
ATOM      7  C   UNL     1       1.576   4.480  18.272  0.00  0.00    +0.000 A 
ATOM      8  C   UNL     1       2.950   4.728  18.106  0.00  0.00    +0.000 A 
ATOM      9  N   UNL     1       3.494   6.048  18.014  0.00  0.00    +0.000 N 
ATOM     10  C   UNL     1       4.783   6.313  17.531  0.00  0.00    +0.000 C 
ATOM     11  O   UNL     1       5.260   7.450  17.469  0.00  0.00    +0.000 OA
ENDROOT
BRANCH   9  12
ATOM     12  C   UNL     1       2.693   7.135  18.472  0.00  0.00    +0.000 A 
ATOM     13  C   UNL     1       2.279   8.126  17.577  0.00  0.00    +0.000 A 
ATOM     14  C   UNL     1       1.474   9.182  18.014  0.00  0.00    +0.000 A 
ATOM     15  C   UNL     1       1.099   9.280  19.358  0.00  0.00    +0.000 A 
ATOM     16  C   UNL     1       0.258  10.425  19.840  0.00  0.00    +0.000 C 
ATOM     17  C   UNL     1       1.544   8.308  20.262  0.00  0.00    +0.000 A 
ATOM     18  C   UNL     1       2.329   7.237  19.822  0.00  0.00    +0.000 A 
ENDBRANCH   9  12
BRANCH   1  19
ATOM     19  C   UNL     1       7.111   5.434  17.001  0.00  0.00    +0.000 C 
BRANCH  19  21
ATOM     20  C   UNL     1       7.970   5.845  19.334  0.00  0.00    +0.000 C 
ATOM     21  C   UNL     1       7.910   4.854  18.178  0.00  0.00    +0.000 C 
ENDBRANCH  19  21
ENDBRANCH   1  19
BRANCH   1  22
ATOM     22  C   UNL     1       5.130   4.933  15.474  0.00  0.00    +0.000 C 
BRANCH  22  23
ATOM     23  C   UNL     1       5.787   3.752  14.746  0.00  0.00    +0.000 C 
BRANCH  23  24
ATOM     24  C   UNL     1       6.527   4.152  13.466  0.00  0.00    +0.000 C 
BRANCH  24  25
ATOM     25  N   UNL     1       6.282   3.103  12.472  0.00  0.00    +0.000 NA
ATOM     26  C   UNL     1       4.952   3.191  11.893  0.00  0.00    +0.000 C 
ATOM     27  H   UNL     1       6.401   2.188  12.905  0.00  0.00    +0.000 HD
ENDBRANCH  24  25
ENDBRANCH  23  24
ENDBRANCH  22  23
ENDBRANCH   1  22
TORSDOF 7
ENDMDL
MODEL 2
REMARK VINA RESULT:      -8.1      1.157      1.509
REMARK  Name = 
REMARK  10 active torsions:
REMARK  status: ('A' for Active; 'I' for Inactive)
REMARK    1  A    between atoms: C_1  and  C_2
REMARK    2  A    between atoms: C_2  and  C_3
REMARK    3  A    between atoms: C_3  and  C_4
REMARK    4  A    between atoms: C_4  and  C_5
REMARK    5  A    between atoms: C_5  and  C_6
REMARK    6  A    between atoms: C_6  and  C_7
REMARK    7  A    between atoms: C_7  and  N_8
REMARK    8  A    between atoms: N_8  and  C_9
REMARK    9  A    between atoms: N_17  and  C_18
REMARK   10  A    between atoms: C_21  and  C_22
REMARK                            x       y       z     vdW  Elec       q    Type
REMARK                         _______ _______ _______ _____ _____    ______ ____
ROOT
ATOM      1  C   UNL     1       5.291   4.973  17.846  0.00  0.00    +0.000 C 
ATOM      2  C   UNL     1       5.188   4.133  19.129  0.00  0.00    +0.000 C 
ATOM      3  C   UNL     1       3.759   3.920  19.539  0.00  0.00    +0.000 A 
ATOM      4  C   UNL     1       3.365   2.715  20.139  0.00  0.00    +0.000 A 
ATOM      5  C   UNL     1       2.048   2.533  20.555  0.00  0.00    +0.000 A 
ATOM      6  C   UNL     1       1.123   3.556  20.384  0.00  0.00    +0.000 A 
ATOM      7  C   UNL     1       1.518   4.765  19.807  0.00  0.00    +0.000 A 
ATOM      8  C   UNL     1       2.843   4.969  19.381  0.00  0.00    +0.000 A 
ATOM      9  N   UNL     1       3.274   6.174  18.743  0.00  0.00    +0.000 N 
ATOM     10  C   UNL     1       4.478   6.274  18.030  0.00  0.00    +0.000 C 
ATOM     11  O   UNL     1       4.861   7.318  17.495  0.00  0.00    +0.000 OA
ENDROOT
BRANCH   9  12
ATOM     12  C   UNL     1       2.454   7.332  18.873  0.00  0.00    +0.000 A 
ATOM     13  C   UNL     1       1.985   7.721  20.132  0.00  0.00    +0.000 A 
ATOM     14  C   UNL     1       1.200   8.869  20.270  0.00  0.00    +0.000 A 
ATOM     15  C   UNL     1       0.846   9.627  19.148  0.00  0.00    +0.000 A 
ATOM     16  C   UNL     1      -0.019  10.846  19.285  0.00  0.00    +0.000 C 
ATOM     17  C   UNL     1       1.285   9.218  17.883  0.00  0.00    +0.000 A 
ATOM     18  C   UNL     1       2.090   8.083  17.746  0.00  0.00    +0.000 A 
ENDBRANCH   9  12
BRANCH   1  19
ATOM     19  C   UNL     1       6.789   5.322  17.555  0.00  0.00    +0.000 C 
BRANCH  19  21
ATOM     20  C   UNL     1       8.146   7.195  18.552  0.00  0.00    +0.000 C 
ATOM     21  C   UNL     1       7.634   5.775  18.755  0.00  0.00    +0.000 C 
ENDBRANCH  19  21
ENDBRANCH   1  19
BRANCH   1  22
ATOM     22  C   UNL     1       4.690   4.237  16.593  0.00  0.00    +0.000 C 
BRANCH  22  23
ATOM     23  C   UNL     1       5.733   3.689  15.609  0.00  0.00    +0.000 C 
BRANCH  23  24
ATOM     24  C   UNL     1       5.657   4.322  14.216  0.00  0.00    +0.000 C 
BRANCH  24  25
ATOM     25  N   UNL     1       6.271   3.382  13.274  0.00  0.00    +0.000 NA
ATOM     26  C   UNL     1       5.464   3.188  12.081  0.00  0.00    +0.000 C 
ATOM     27  H   UNL     1       6.415   2.483  13.733  0.00  0.00    +0.000 HD
ENDBRANCH  24  25
ENDBRANCH  23  24
ENDBRANCH  22  23
ENDBRANCH   1  22
TORSDOF 7
ENDMDL
MODEL 3
REMARK VINA RESULT:      -7.2      1.006      1.579
REMARK  Name = 
REMARK  10 active torsions:
REMARK  status: ('A' for Active; 'I' for Inactive)
REMARK    1  A    between atoms: C_1  and  C_2
REMARK    2  A    between atoms: C_2  and  C_3
REMARK    3  A    between atoms: C_3  and  C_4
REMARK    4  A    between atoms: C_4  and  C_5
REMARK    5  A    between atoms: C_5  and  C_6
REMARK    6  A    between atoms: C_6  and  C_7
REMARK    7  A    between atoms: C_7  and  N_8
REMARK    8  A    between atoms: N_8  and  C_9
REMARK    9  A    between atoms: N_17  and  C_18
REMARK   10  A    between atoms: C_21  and  C_22
REMARK                            x       y       z     vdW  Elec       q    Type
REMARK                         _______ _______ _______ _____ _____    ______ ____
ROOT
ATOM      1  C   UNL     1       5.636   5.400  17.396  0.00  0.00    +0.000 C 
ATOM      2  C   UNL     1       5.312   4.136  18.209  0.00  0.00    +0.000 C 
ATOM      3  C   UNL     1       3.841   3.836  18.204  0.00  0.00    +0.000 A 
ATOM      4  C   UNL     1       3.388   2.508  18.204  0.00  0.00    +0.000 A 
ATOM      5  C   UNL     1       2.023   2.230  18.239  0.00  0.00    +0.000 A 
ATOM      6  C   UNL     1       1.108   3.275  18.288  0.00  0.00    +0.000 A 
ATOM      7  C   UNL     1       1.557   4.597  18.312  0.00  0.00    +0.000 A 
ATOM      8  C   UNL     1       2.930   4.899  18.277  0.00  0.00    +0.000 A 
ATOM      9  N   UNL     1       3.428   6.240  18.251  0.00  0.00    +0.000 N 
ATOM     10  C   UNL     1       4.745   6.560  17.893  0.00  0.00    +0.000 C 
ATOM     11  O   UNL     1       5.182   7.715  17.889  0.00  0.00    +0.000 OA
ENDROOT
BRANCH   9  12
ATOM     12  C   UNL     1       2.547   7.289  18.645  0.00  0.00    +0.000 A 
ATOM     13  C   UNL     1       2.147   7.405  19.979  0.00  0.00    +0.000 A 
ATOM     14  C   UNL     1       1.303   8.446  20.376  0.00  0.00    +0.000 A 
ATOM     15  C   UNL     1       0.821   9.367  19.440  0.00  0.00    +0.000 A 
ATOM     16  C   UNL     1      -0.107  10.471  19.853  0.00  0.00    +0.000 C 
ATOM     17  C   UNL     1       1.192   9.230  18.097  0.00  0.00    +0.000 A 
ATOM     18  C   UNL     1       2.056   8.203  17.702  0.00  0.00    +0.000 A 
ENDBRANCH   9  12
BRANCH   1  19
ATOM     19  C   UNL     1       7.144   5.777  17.572  0.00  0.00    +0.000 C 
BRANCH  19  21
ATOM     20  C   UNL     1       8.282   7.924  18.240  0.00  0.00    +0.000 C 
ATOM     21  C   UNL     1       7.557   7.187  17.121  0.00  0.00    +0.000 C 
ENDBRANCH  19  21
ENDBRANCH   1  19
BRANCH   1  22
ATOM     22  C   UNL     1       5.335   5.225  15.862  0.00  0.00    +0.000 C 
BRANCH  22  23
ATOM     23  C   UNL     1       5.939   3.963  15.230  0.00  0.00    +0.000 C 
BRANCH  23  24
ATOM     24  C   UNL     1       6.581   4.207  13.861  0.00  0.00    +0.000 C 
BRANCH  24  25
ATOM     25  N   UNL     1       7.577   5.269  14.028  0.00  0.00    +0.000 NA
ATOM     26  C   UNL     1       8.205   5.641  12.770  0.00  0.00    +0.000 C 
ATOM     27  H   UNL     1       8.295   4.964  14.685  0.00  0.00    +0.000 HD
ENDBRANCH  24  25
ENDBRANCH  23  24
ENDBRANCH  22  23
ENDBRANCH   1  22
TORSDOF 7
ENDMDL
MODEL 4
REMARK VINA RESULT:      -6.7      1.555      1.727
REMARK  Name = 
REMARK  10 active torsions:
REMARK  status: ('A' for Active; 'I' for Inactive)
REMARK    1  A    between atoms: C_1  and  C_2
REMARK    2  A    between atoms: C_2  and  C_3
REMARK    3  A    between atoms: C_3  and  C_4
REMARK    4  A    between atoms: C_4  and  C_5
REMARK    5  A    between atoms: C_5  and  C_6
REMARK    6  A    between atoms: C_6  and  C_7
REMARK    7  A    between atoms: C_7  and  N_8
REMARK    8  A    between atoms: N_8  and  C_9
REMARK    9  A    between atoms: N_17  and  C_18
REMARK   10  A    between atoms: C_21  and  C_22
REMARK                            x       y       z     vdW  Elec       q    Type
REMARK                         _______ _______ _______ _____ _____    ______ ____
ROOT
ATOM      1  C   UNL     1       5.100   5.852  17.912  0.00  0.00    +0.000 C 
ATOM      2  C   UNL     1       5.073   4.931  19.143  0.00  0.00    +0.000 C 
ATOM      3  C   UNL     1       3.670   4.549  19.519  0.00  0.00    +0.000 A 
ATOM      4  C   UNL     1       3.397   3.277  20.043  0.00  0.00    +0.000 A 
ATOM      5  C   UNL     1       2.103   2.937  20.429  0.00  0.00    +0.000 A 
ATOM      6  C   UNL     1       1.079   3.869  20.304  0.00  0.00    +0.000 A 
ATOM      7  C   UNL     1       1.352   5.144  19.803  0.00  0.00    +0.000 A 
ATOM      8  C   UNL     1       2.652   5.507  19.409  0.00  0.00    +0.000 A 
ATOM      9  N   UNL     1       2.963   6.785  18.848  0.00  0.00    +0.000 N 
ATOM     10  C   UNL     1       4.156   7.049  18.159  0.00  0.00    +0.000 C 
ATOM     11  O   UNL     1       4.433   8.157  17.690  0.00  0.00    +0.000 OA
ENDROOT
BRANCH   9  12
ATOM     12  C   UNL     1       2.026   7.844  19.033  0.00  0.00    +0.000 A 
ATOM     13  C   UNL     1       1.519   8.532  17.927  0.00  0.00    +0.000 A 
ATOM     14  C   UNL     1       0.582   9.555  18.100  0.00  0.00    +0.000 A 
ATOM     15  C   UNL     1       0.164   9.926  19.383  0.00  0.00    +0.000 A 
ATOM     16  C   UNL     1      -0.821  11.041  19.578  0.00  0.00    +0.000 C 
ATOM     17  C   UNL     1       0.699   9.261  20.493  0.00  0.00    +0.000 A 
ATOM     18  C   UNL     1       1.618   8.221  20.320  0.00  0.00    +0.000 A 
ENDBRANCH   9  12
BRANCH   1  19
ATOM     19  C   UNL     1       6.556   6.367  17.662  0.00  0.00    +0.000 C 
BRANCH  19  21
ATOM     20  C   UNL     1       8.100   4.388  17.878  0.00  0.00    +0.000 C 
ATOM     21  C   UNL     1       7.668   5.712  18.495  0.00  0.00    +0.000 C 
ENDBRANCH  19  21
ENDBRANCH   1  19
BRANCH   1  22
ATOM     22  C   UNL     1       4.587   5.133  16.610  0.00  0.00    +0.000 C 
BRANCH  22  23
ATOM     23  C   UNL     1       5.284   5.576  15.316  0.00  0.00    +0.000 C 
BRANCH  23  24
ATOM     24  C   UNL     1       6.221   4.518  14.727  0.00  0.00    +0.000 C 
BRANCH  24  25
ATOM     25  N   UNL     1       7.464   5.195  14.347  0.00  0.00    +0.000 NA
ATOM     26  C   UNL     1       7.725   5.110  12.920  0.00  0.00    +0.000 C 
ATOM     27  H   UNL     1       8.246   4.785  14.858  0.00  0.00    +0.000 HD
ENDBRANCH  24  25
ENDBRANCH  23  24
ENDBRANCH  22  23
ENDBRANCH   1  22
TORSDOF 7
ENDMDL
MODEL 5
REMARK VINA RESULT:      -6.6      2.143      2.840
REMARK  Name = 
REMARK  10 active torsions:
REMARK  status: ('A' for Active; 'I' for Inactive)
REMARK    1  A    between atoms: C_1  and  C_2
REMARK    2  A    between atoms: C_2  and  C_3
REMARK    3  A    between atoms: C_3  and  C_4
REMARK    4  A    between atoms: C_4  and  C_5
REMARK    5  A    between atoms: C_5  and  C_6
REMARK    6  A    between atoms: C_6  and  C_7
REMARK    7  A    between atoms: C_7  and  N_8
REMARK    8  A    between atoms: N_8  and  C_9
REMARK    9  A    between atoms: N_17  and  C_18
REMARK   10  A    between atoms: C_21  and  C_22
REMARK                            x       y       z     vdW  Elec       q    Type
REMARK                         _______ _______ _______ _____ _____    ______ ____
ROOT
ATOM      1  C   UNL     1       4.914   4.950  17.811  0.00  0.00    +0.000 C 
ATOM      2  C   UNL     1       5.126   4.328  19.201  0.00  0.00    +0.000 C 
ATOM      3  C   UNL     1       3.832   4.192  19.950  0.00  0.00    +0.000 A 
ATOM      4  C   UNL     1       3.620   3.101  20.807  0.00  0.00    +0.000 A 
ATOM      5  C   UNL     1       2.436   2.996  21.533  0.00  0.00    +0.000 A 
ATOM      6  C   UNL     1       1.465   3.984  21.415  0.00  0.00    +0.000 A 
ATOM      7  C   UNL     1       1.683   5.082  20.580  0.00  0.00    +0.000 A 
ATOM      8  C   UNL     1       2.872   5.207  19.839  0.00  0.00    +0.000 A 
ATOM      9  N   UNL     1       3.113   6.291  18.938  0.00  0.00    +0.000 N 
ATOM     10  C   UNL     1       4.123   6.268  17.966  0.00  0.00    +0.000 C 
ATOM     11  O   UNL     1       4.344   7.211  17.200  0.00  0.00    +0.000 OA
ENDROOT
BRANCH   9  12
ATOM     12  C   UNL     1       2.307   7.460  19.065  0.00  0.00    +0.000 A 
ATOM     13  C   UNL     1       1.944   8.188  17.928  0.00  0.00    +0.000 A 
ATOM     14  C   UNL     1       1.134   9.321  18.044  0.00  0.00    +0.000 A 
ATOM     15  C   UNL     1       0.701   9.761  19.300  0.00  0.00    +0.000 A 
ATOM     16  C   UNL     1      -0.146  10.992  19.434  0.00  0.00    +0.000 C 
ATOM     17  C   UNL     1       1.094   9.053  20.442  0.00  0.00    +0.000 A 
ATOM     18  C   UNL     1       1.885   7.905  20.326  0.00  0.00    +0.000 A 
ENDBRANCH   9  12
BRANCH   1  19
ATOM     19  C   UNL     1       6.297   5.239  17.138  0.00  0.00    +0.000 C 
BRANCH  19  21
ATOM     20  C   UNL     1       7.831   6.799  18.387  0.00  0.00    +0.000 C 
ATOM     21  C   UNL     1       7.509   5.343  18.077  0.00  0.00    +0.000 C 
ENDBRANCH  19  21
ENDBRANCH   1  19
BRANCH   1  22
ATOM     22  C   UNL     1       4.071   4.026  16.858  0.00  0.00    +0.000 C 
BRANCH  22  23
ATOM     23  C   UNL     1       4.282   2.520  17.073  0.00  0.00    +0.000 C 
BRANCH  23  24
ATOM     24  C   UNL     1       3.048   1.797  17.619  0.00  0.00    +0.000 C 
BRANCH  24  25
ATOM     25  N   UNL     1       1.921   2.730  17.537  0.00  0.00    +0.000 NA
ATOM     26  C   UNL     1       0.814   2.336  18.392  0.00  0.00    +0.000 C 
ATOM     27  H   UNL     1       1.597   2.791  16.572  0.00  0.00    +0.000 HD
ENDBRANCH  24  25
ENDBRANCH  23  24
ENDBRANCH  22  23
ENDBRANCH   1  22
TORSDOF 7
ENDMDL
MODEL 6
REMARK VINA RESULT:      -6.5      2.243      3.064
REMARK  Name = 
REMARK  10 active torsions:
REMARK  status: ('A' for Active; 'I' for Inactive)
REMARK    1  A    between atoms: C_1  and  C_2
REMARK    2  A    between atoms: C_2  and  C_3
REMARK    3  A    between atoms: C_3  and  C_4
REMARK    4  A    between atoms: C_4  and  C_5
REMARK    5  A    between atoms: C_5  and  C_6
REMARK    6  A    between atoms: C_6  and  C_7
REMARK    7  A    between atoms: C_7  and  N_8
REMARK    8  A    between atoms: N_8  and  C_9
REMARK    9  A    between atoms: N_17  and  C_18
REMARK   10  A    between atoms: C_21  and  C_22
REMARK                            x       y       z     vdW  Elec       q    Type
REMARK                         _______ _______ _______ _____ _____    ______ ____
ROOT
ATOM      1  C   UNL     1       5.053   5.336  17.812  0.00  0.00    +0.000 C 
ATOM      2  C   UNL     1       5.244   4.683  19.191  0.00  0.00    +0.000 C 
ATOM      3  C   UNL     1       3.932   4.450  19.881  0.00  0.00    +0.000 A 
ATOM      4  C   UNL     1       3.749   3.323  20.696  0.00  0.00    +0.000 A 
ATOM      5  C   UNL     1       2.544   3.128  21.368  0.00  0.00    +0.000 A 
ATOM      6  C   UNL     1       1.524   4.063  21.239  0.00  0.00    +0.000 A 
ATOM      7  C   UNL     1       1.711   5.198  20.446  0.00  0.00    +0.000 A 
ATOM      8  C   UNL     1       2.920   5.413  19.760  0.00  0.00    +0.000 A 
ATOM      9  N   UNL     1       3.133   6.537  18.902  0.00  0.00    +0.000 N 
ATOM     10  C   UNL     1       4.181   6.601  17.972  0.00  0.00    +0.000 C 
ATOM     11  O   UNL     1       4.378   7.579  17.244  0.00  0.00    +0.000 OA
ENDROOT
BRANCH   9  12
ATOM     12  C   UNL     1       2.257   7.654  19.029  0.00  0.00    +0.000 A 
ATOM     13  C   UNL     1       1.799   8.044  20.291  0.00  0.00    +0.000 A 
ATOM     14  C   UNL     1       0.959   9.153  20.426  0.00  0.00    +0.000 A 
ATOM     15  C   UNL     1       0.538   9.868  19.298  0.00  0.00    +0.000 A 
ATOM     16  C   UNL     1      -0.385  11.043  19.432  0.00  0.00    +0.000 C 
ATOM     17  C   UNL     1       0.968   9.455  18.031  0.00  0.00    +0.000 A 
ATOM     18  C   UNL     1       1.828   8.361  17.897  0.00  0.00    +0.000 A 
ENDBRANCH   9  12
BRANCH   1  19
ATOM     19  C   UNL     1       6.443   5.723  17.206  0.00  0.00    +0.000 C 
BRANCH  19  21
ATOM     20  C   UNL     1       7.843   7.730  17.806  0.00  0.00    +0.000 C 
ATOM     21  C   UNL     1       7.481   6.299  18.182  0.00  0.00    +0.000 C 
ENDBRANCH  19  21
ENDBRANCH   1  19
BRANCH   1  22
ATOM     22  C   UNL     1       4.303   4.396  16.798  0.00  0.00    +0.000 C 
BRANCH  22  23
ATOM     23  C   UNL     1       4.002   2.988  17.331  0.00  0.00    +0.000 C 
BRANCH  23  24
ATOM     24  C   UNL     1       2.586   2.499  17.015  0.00  0.00    +0.000 C 
BRANCH  24  25
ATOM     25  N   UNL     1       2.120   1.730  18.173  0.00  0.00    +0.000 NA
ATOM     26  C   UNL     1       0.768   2.090  18.567  0.00  0.00    +0.000 C 
ATOM     27  H   UNL     1       2.751   1.880  18.959  0.00  0.00    +0.000 HD
ENDBRANCH  24  25
ENDBRANCH  23  24
ENDBRANCH  22  23
ENDBRANCH   1  22
TORSDOF 7
ENDMDL
MODEL 7
REMARK VINA RESULT:      -6.4      4.501     10.350
REMARK  Name = 
REMARK  10 active torsions:
REMARK  status: ('A' for Active; 'I' for Inactive)
REMARK    1  A    between atoms: C_1  and  C_2
REMARK    2  A    between atoms: C_2  and  C_3
REMARK    3  A    between atoms: C_3  and  C_4
REMARK    4  A    between atoms: C_4  and  C_5
REMARK    5  A    between atoms: C_5  and  C_6
REMARK    6  A    between atoms: C_6  and  C_7
REMARK    7  A    between atoms: C_7  and  N_8
REMARK    8  A    between atoms: N_8  and  C_9
REMARK    9  A    between atoms: N_17  and  C_18
REMARK   10  A    between atoms: C_21  and  C_22
REMARK                            x       y       z     vdW  Elec       q    Type
REMARK                         _______ _______ _______ _____ _____    ______ ____
ROOT
ATOM      1  C   UNL     1      -0.851  12.486  21.360  0.00  0.00    +0.000 C 
ATOM      2  C   UNL     1      -1.647  13.016  20.156  0.00  0.00    +0.000 C 
ATOM      3  C   UNL     1      -2.178  11.898  19.306  0.00  0.00    +0.000 A 
ATOM      4  C   UNL     1      -3.420  12.020  18.667  0.00  0.00    +0.000 A 
ATOM      5  C   UNL     1      -3.893  10.999  17.846  0.00  0.00    +0.000 A 
ATOM      6  C   UNL     1      -3.124   9.858  17.652  0.00  0.00    +0.000 A 
ATOM      7  C   UNL     1      -1.876   9.743  18.269  0.00  0.00    +0.000 A 
ATOM      8  C   UNL     1      -1.380  10.763  19.100  0.00  0.00    +0.000 A 
ATOM      9  N   UNL     1      -0.130  10.663  19.788  0.00  0.00    +0.000 N 
ATOM     10  C   UNL     1       0.226  11.501  20.854  0.00  0.00    +0.000 C 
ATOM     11  O   UNL     1       1.313  11.427  21.436  0.00  0.00    +0.000 OA
ENDROOT
BRANCH   9  12
ATOM     12  C   UNL     1       0.806   9.686  19.337  0.00  0.00    +0.000 A 
ATOM     13  C   UNL     1       1.126   8.595  20.150  0.00  0.00    +0.000 A 
ATOM     14  C   UNL     1       2.024   7.621  19.704  0.00  0.00    +0.000 A 
ATOM     15  C   UNL     1       2.640   7.741  18.454  0.00  0.00    +0.000 A 
ATOM     16  C   UNL     1       3.626   6.715  17.980  0.00  0.00    +0.000 C 
ATOM     17  C   UNL     1       2.348   8.853  17.655  0.00  0.00    +0.000 A 
ATOM     18  C   UNL     1       1.431   9.816  18.088  0.00  0.00    +0.000 A 
ENDBRANCH   9  12
BRANCH   1  19
ATOM     19  C   UNL     1      -0.169  13.674  22.115  0.00  0.00    +0.000 C 
BRANCH  19  21
ATOM     20  C   UNL     1       1.479  15.057  20.804  0.00  0.00    +0.000 C 
ATOM     21  C   UNL     1       0.046  14.966  21.311  0.00  0.00    +0.000 C 
ENDBRANCH  19  21
ENDBRANCH   1  19
BRANCH   1  22
ATOM     22  C   UNL     1      -1.750  11.689  22.375  0.00  0.00    +0.000 C 
BRANCH  22  23
ATOM     23  C   UNL     1      -2.515  12.565  23.377  0.00  0.00    +0.000 C 
BRANCH  23  24
ATOM     24  C   UNL     1      -3.990  12.767  23.018  0.00  0.00    +0.000 C 
BRANCH  24  25
ATOM     25  N   UNL     1      -4.786  12.322  24.165  0.00  0.00    +0.000 NA
ATOM     26  C   UNL     1      -6.177  12.735  24.066  0.00  0.00    +0.000 C 
ATOM     27  H   UNL     1      -4.384  12.695  25.025  0.00  0.00    +0.000 HD
ENDBRANCH  24  25
ENDBRANCH  23  24
ENDBRANCH  22  23
ENDBRANCH   1  22
TORSDOF 7
ENDMDL
MODEL 8
REMARK VINA RESULT:      -6.3      4.449     10.109
REMARK  Name = 
REMARK  10 active torsions:
REMARK  status: ('A' for Active; 'I' for Inactive)
REMARK    1  A    between atoms: C_1  and  C_2
REMARK    2  A    between atoms: C_2  and  C_3
REMARK    3  A    between atoms: C_3  and  C_4
REMARK    4  A    between atoms: C_4  and  C_5
REMARK    5  A    between atoms: C_5  and  C_6
REMARK    6  A    between atoms: C_6  and  C_7
REMARK    7  A    between atoms: C_7  and  N_8
REMARK    8  A    between atoms: N_8  and  C_9
REMARK    9  A    between atoms: N_17  and  C_18
REMARK   10  A    between atoms: C_21  and  C_22
REMARK                            x       y       z     vdW  Elec       q    Type
REMARK                         _______ _______ _______ _____ _____    ______ ____
ROOT
ATOM      1  C   UNL     1      -0.740  12.594  21.165  0.00  0.00    +0.000 C 
ATOM      2  C   UNL     1      -1.535  13.066  19.937  0.00  0.00    +0.000 C 
ATOM      3  C   UNL     1      -2.094  11.909  19.160  0.00  0.00    +0.000 A 
ATOM      4  C   UNL     1      -3.338  12.017  18.522  0.00  0.00    +0.000 A 
ATOM      5  C   UNL     1      -3.838  10.958  17.768  0.00  0.00    +0.000 A 
ATOM      6  C   UNL     1      -3.092   9.792  17.638  0.00  0.00    +0.000 A 
ATOM      7  C   UNL     1      -1.842   9.690  18.253  0.00  0.00    +0.000 A 
ATOM      8  C   UNL     1      -1.320  10.749  19.018  0.00  0.00    +0.000 A 
ATOM      9  N   UNL     1      -0.067  10.665  19.702  0.00  0.00    +0.000 N 
ATOM     10  C   UNL     1       0.314  11.559  20.714  0.00  0.00    +0.000 C 
ATOM     11  O   UNL     1       1.403  11.499  21.292  0.00  0.00    +0.000 OA
ENDROOT
BRANCH   9  12
ATOM     12  C   UNL     1       0.846   9.645  19.306  0.00  0.00    +0.000 A 
ATOM     13  C   UNL     1       1.456   9.700  18.049  0.00  0.00    +0.000 A 
ATOM     14  C   UNL     1       2.371   8.716  17.664  0.00  0.00    +0.000 A 
ATOM     15  C   UNL     1       2.665   7.645  18.516  0.00  0.00    +0.000 A 
ATOM     16  C   UNL     1       3.625   6.571  18.099  0.00  0.00    +0.000 C 
ATOM     17  C   UNL     1       2.027   7.571  19.760  0.00  0.00    +0.000 A 
ATOM     18  C   UNL     1       1.130   8.567  20.158  0.00  0.00    +0.000 A 
ENDBRANCH   9  12
BRANCH   1  19
ATOM     19  C   UNL     1      -0.030  13.812  21.843  0.00  0.00    +0.000 C 
BRANCH  19  21
ATOM     20  C   UNL     1       1.620  15.069  20.413  0.00  0.00    +0.000 C 
ATOM     21  C   UNL     1       0.199  15.050  20.962  0.00  0.00    +0.000 C 
ENDBRANCH  19  21
ENDBRANCH   1  19
BRANCH   1  22
ATOM     22  C   UNL     1      -1.648  11.879  22.233  0.00  0.00    +0.000 C 
BRANCH  22  23
ATOM     23  C   UNL     1      -2.137  12.787  23.370  0.00  0.00    +0.000 C 
BRANCH  23  24
ATOM     24  C   UNL     1      -3.612  12.585  23.727  0.00  0.00    +0.000 C 
BRANCH  24  25
ATOM     25  N   UNL     1      -4.347  12.410  22.472  0.00  0.00    +0.000 NA
ATOM     26  C   UNL     1      -5.650  13.055  22.499  0.00  0.00    +0.000 C 
ATOM     27  H   UNL     1      -4.467  11.416  22.282  0.00  0.00    +0.000 HD
ENDBRANCH  24  25
ENDBRANCH  23  24
ENDBRANCH  22  23
ENDBRANCH   1  22
TORSDOF 7
ENDMDL
MODEL 9
REMARK VINA RESULT:      -6.1      2.097      3.055
REMARK  Name = 
REMARK  10 active torsions:
REMARK  status: ('A' for Active; 'I' for Inactive)
REMARK    1  A    between atoms: C_1  and  C_2
REMARK    2  A    between atoms: C_2  and  C_3
REMARK    3  A    between atoms: C_3  and  C_4
REMARK    4  A    between atoms: C_4  and  C_5
REMARK    5  A    between atoms: C_5  and  C_6
REMARK    6  A    between atoms: C_6  and  C_7
REMARK    7  A    between atoms: C_7  and  N_8
REMARK    8  A    between atoms: N_8  and  C_9
REMARK    9  A    between atoms: N_17  and  C_18
REMARK   10  A    between atoms: C_21  and  C_22
REMARK                            x       y       z     vdW  Elec       q    Type
REMARK                         _______ _______ _______ _____ _____    ______ ____
ROOT
ATOM      1  C   UNL     1       4.930   5.530  17.822  0.00  0.00    +0.000 C 
ATOM      2  C   UNL     1       5.089   4.835  19.184  0.00  0.00    +0.000 C 
ATOM      3  C   UNL     1       3.760   4.583  19.837  0.00  0.00    +0.000 A 
ATOM      4  C   UNL     1       3.557   3.432  20.613  0.00  0.00    +0.000 A 
ATOM      5  C   UNL     1       2.338   3.219  21.251  0.00  0.00    +0.000 A 
ATOM      6  C   UNL     1       1.322   4.159  21.127  0.00  0.00    +0.000 A 
ATOM      7  C   UNL     1       1.528   5.317  20.374  0.00  0.00    +0.000 A 
ATOM      8  C   UNL     1       2.753   5.551  19.723  0.00  0.00    +0.000 A 
ATOM      9  N   UNL     1       2.987   6.700  18.905  0.00  0.00    +0.000 N 
ATOM     10  C   UNL     1       4.056   6.791  18.001  0.00  0.00    +0.000 C 
ATOM     11  O   UNL     1       4.271   7.790  17.308  0.00  0.00    +0.000 OA
ENDROOT
BRANCH   9  12
ATOM     12  C   UNL     1       2.110   7.815  19.047  0.00  0.00    +0.000 A 
ATOM     13  C   UNL     1       1.721   8.242  20.320  0.00  0.00    +0.000 A 
ATOM     14  C   UNL     1       0.880   9.349  20.467  0.00  0.00    +0.000 A 
ATOM     15  C   UNL     1       0.390  10.024  19.343  0.00  0.00    +0.000 A 
ATOM     16  C   UNL     1      -0.535  11.196  19.493  0.00  0.00    +0.000 C 
ATOM     17  C   UNL     1       0.750   9.574  18.068  0.00  0.00    +0.000 A 
ATOM     18  C   UNL     1       1.611   8.481  17.919  0.00  0.00    +0.000 A 
ENDBRANCH   9  12
BRANCH   1  19
ATOM     19  C   UNL     1       6.333   5.932  17.260  0.00  0.00    +0.000 C 
BRANCH  19  21
ATOM     20  C   UNL     1       7.185   4.866  15.142  0.00  0.00    +0.000 C 
ATOM     21  C   UNL     1       7.184   4.801  16.664  0.00  0.00    +0.000 C 
ENDBRANCH  19  21
ENDBRANCH   1  19
BRANCH   1  22
ATOM     22  C   UNL     1       4.202   4.623  16.763  0.00  0.00    +0.000 C 
BRANCH  22  23
ATOM     23  C   UNL     1       4.022   3.159  17.188  0.00  0.00    +0.000 C 
BRANCH  23  24
ATOM     24  C   UNL     1       2.564   2.692  17.186  0.00  0.00    +0.000 C 
BRANCH  24  25
ATOM     25  N   UNL     1       2.478   1.519  18.061  0.00  0.00    +0.000 NA
ATOM     26  C   UNL     1       3.788   1.021  18.447  0.00  0.00    +0.000 C 
ATOM     27  H   UNL     1       1.961   0.778  17.589  0.00  0.00    +0.000 HD
ENDBRANCH  24  25
ENDBRANCH  23  24
ENDBRANCH  22  23
ENDBRANCH   1  22
TORSDOF 7
ENDMDL
