MODEL 1
REMARK VINA RESULT:      -6.9      0.000      0.000
REMARK  Name = 
REMARK  11 active torsions:
REMARK  status: ('A' for Active; 'I' for Inactive)
REMARK    1  A    between atoms: C_1  and  C_2
REMARK    2  A    between atoms: C_2  and  C_3
REMARK    3  A    between atoms: C_3  and  C_4
REMARK    4  A    between atoms: C_4  and  O_5
REMARK    5  A    between atoms: O_5  and  C_6
REMARK    6  A    between atoms: C_6  and  C_8
REMARK    7  A    between atoms: C_8  and  C_9
REMARK    8  A    between atoms: C_9  and  C_10
REMARK    9  A    between atoms: C_10  and  C_11
REMARK   10  A    between atoms: C_14  and  N_15
REMARK   11  A    between atoms: C_19  and  N_20
REMARK                            x       y       z     vdW  Elec       q    Type
REMARK                         _______ _______ _______ _____ _____    ______ ____
ROOT
ATOM      1  C   UNL     1       4.417   5.753  18.234  0.00  0.00    +0.000 A 
ATOM      2  C   UNL     1       3.013   5.636  18.239  0.00  0.00    +0.000 A 
ATOM      3  C   UNL     1       2.349   4.740  19.078  0.00  0.00    +0.000 A 
ATOM      4  C   UNL     1       3.091   3.909  19.918  0.00  0.00    +0.000 A 
ATOM      5  C   UNL     1       4.489   3.978  19.940  0.00  0.00    +0.000 A 
ATOM      6  C   UNL     1       5.141   4.892  19.095  0.00  0.00    +0.000 A 
ENDROOT
BRANCH   4   7
ATOM      7  N   UNL     1       2.380   2.940  20.756  0.00  0.00    +0.000 N 
ATOM      8  O   UNL     1       2.909   2.594  21.822  0.00  0.00    +0.000 OA
ATOM      9  O   UNL     1       1.282   2.532  20.350  0.00  0.00    +0.000 OA
ENDBRANCH   4   7
BRANCH   6  10
ATOM     10  N   UNL     1       6.600   4.909  19.121  0.00  0.00    +0.000 N 
ATOM     11  O   UNL     1       7.192   4.316  18.208  0.00  0.00    +0.000 OA
ATOM     12  O   UNL     1       7.135   5.492  20.072  0.00  0.00    +0.000 OA
ENDBRANCH   6  10
BRANCH   1  13
ATOM     13  C   UNL     1       5.106   6.794  17.369  0.00  0.00    +0.000 C 
BRANCH  13  14
ATOM     14  C   UNL     1       5.046   6.511  15.867  0.00  0.00    +0.000 C 
BRANCH  14  15
ATOM     15  C   UNL     1       5.256   5.047  15.523  0.00  0.00    +0.000 C 
BRANCH  15  16
ATOM     16  C   UNL     1       6.599   4.883  14.847  0.00  0.00    +0.000 C 
ATOM     17  O   UNL     1       7.578   5.590  15.018  0.00  0.00    +0.000 OA
BRANCH  16  18
ATOM     18  O   UNL     1       6.497   3.906  13.907  0.00  0.00    +0.000 OA
BRANCH  18  19
ATOM     19  C   UNL     1       7.285   4.175  12.748  0.00  0.00    +0.000 C 
BRANCH  19  20
ATOM     20  C   UNL     1       6.648   3.598  11.496  0.00  0.00    +0.000 C 
BRANCH  20  22
ATOM     21  C   UNL     1       4.164   3.245  11.313  0.00  0.00    +0.000 C 
ATOM     22  C   UNL     1       5.470   2.695  11.858  0.00  0.00    +0.000 C 
ENDBRANCH  20  22
ENDBRANCH  19  20
ENDBRANCH  18  19
ENDBRANCH  16  18
ENDBRANCH  15  16
ENDBRANCH  14  15
ENDBRANCH  13  14
ENDBRANCH   1  13
TORSDOF 10
ENDMDL
MODEL 2
REMARK VINA RESULT:      -6.9      2.432      3.022
REMARK  Name = 
REMARK  11 active torsions:
REMARK  status: ('A' for Active; 'I' for Inactive)
REMARK    1  A    between atoms: C_1  and  C_2
REMARK    2  A    between atoms: C_2  and  C_3
REMARK    3  A    between atoms: C_3  and  C_4
REMARK    4  A    between atoms: C_4  and  O_5
REMARK    5  A    between atoms: O_5  and  C_6
REMARK    6  A    between atoms: C_6  and  C_8
REMARK    7  A    between atoms: C_8  and  C_9
REMARK    8  A    between atoms: C_9  and  C_10
REMARK    9  A    between atoms: C_10  and  C_11
REMARK   10  A    between atoms: C_14  and  N_15
REMARK   11  A    between atoms: C_19  and  N_20
REMARK                            x       y       z     vdW  Elec       q    Type
REMARK                         _______ _______ _______ _____ _____    ______ ____
ROOT
ATOM      1  C   UNL     1       3.786   5.578  17.390  0.00  0.00    +0.000 A 
ATOM      2  C   UNL     1       4.069   4.232  17.087  0.00  0.00    +0.000 A 
ATOM      3  C   UNL     1       3.248   3.189  17.518  0.00  0.00    +0.000 A 
ATOM      4  C   UNL     1       2.128   3.476  18.298  0.00  0.00    +0.000 A 
ATOM      5  C   UNL     1       1.811   4.797  18.638  0.00  0.00    +0.000 A 
ATOM      6  C   UNL     1       2.644   5.836  18.189  0.00  0.00    +0.000 A 
ENDROOT
BRANCH   4   7
ATOM      7  N   UNL     1       1.304   2.365  18.784  0.00  0.00    +0.000 N 
ATOM      8  O   UNL     1       0.078   2.534  18.847  0.00  0.00    +0.000 OA
ATOM      9  O   UNL     1       1.887   1.315  19.092  0.00  0.00    +0.000 OA
ENDBRANCH   4   7
BRANCH   6  10
ATOM     10  N   UNL     1       2.301   7.195  18.592  0.00  0.00    +0.000 N 
ATOM     11  O   UNL     1       1.927   7.975  17.705  0.00  0.00    +0.000 OA
ATOM     12  O   UNL     1       2.440   7.473  19.790  0.00  0.00    +0.000 OA
ENDBRANCH   6  10
BRANCH   1  13
ATOM     13  C   UNL     1       4.653   6.697  16.839  0.00  0.00    +0.000 C 
BRANCH  13  14
ATOM     14  C   UNL     1       5.991   6.875  17.558  0.00  0.00    +0.000 C 
BRANCH  14  15
ATOM     15  C   UNL     1       7.176   6.368  16.755  0.00  0.00    +0.000 C 
BRANCH  15  16
ATOM     16  C   UNL     1       7.447   4.926  17.124  0.00  0.00    +0.000 C 
ATOM     17  O   UNL     1       7.556   4.485  18.255  0.00  0.00    +0.000 OA
BRANCH  16  18
ATOM     18  O   UNL     1       7.693   4.225  15.986  0.00  0.00    +0.000 OA
BRANCH  18  19
ATOM     19  C   UNL     1       7.130   4.842  14.829  0.00  0.00    +0.000 C 
BRANCH  19  20
ATOM     20  C   UNL     1       6.071   3.961  14.188  0.00  0.00    +0.000 C 
BRANCH  20  22
ATOM     21  C   UNL     1       5.180   3.205  11.960  0.00  0.00    +0.000 C 
ATOM     22  C   UNL     1       6.394   3.716  12.715  0.00  0.00    +0.000 C 
ENDBRANCH  20  22
ENDBRANCH  19  20
ENDBRANCH  18  19
ENDBRANCH  16  18
ENDBRANCH  15  16
ENDBRANCH  14  15
ENDBRANCH  13  14
ENDBRANCH   1  13
TORSDOF 10
ENDMDL
MODEL 3
REMARK VINA RESULT:      -6.8      2.442      6.728
REMARK  Name = 
REMARK  11 active torsions:
REMARK  status: ('A' for Active; 'I' for Inactive)
REMARK    1  A    between atoms: C_1  and  C_2
REMARK    2  A    between atoms: C_2  and  C_3
REMARK    3  A    between atoms: C_3  and  C_4
REMARK    4  A    between atoms: C_4  and  O_5
REMARK    5  A    between atoms: O_5  and  C_6
REMARK    6  A    between atoms: C_6  and  C_8
REMARK    7  A    between atoms: C_8  and  C_9
REMARK    8  A    between atoms: C_9  and  C_10
REMARK    9  A    between atoms: C_10  and  C_11
REMARK   10  A    between atoms: C_14  and  N_15
REMARK   11  A    between atoms: C_19  and  N_20
REMARK                            x       y       z     vdW  Elec       q    Type
REMARK                         _______ _______ _______ _____ _____    ______ ____
ROOT
ATOM      1  C   UNL     1       5.597   4.450  16.820  0.00  0.00    +0.000 A 
ATOM      2  C   UNL     1       4.917   4.112  15.633  0.00  0.00    +0.000 A 
ATOM      3  C   UNL     1       5.520   4.221  14.380  0.00  0.00    +0.000 A 
ATOM      4  C   UNL     1       6.823   4.709  14.286  0.00  0.00    +0.000 A 
ATOM      5  C   UNL     1       7.536   5.073  15.435  0.00  0.00    +0.000 A 
ATOM      6  C   UNL     1       6.917   4.947  16.690  0.00  0.00    +0.000 A 
ENDROOT
BRANCH   4   7
ATOM      7  N   UNL     1       7.423   4.865  12.958  0.00  0.00    +0.000 N 
ATOM      8  O   UNL     1       7.141   4.028  12.090  0.00  0.00    +0.000 OA
ATOM      9  O   UNL     1       8.171   5.838  12.781  0.00  0.00    +0.000 OA
ENDBRANCH   4   7
BRANCH   6  10
ATOM     10  N   UNL     1       7.679   5.369  17.861  0.00  0.00    +0.000 N 
ATOM     11  O   UNL     1       7.763   6.586  18.077  0.00  0.00    +0.000 OA
ATOM     12  O   UNL     1       8.209   4.476  18.533  0.00  0.00    +0.000 OA
ENDBRANCH   6  10
BRANCH   1  13
ATOM     13  C   UNL     1       4.943   4.243  18.175  0.00  0.00    +0.000 C 
BRANCH  13  14
ATOM     14  C   UNL     1       4.580   5.536  18.908  0.00  0.00    +0.000 C 
BRANCH  14  15
ATOM     15  C   UNL     1       3.197   6.057  18.558  0.00  0.00    +0.000 C 
BRANCH  15  16
ATOM     16  C   UNL     1       2.373   6.169  19.822  0.00  0.00    +0.000 C 
ATOM     17  O   UNL     1       1.867   7.188  20.259  0.00  0.00    +0.000 OA
BRANCH  16  18
ATOM     18  O   UNL     1       2.409   4.975  20.472  0.00  0.00    +0.000 OA
BRANCH  18  19
ATOM     19  C   UNL     1       1.125   4.360  20.560  0.00  0.00    +0.000 C 
BRANCH  19  20
ATOM     20  C   UNL     1       1.202   2.868  20.287  0.00  0.00    +0.000 C 
BRANCH  20  22
ATOM     21  C   UNL     1       2.114   2.263  18.021  0.00  0.00    +0.000 C 
ATOM     22  C   UNL     1       0.864   2.571  18.826  0.00  0.00    +0.000 C 
ENDBRANCH  20  22
ENDBRANCH  19  20
ENDBRANCH  18  19
ENDBRANCH  16  18
ENDBRANCH  15  16
ENDBRANCH  14  15
ENDBRANCH  13  14
ENDBRANCH   1  13
TORSDOF 10
ENDMDL
MODEL 4
REMARK VINA RESULT:      -6.7      2.409      6.890
REMARK  Name = 
REMARK  11 active torsions:
REMARK  status: ('A' for Active; 'I' for Inactive)
REMARK    1  A    between atoms: C_1  and  C_2
REMARK    2  A    between atoms: C_2  and  C_3
REMARK    3  A    between atoms: C_3  and  C_4
REMARK    4  A    between atoms: C_4  and  O_5
REMARK    5  A    between atoms: O_5  and  C_6
REMARK    6  A    between atoms: C_6  and  C_8
REMARK    7  A    between atoms: C_8  and  C_9
REMARK    8  A    between atoms: C_9  and  C_10
REMARK    9  A    between atoms: C_10  and  C_11
REMARK   10  A    between atoms: C_14  and  N_15
REMARK   11  A    between atoms: C_19  and  N_20
REMARK                            x       y       z     vdW  Elec       q    Type
REMARK                         _______ _______ _______ _____ _____    ______ ____
ROOT
ATOM      1  C   UNL     1       5.471   4.180  16.281  0.00  0.00    +0.000 A 
ATOM      2  C   UNL     1       5.058   3.893  14.965  0.00  0.00    +0.000 A 
ATOM      3  C   UNL     1       5.851   4.200  13.859  0.00  0.00    +0.000 A 
ATOM      4  C   UNL     1       7.078   4.837  14.049  0.00  0.00    +0.000 A 
ATOM      5  C   UNL     1       7.526   5.155  15.337  0.00  0.00    +0.000 A 
ATOM      6  C   UNL     1       6.719   4.832  16.440  0.00  0.00    +0.000 A 
ENDROOT
BRANCH   4   7
ATOM      7  N   UNL     1       7.875   5.196  12.873  0.00  0.00    +0.000 N 
ATOM      8  O   UNL     1       8.832   5.967  13.033  0.00  0.00    +0.000 OA
ATOM      9  O   UNL     1       7.548   4.695  11.788  0.00  0.00    +0.000 OA
ENDBRANCH   4   7
BRANCH   6  10
ATOM     10  N   UNL     1       7.204   5.211  17.763  0.00  0.00    +0.000 N 
ATOM     11  O   UNL     1       7.920   4.396  18.361  0.00  0.00    +0.000 OA
ATOM     12  O   UNL     1       6.837   6.310  18.199  0.00  0.00    +0.000 OA
ENDBRANCH   6  10
BRANCH   1  13
ATOM     13  C   UNL     1       4.623   3.761  17.469  0.00  0.00    +0.000 C 
BRANCH  13  14
ATOM     14  C   UNL     1       3.273   4.474  17.567  0.00  0.00    +0.000 C 
BRANCH  14  15
ATOM     15  C   UNL     1       3.385   5.908  18.052  0.00  0.00    +0.000 C 
BRANCH  15  16
ATOM     16  C   UNL     1       2.746   6.022  19.418  0.00  0.00    +0.000 C 
ATOM     17  O   UNL     1       2.329   7.047  19.932  0.00  0.00    +0.000 OA
BRANCH  16  18
ATOM     18  O   UNL     1       2.843   4.819  20.045  0.00  0.00    +0.000 OA
BRANCH  18  19
ATOM     19  C   UNL     1       1.858   4.651  21.064  0.00  0.00    +0.000 C 
BRANCH  19  20
ATOM     20  C   UNL     1       1.354   3.219  21.120  0.00  0.00    +0.000 C 
BRANCH  20  22
ATOM     21  C   UNL     1       0.689   2.256  18.893  0.00  0.00    +0.000 C 
ATOM     22  C   UNL     1       1.818   2.437  19.892  0.00  0.00    +0.000 C 
ENDBRANCH  20  22
ENDBRANCH  19  20
ENDBRANCH  18  19
ENDBRANCH  16  18
ENDBRANCH  15  16
ENDBRANCH  14  15
ENDBRANCH  13  14
ENDBRANCH   1  13
TORSDOF 10
ENDMDL
MODEL 5
REMARK VINA RESULT:      -6.7      2.330      6.816
REMARK  Name = 
REMARK  11 active torsions:
REMARK  status: ('A' for Active; 'I' for Inactive)
REMARK    1  A    between atoms: C_1  and  C_2
REMARK    2  A    between atoms: C_2  and  C_3
REMARK    3  A    between atoms: C_3  and  C_4
REMARK    4  A    between atoms: C_4  and  O_5
REMARK    5  A    between atoms: O_5  and  C_6
REMARK    6  A    between atoms: C_6  and  C_8
REMARK    7  A    between atoms: C_8  and  C_9
REMARK    8  A    between atoms: C_9  and  C_10
REMARK    9  A    between atoms: C_10  and  C_11
REMARK   10  A    between atoms: C_14  and  N_15
REMARK   11  A    between atoms: C_19  and  N_20
REMARK                            x       y       z     vdW  Elec       q    Type
REMARK                         _______ _______ _______ _____ _____    ______ ____
ROOT
ATOM      1  C   UNL     1       5.525   4.252  16.640  0.00  0.00    +0.000 A 
ATOM      2  C   UNL     1       5.039   3.908  15.363  0.00  0.00    +0.000 A 
ATOM      3  C   UNL     1       5.766   4.167  14.201  0.00  0.00    +0.000 A 
ATOM      4  C   UNL     1       6.999   4.813  14.293  0.00  0.00    +0.000 A 
ATOM      5  C   UNL     1       7.519   5.188  15.537  0.00  0.00    +0.000 A 
ATOM      6  C   UNL     1       6.778   4.912  16.699  0.00  0.00    +0.000 A 
ENDROOT
BRANCH   4   7
ATOM      7  N   UNL     1       7.726   5.121  13.059  0.00  0.00    +0.000 N 
ATOM      8  O   UNL     1       8.653   5.942  13.119  0.00  0.00    +0.000 OA
ATOM      9  O   UNL     1       7.376   4.530  12.027  0.00  0.00    +0.000 OA
ENDBRANCH   4   7
BRANCH   6  10
ATOM     10  N   UNL     1       7.337   5.349  17.973  0.00  0.00    +0.000 N 
ATOM     11  O   UNL     1       7.173   6.536  18.290  0.00  0.00    +0.000 OA
ATOM     12  O   UNL     1       7.960   4.505  18.629  0.00  0.00    +0.000 OA
ENDBRANCH   6  10
BRANCH   1  13
ATOM     13  C   UNL     1       4.748   3.885  17.892  0.00  0.00    +0.000 C 
BRANCH  13  14
ATOM     14  C   UNL     1       3.579   2.927  17.655  0.00  0.00    +0.000 C 
BRANCH  14  15
ATOM     15  C   UNL     1       3.185   2.144  18.895  0.00  0.00    +0.000 C 
BRANCH  15  16
ATOM     16  C   UNL     1       1.940   2.758  19.496  0.00  0.00    +0.000 C 
ATOM     17  O   UNL     1       0.793   2.542  19.144  0.00  0.00    +0.000 OA
BRANCH  16  18
ATOM     18  O   UNL     1       2.313   3.704  20.399  0.00  0.00    +0.000 OA
BRANCH  18  19
ATOM     19  C   UNL     1       1.520   4.887  20.314  0.00  0.00    +0.000 C 
BRANCH  19  20
ATOM     20  C   UNL     1       2.352   6.087  19.894  0.00  0.00    +0.000 C 
BRANCH  20  22
ATOM     21  C   UNL     1       3.133   7.464  17.938  0.00  0.00    +0.000 C 
ATOM     22  C   UNL     1       2.308   6.267  18.377  0.00  0.00    +0.000 C 
ENDBRANCH  20  22
ENDBRANCH  19  20
ENDBRANCH  18  19
ENDBRANCH  16  18
ENDBRANCH  15  16
ENDBRANCH  14  15
ENDBRANCH  13  14
ENDBRANCH   1  13
TORSDOF 10
ENDMDL
MODEL 6
REMARK VINA RESULT:      -6.6      2.455      6.300
REMARK  Name = 
REMARK  11 active torsions:
REMARK  status: ('A' for Active; 'I' for Inactive)
REMARK    1  A    between atoms: C_1  and  C_2
REMARK    2  A    between atoms: C_2  and  C_3
REMARK    3  A    between atoms: C_3  and  C_4
REMARK    4  A    between atoms: C_4  and  O_5
REMARK    5  A    between atoms: O_5  and  C_6
REMARK    6  A    between atoms: C_6  and  C_8
REMARK    7  A    between atoms: C_8  and  C_9
REMARK    8  A    between atoms: C_9  and  C_10
REMARK    9  A    between atoms: C_10  and  C_11
REMARK   10  A    between atoms: C_14  and  N_15
REMARK   11  A    between atoms: C_19  and  N_20
REMARK                            x       y       z     vdW  Elec       q    Type
REMARK                         _______ _______ _______ _____ _____    ______ ____
ROOT
ATOM      1  C   UNL     1       5.379   5.399  17.393  0.00  0.00    +0.000 A 
ATOM      2  C   UNL     1       4.648   4.802  16.347  0.00  0.00    +0.000 A 
ATOM      3  C   UNL     1       5.216   4.554  15.097  0.00  0.00    +0.000 A 
ATOM      4  C   UNL     1       6.536   4.933  14.856  0.00  0.00    +0.000 A 
ATOM      5  C   UNL     1       7.300   5.542  15.858  0.00  0.00    +0.000 A 
ATOM      6  C   UNL     1       6.716   5.777  17.115  0.00  0.00    +0.000 A 
ENDROOT
BRANCH   4   7
ATOM      7  N   UNL     1       7.101   4.711  13.522  0.00  0.00    +0.000 N 
ATOM      8  O   UNL     1       6.645   3.778  12.845  0.00  0.00    +0.000 OA
ATOM      9  O   UNL     1       7.996   5.481  13.146  0.00  0.00    +0.000 OA
ENDBRANCH   4   7
BRANCH   6  10
ATOM     10  N   UNL     1       7.533   6.445  18.122  0.00  0.00    +0.000 N 
ATOM     11  O   UNL     1       7.968   5.753  19.052  0.00  0.00    +0.000 OA
ATOM     12  O   UNL     1       7.703   7.663  17.984  0.00  0.00    +0.000 OA
ENDBRANCH   6  10
BRANCH   1  13
ATOM     13  C   UNL     1       4.760   5.582  18.767  0.00  0.00    +0.000 C 
BRANCH  13  14
ATOM     14  C   UNL     1       3.257   5.868  18.753  0.00  0.00    +0.000 C 
BRANCH  14  15
ATOM     15  C   UNL     1       2.602   5.704  20.113  0.00  0.00    +0.000 C 
BRANCH  15  16
ATOM     16  C   UNL     1       1.634   4.542  20.062  0.00  0.00    +0.000 C 
ATOM     17  O   UNL     1       1.191   3.936  21.022  0.00  0.00    +0.000 OA
BRANCH  16  18
ATOM     18  O   UNL     1       1.451   4.187  18.762  0.00  0.00    +0.000 OA
BRANCH  18  19
ATOM     19  C   UNL     1       1.411   2.772  18.580  0.00  0.00    +0.000 C 
BRANCH  19  20
ATOM     20  C   UNL     1       2.547   2.293  17.692  0.00  0.00    +0.000 C 
BRANCH  20  22
ATOM     21  C   UNL     1       4.186   2.152  19.596  0.00  0.00    +0.000 C 
ATOM     22  C   UNL     1       3.499   1.391  18.476  0.00  0.00    +0.000 C 
ENDBRANCH  20  22
ENDBRANCH  19  20
ENDBRANCH  18  19
ENDBRANCH  16  18
ENDBRANCH  15  16
ENDBRANCH  14  15
ENDBRANCH  13  14
ENDBRANCH   1  13
TORSDOF 10
ENDMDL
MODEL 7
REMARK VINA RESULT:      -6.5      2.440      6.501
REMARK  Name = 
REMARK  11 active torsions:
REMARK  status: ('A' for Active; 'I' for Inactive)
REMARK    1  A    between atoms: C_1  and  C_2
REMARK    2  A    between atoms: C_2  and  C_3
REMARK    3  A    between atoms: C_3  and  C_4
REMARK    4  A    between atoms: C_4  and  O_5
REMARK    5  A    between atoms: O_5  and  C_6
REMARK    6  A    between atoms: C_6  and  C_8
REMARK    7  A    between atoms: C_8  and  C_9
REMARK    8  A    between atoms: C_9  and  C_10
REMARK    9  A    between atoms: C_10  and  C_11
REMARK   10  A    between atoms: C_14  and  N_15
REMARK   11  A    between atoms: C_19  and  N_20
REMARK                            x       y       z     vdW  Elec       q    Type
REMARK                         _______ _______ _______ _____ _____    ______ ____
ROOT
ATOM      1  C   UNL     1       5.510   4.870  17.532  0.00  0.00    +0.000 A 
ATOM      2  C   UNL     1       4.769   4.459  16.406  0.00  0.00    +0.000 A 
ATOM      3  C   UNL     1       5.330   4.409  15.130  0.00  0.00    +0.000 A 
ATOM      4  C   UNL     1       6.656   4.805  14.948  0.00  0.00    +0.000 A 
ATOM      5  C   UNL     1       7.430   5.235  16.032  0.00  0.00    +0.000 A 
ATOM      6  C   UNL     1       6.851   5.271  17.312  0.00  0.00    +0.000 A 
ENDROOT
BRANCH   4   7
ATOM      7  N   UNL     1       7.214   4.793  13.593  0.00  0.00    +0.000 N 
ATOM      8  O   UNL     1       6.732   4.001  12.772  0.00  0.00    +0.000 OA
ATOM      9  O   UNL     1       8.132   5.590  13.348  0.00  0.00    +0.000 OA
ENDBRANCH   4   7
BRANCH   6  10
ATOM     10  N   UNL     1       7.678   5.758  18.411  0.00  0.00    +0.000 N 
ATOM     11  O   UNL     1       8.100   4.921  19.220  0.00  0.00    +0.000 OA
ATOM     12  O   UNL     1       7.871   6.979  18.466  0.00  0.00    +0.000 OA
ENDBRANCH   6  10
BRANCH   1  13
ATOM     13  C   UNL     1       4.895   4.838  18.920  0.00  0.00    +0.000 C 
BRANCH  13  14
ATOM     14  C   UNL     1       3.898   5.963  19.199  0.00  0.00    +0.000 C 
BRANCH  14  15
ATOM     15  C   UNL     1       2.454   5.560  18.954  0.00  0.00    +0.000 C 
BRANCH  15  16
ATOM     16  C   UNL     1       1.838   5.099  20.256  0.00  0.00    +0.000 C 
ATOM     17  O   UNL     1       2.248   5.360  21.374  0.00  0.00    +0.000 OA
BRANCH  16  18
ATOM     18  O   UNL     1       0.836   4.224  19.977  0.00  0.00    +0.000 OA
BRANCH  18  19
ATOM     19  C   UNL     1       1.026   2.955  20.601  0.00  0.00    +0.000 C 
BRANCH  19  20
ATOM     20  C   UNL     1       2.313   2.294  20.137  0.00  0.00    +0.000 C 
BRANCH  20  22
ATOM     21  C   UNL     1       3.583   1.495  18.117  0.00  0.00    +0.000 C 
ATOM     22  C   UNL     1       2.237   1.956  18.649  0.00  0.00    +0.000 C 
ENDBRANCH  20  22
ENDBRANCH  19  20
ENDBRANCH  18  19
ENDBRANCH  16  18
ENDBRANCH  15  16
ENDBRANCH  14  15
ENDBRANCH  13  14
ENDBRANCH   1  13
TORSDOF 10
ENDMDL
MODEL 8
REMARK VINA RESULT:      -6.5      2.407      6.961
REMARK  Name = 
REMARK  11 active torsions:
REMARK  status: ('A' for Active; 'I' for Inactive)
REMARK    1  A    between atoms: C_1  and  C_2
REMARK    2  A    between atoms: C_2  and  C_3
REMARK    3  A    between atoms: C_3  and  C_4
REMARK    4  A    between atoms: C_4  and  O_5
REMARK    5  A    between atoms: O_5  and  C_6
REMARK    6  A    between atoms: C_6  and  C_8
REMARK    7  A    between atoms: C_8  and  C_9
REMARK    8  A    between atoms: C_9  and  C_10
REMARK    9  A    between atoms: C_10  and  C_11
REMARK   10  A    between atoms: C_14  and  N_15
REMARK   11  A    between atoms: C_19  and  N_20
REMARK                            x       y       z     vdW  Elec       q    Type
REMARK                         _______ _______ _______ _____ _____    ______ ____
ROOT
ATOM      1  C   UNL     1       5.402   4.308  16.538  0.00  0.00    +0.000 A 
ATOM      2  C   UNL     1       4.897   3.987  15.262  0.00  0.00    +0.000 A 
ATOM      3  C   UNL     1       5.637   4.204  14.099  0.00  0.00    +0.000 A 
ATOM      4  C   UNL     1       6.902   4.784  14.189  0.00  0.00    +0.000 A 
ATOM      5  C   UNL     1       7.442   5.133  15.432  0.00  0.00    +0.000 A 
ATOM      6  C   UNL     1       6.688   4.900  16.595  0.00  0.00    +0.000 A 
ENDROOT
BRANCH   4   7
ATOM      7  N   UNL     1       7.645   5.050  12.954  0.00  0.00    +0.000 N 
ATOM      8  O   UNL     1       8.554   5.890  12.991  0.00  0.00    +0.000 OA
ATOM      9  O   UNL     1       7.323   4.405  11.945  0.00  0.00    +0.000 OA
ENDBRANCH   4   7
BRANCH   6  10
ATOM     10  N   UNL     1       7.270   5.310  17.868  0.00  0.00    +0.000 N 
ATOM     11  O   UNL     1       7.031   6.462  18.258  0.00  0.00    +0.000 OA
ATOM     12  O   UNL     1       7.984   4.483  18.447  0.00  0.00    +0.000 OA
ENDBRANCH   6  10
BRANCH   1  13
ATOM     13  C   UNL     1       4.607   3.986  17.791  0.00  0.00    +0.000 C 
BRANCH  13  14
ATOM     14  C   UNL     1       3.511   5.000  18.125  0.00  0.00    +0.000 C 
BRANCH  14  15
ATOM     15  C   UNL     1       2.141   4.594  17.610  0.00  0.00    +0.000 C 
BRANCH  15  16
ATOM     16  C   UNL     1       1.962   3.103  17.794  0.00  0.00    +0.000 C 
ATOM     17  O   UNL     1       2.371   2.234  17.044  0.00  0.00    +0.000 OA
BRANCH  16  18
ATOM     18  O   UNL     1       1.143   2.893  18.860  0.00  0.00    +0.000 OA
BRANCH  18  19
ATOM     19  C   UNL     1       1.793   2.197  19.922  0.00  0.00    +0.000 C 
BRANCH  19  20
ATOM     20  C   UNL     1       1.363   2.726  21.280  0.00  0.00    +0.000 C 
BRANCH  20  22
ATOM     21  C   UNL     1       1.753   5.204  21.083  0.00  0.00    +0.000 C 
ATOM     22  C   UNL     1       2.240   3.905  21.700  0.00  0.00    +0.000 C 
ENDBRANCH  20  22
ENDBRANCH  19  20
ENDBRANCH  18  19
ENDBRANCH  16  18
ENDBRANCH  15  16
ENDBRANCH  14  15
ENDBRANCH  13  14
ENDBRANCH   1  13
TORSDOF 10
ENDMDL
MODEL 9
REMARK VINA RESULT:      -6.5      1.811      2.468
REMARK  Name = 
REMARK  11 active torsions:
REMARK  status: ('A' for Active; 'I' for Inactive)
REMARK    1  A    between atoms: C_1  and  C_2
REMARK    2  A    between atoms: C_2  and  C_3
REMARK    3  A    between atoms: C_3  and  C_4
REMARK    4  A    between atoms: C_4  and  O_5
REMARK    5  A    between atoms: O_5  and  C_6
REMARK    6  A    between atoms: C_6  and  C_8
REMARK    7  A    between atoms: C_8  and  C_9
REMARK    8  A    between atoms: C_9  and  C_10
REMARK    9  A    between atoms: C_10  and  C_11
REMARK   10  A    between atoms: C_14  and  N_15
REMARK   11  A    between atoms: C_19  and  N_20
REMARK                            x       y       z     vdW  Elec       q    Type
REMARK                         _______ _______ _______ _____ _____    ______ ____
ROOT
ATOM      1  C   UNL     1       5.624   4.678  17.359  0.00  0.00    +0.000 A 
ATOM      2  C   UNL     1       4.308   4.262  17.078  0.00  0.00    +0.000 A 
ATOM      3  C   UNL     1       3.240   4.566  17.924  0.00  0.00    +0.000 A 
ATOM      4  C   UNL     1       3.478   5.277  19.101  0.00  0.00    +0.000 A 
ATOM      5  C   UNL     1       4.771   5.700  19.432  0.00  0.00    +0.000 A 
ATOM      6  C   UNL     1       5.833   5.393  18.564  0.00  0.00    +0.000 A 
ENDROOT
BRANCH   4   7
ATOM      7  N   UNL     1       2.354   5.544  20.001  0.00  0.00    +0.000 N 
ATOM      8  O   UNL     1       1.818   4.580  20.566  0.00  0.00    +0.000 OA
ATOM      9  O   UNL     1       2.014   6.727  20.153  0.00  0.00    +0.000 OA
ENDBRANCH   4   7
BRANCH   6  10
ATOM     10  N   UNL     1       7.170   5.821  18.961  0.00  0.00    +0.000 N 
ATOM     11  O   UNL     1       7.636   6.824  18.402  0.00  0.00    +0.000 OA
ATOM     12  O   UNL     1       7.750   5.129  19.807  0.00  0.00    +0.000 OA
ENDBRANCH   6  10
BRANCH   1  13
ATOM     13  C   UNL     1       6.751   4.402  16.380  0.00  0.00    +0.000 C 
BRANCH  13  14
ATOM     14  C   UNL     1       6.312   3.719  15.083  0.00  0.00    +0.000 C 
BRANCH  14  15
ATOM     15  C   UNL     1       6.273   4.662  13.893  0.00  0.00    +0.000 C 
BRANCH  15  16
ATOM     16  C   UNL     1       6.641   3.896  12.641  0.00  0.00    +0.000 C 
ATOM     17  O   UNL     1       7.326   4.312  11.722  0.00  0.00    +0.000 OA
BRANCH  16  18
ATOM     18  O   UNL     1       5.963   2.718  12.637  0.00  0.00    +0.000 OA
BRANCH  18  19
ATOM     19  C   UNL     1       5.212   2.520  11.440  0.00  0.00    +0.000 C 
BRANCH  19  20
ATOM     20  C   UNL     1       4.028   3.468  11.363  0.00  0.00    +0.000 C 
BRANCH  20  22
ATOM     21  C   UNL     1       2.759   4.452   9.426  0.00  0.00    +0.000 C 
ATOM     22  C   UNL     1       3.182   3.172  10.125  0.00  0.00    +0.000 C 
ENDBRANCH  20  22
ENDBRANCH  19  20
ENDBRANCH  18  19
ENDBRANCH  16  18
ENDBRANCH  15  16
ENDBRANCH  14  15
ENDBRANCH  13  14
ENDBRANCH   1  13
TORSDOF 10
ENDMDL
