MODEL 1
REMARK VINA RESULT:      -6.2      0.000      0.000
REMARK  Name = 
REMARK  4 active torsions:
REMARK  status: ('A' for Active; 'I' for Inactive)
REMARK    1  A    between atoms: C_1  and  C_2
REMARK    2  A    between atoms: C_2  and  C_3
REMARK    3  A    between atoms: C_6  and  C_7
REMARK    4  A    between atoms: N_8  and  O_9
REMARK                            x       y       z     vdW  Elec       q    Type
REMARK                         _______ _______ _______ _____ _____    ______ ____
ROOT
ATOM      1  C   UNL     1       1.769   9.761  18.391  0.00  0.00    +0.000 C 
ATOM      2  N   UNL     1       2.707  10.341  17.689  0.00  0.00    +0.000 NA
ATOM      3  N   UNL     1       2.066   8.462  18.888  0.00  0.00    +0.000 N 
ATOM      4  C   UNL     1       2.921   7.653  18.137  0.00  0.00    +0.000 A 
ATOM      5  C   UNL     1       3.261   6.402  18.470  0.00  0.00    +0.000 A 
ATOM      6  I   UNL     1       4.488   5.257  17.303  0.00  0.00    +0.000 I 
ATOM      7  C   UNL     1       2.697   5.842  19.720  0.00  0.00    +0.000 A 
ATOM      8  O   UNL     1       2.883   4.690  20.097  0.00  0.00    +0.000 OA
ATOM      9  N   UNL     1       1.926   6.704  20.448  0.00  0.00    +0.000 N 
ATOM     10  C   UNL     1       1.594   8.000  20.124  0.00  0.00    +0.000 A 
ATOM     11  O   UNL     1       0.960   8.653  20.947  0.00  0.00    +0.000 OA
ATOM     12  H   UNL     1       1.579   6.367  21.333  0.00  0.00    +0.000 HD
ENDROOT
BRANCH   1  16
ATOM     13  C   UNL     1      -2.127  11.495  19.172  0.00  0.00    +0.000 A 
ATOM     14  C   UNL     1      -1.000  11.921  19.882  0.00  0.00    +0.000 A 
ATOM     15  C   UNL     1       0.246  11.322  19.660  0.00  0.00    +0.000 A 
ATOM     16  C   UNL     1       0.400  10.326  18.681  0.00  0.00    +0.000 A 
ATOM     17  C   UNL     1      -0.737   9.884  17.995  0.00  0.00    +0.000 A 
ATOM     18  C   UNL     1      -1.992  10.451  18.250  0.00  0.00    +0.000 A 
BRANCH  13  20
ATOM     19  C   UNL     1      -4.467  11.711  18.317  0.00  0.00    +0.000 C 
ATOM     20  C   UNL     1      -3.450  12.200  19.341  0.00  0.00    +0.000 C 
ENDBRANCH  13  20
ENDBRANCH   1  16
BRANCH   2  21
ATOM     21  O   UNL     1       2.366  11.585  17.166  0.00  0.00    +0.000 OA
ATOM     22  H   UNL     1       1.606  11.369  16.592  0.00  0.00    +0.000 HD
ENDBRANCH   2  21
TORSDOF 3
ENDMDL
MODEL 2
REMARK VINA RESULT:      -6.1      0.536      1.200
REMARK  Name = 
REMARK  4 active torsions:
REMARK  status: ('A' for Active; 'I' for Inactive)
REMARK    1  A    between atoms: C_1  and  C_2
REMARK    2  A    between atoms: C_2  and  C_3
REMARK    3  A    between atoms: C_6  and  C_7
REMARK    4  A    between atoms: N_8  and  O_9
REMARK                            x       y       z     vdW  Elec       q    Type
REMARK                         _______ _______ _______ _____ _____    ______ ____
ROOT
ATOM      1  C   UNL     1       1.644   9.892  18.550  0.00  0.00    +0.000 C 
ATOM      2  N   UNL     1       2.606  10.306  17.768  0.00  0.00    +0.000 NA
ATOM      3  N   UNL     1       1.821   8.611  19.143  0.00  0.00    +0.000 N 
ATOM      4  C   UNL     1       2.548   7.655  18.431  0.00  0.00    +0.000 A 
ATOM      5  C   UNL     1       2.765   6.404  18.855  0.00  0.00    +0.000 A 
ATOM      6  I   UNL     1       3.805   5.040  17.744  0.00  0.00    +0.000 I 
ATOM      7  C   UNL     1       2.202   6.011  20.168  0.00  0.00    +0.000 A 
ATOM      8  O   UNL     1       2.280   4.879  20.633  0.00  0.00    +0.000 OA
ATOM      9  N   UNL     1       1.564   7.009  20.850  0.00  0.00    +0.000 N 
ATOM     10  C   UNL     1       1.359   8.305  20.431  0.00  0.00    +0.000 A 
ATOM     11  O   UNL     1       0.839   9.088  21.219  0.00  0.00    +0.000 OA
ATOM     12  H   UNL     1       1.223   6.784  21.772  0.00  0.00    +0.000 HD
ENDROOT
BRANCH   1  16
ATOM     13  C   UNL     1      -2.090  11.902  19.455  0.00  0.00    +0.000 A 
ATOM     14  C   UNL     1      -2.056  10.824  18.565  0.00  0.00    +0.000 A 
ATOM     15  C   UNL     1      -0.840  10.212  18.239  0.00  0.00    +0.000 A 
ATOM     16  C   UNL     1       0.359  10.627  18.843  0.00  0.00    +0.000 A 
ATOM     17  C   UNL     1       0.322  11.724  19.711  0.00  0.00    +0.000 A 
ATOM     18  C   UNL     1      -0.888  12.366  20.002  0.00  0.00    +0.000 A 
BRANCH  13  20
ATOM     19  C   UNL     1      -4.544  12.022  18.989  0.00  0.00    +0.000 C 
ATOM     20  C   UNL     1      -3.407  12.503  19.881  0.00  0.00    +0.000 C 
ENDBRANCH  13  20
ENDBRANCH   1  16
BRANCH   2  21
ATOM     21  O   UNL     1       2.377  11.535  17.156  0.00  0.00    +0.000 OA
ATOM     22  H   UNL     1       2.839  12.155  17.753  0.00  0.00    +0.000 HD
ENDBRANCH   2  21
TORSDOF 3
ENDMDL
MODEL 3
REMARK VINA RESULT:      -6.0      5.706      8.512
REMARK  Name = 
REMARK  4 active torsions:
REMARK  status: ('A' for Active; 'I' for Inactive)
REMARK    1  A    between atoms: C_1  and  C_2
REMARK    2  A    between atoms: C_2  and  C_3
REMARK    3  A    between atoms: C_6  and  C_7
REMARK    4  A    between atoms: N_8  and  O_9
REMARK                            x       y       z     vdW  Elec       q    Type
REMARK                         _______ _______ _______ _____ _____    ______ ____
ROOT
ATOM      1  C   UNL     1       5.861   4.594  18.011  0.00  0.00    +0.000 C 
ATOM      2  N   UNL     1       6.727   4.475  18.983  0.00  0.00    +0.000 NA
ATOM      3  N   UNL     1       4.490   4.621  18.388  0.00  0.00    +0.000 N 
ATOM      4  C   UNL     1       4.109   3.905  19.524  0.00  0.00    +0.000 A 
ATOM      5  C   UNL     1       2.851   3.819  19.974  0.00  0.00    +0.000 A 
ATOM      6  I   UNL     1       2.355   2.720  21.624  0.00  0.00    +0.000 I 
ATOM      7  C   UNL     1       1.797   4.536  19.220  0.00  0.00    +0.000 A 
ATOM      8  O   UNL     1       0.603   4.481  19.496  0.00  0.00    +0.000 OA
ATOM      9  N   UNL     1       2.240   5.277  18.160  0.00  0.00    +0.000 N 
ATOM     10  C   UNL     1       3.535   5.390  17.708  0.00  0.00    +0.000 A 
ATOM     11  O   UNL     1       3.757   6.174  16.791  0.00  0.00    +0.000 OA
ATOM     12  H   UNL     1       1.551   5.822  17.666  0.00  0.00    +0.000 HD
ENDROOT
BRANCH   1  16
ATOM     13  C   UNL     1       6.913   4.765  13.808  0.00  0.00    +0.000 A 
ATOM     14  C   UNL     1       7.340   5.760  14.692  0.00  0.00    +0.000 A 
ATOM     15  C   UNL     1       6.955   5.726  16.038  0.00  0.00    +0.000 A 
ATOM     16  C   UNL     1       6.185   4.662  16.538  0.00  0.00    +0.000 A 
ATOM     17  C   UNL     1       5.738   3.685  15.642  0.00  0.00    +0.000 A 
ATOM     18  C   UNL     1       6.084   3.744  14.287  0.00  0.00    +0.000 A 
BRANCH  13  20
ATOM     19  C   UNL     1       6.988   3.462  11.675  0.00  0.00    +0.000 C 
ATOM     20  C   UNL     1       7.401   4.747  12.381  0.00  0.00    +0.000 C 
ENDBRANCH  13  20
ENDBRANCH   1  16
BRANCH   2  21
ATOM     21  O   UNL     1       8.056   4.392  18.580  0.00  0.00    +0.000 OA
ATOM     22  H   UNL     1       7.999   4.596  17.626  0.00  0.00    +0.000 HD
ENDBRANCH   2  21
TORSDOF 3
ENDMDL
MODEL 4
REMARK VINA RESULT:      -6.0      5.875      8.484
REMARK  Name = 
REMARK  4 active torsions:
REMARK  status: ('A' for Active; 'I' for Inactive)
REMARK    1  A    between atoms: C_1  and  C_2
REMARK    2  A    between atoms: C_2  and  C_3
REMARK    3  A    between atoms: C_6  and  C_7
REMARK    4  A    between atoms: N_8  and  O_9
REMARK                            x       y       z     vdW  Elec       q    Type
REMARK                         _______ _______ _______ _____ _____    ______ ____
ROOT
ATOM      1  C   UNL     1       5.814   4.705  18.291  0.00  0.00    +0.000 C 
ATOM      2  N   UNL     1       6.593   4.737  19.340  0.00  0.00    +0.000 NA
ATOM      3  N   UNL     1       4.418   4.605  18.546  0.00  0.00    +0.000 N 
ATOM      4  C   UNL     1       4.009   3.917  19.689  0.00  0.00    +0.000 A 
ATOM      5  C   UNL     1       2.731   3.720  20.034  0.00  0.00    +0.000 A 
ATOM      6  I   UNL     1       2.199   2.667  21.704  0.00  0.00    +0.000 I 
ATOM      7  C   UNL     1       1.682   4.274  19.146  0.00  0.00    +0.000 A 
ATOM      8  O   UNL     1       0.480   4.106  19.321  0.00  0.00    +0.000 OA
ATOM      9  N   UNL     1       2.143   4.998  18.083  0.00  0.00    +0.000 N 
ATOM     10  C   UNL     1       3.456   5.226  17.737  0.00  0.00    +0.000 A 
ATOM     11  O   UNL     1       3.680   5.977  16.793  0.00  0.00    +0.000 OA
ATOM     12  H   UNL     1       1.450   5.437  17.497  0.00  0.00    +0.000 HD
ENDROOT
BRANCH   1  16
ATOM     13  C   UNL     1       6.983   4.778  14.116  0.00  0.00    +0.000 A 
ATOM     14  C   UNL     1       6.275   3.692  14.642  0.00  0.00    +0.000 A 
ATOM     15  C   UNL     1       5.944   3.652  16.001  0.00  0.00    +0.000 A 
ATOM     16  C   UNL     1       6.263   4.726  16.850  0.00  0.00    +0.000 A 
ATOM     17  C   UNL     1       6.996   5.796  16.325  0.00  0.00    +0.000 A 
ATOM     18  C   UNL     1       7.367   5.815  14.975  0.00  0.00    +0.000 A 
BRANCH  13  20
ATOM     19  C   UNL     1       6.745   3.635  11.905  0.00  0.00    +0.000 C 
ATOM     20  C   UNL     1       7.259   4.869  12.636  0.00  0.00    +0.000 C 
ENDBRANCH  13  20
ENDBRANCH   1  16
BRANCH   2  21
ATOM     21  O   UNL     1       7.955   4.775  19.059  0.00  0.00    +0.000 OA
ATOM     22  H   UNL     1       8.349   4.891  19.946  0.00  0.00    +0.000 HD
ENDBRANCH   2  21
TORSDOF 3
ENDMDL
MODEL 5
REMARK VINA RESULT:      -6.0      4.434      6.029
REMARK  Name = 
REMARK  4 active torsions:
REMARK  status: ('A' for Active; 'I' for Inactive)
REMARK    1  A    between atoms: C_1  and  C_2
REMARK    2  A    between atoms: C_2  and  C_3
REMARK    3  A    between atoms: C_6  and  C_7
REMARK    4  A    between atoms: N_8  and  O_9
REMARK                            x       y       z     vdW  Elec       q    Type
REMARK                         _______ _______ _______ _____ _____    ______ ____
ROOT
ATOM      1  C   UNL     1       1.090  12.572  20.185  0.00  0.00    +0.000 C 
ATOM      2  N   UNL     1       1.077  12.638  21.491  0.00  0.00    +0.000 NA
ATOM      3  N   UNL     1       2.136  13.278  19.530  0.00  0.00    +0.000 N 
ATOM      4  C   UNL     1       2.622  14.438  20.135  0.00  0.00    +0.000 A 
ATOM      5  C   UNL     1       3.580  15.215  19.615  0.00  0.00    +0.000 A 
ATOM      6  I   UNL     1       4.219  16.925  20.535  0.00  0.00    +0.000 I 
ATOM      7  C   UNL     1       4.166  14.813  18.315  0.00  0.00    +0.000 A 
ATOM      8  O   UNL     1       5.003  15.474  17.710  0.00  0.00    +0.000 OA
ATOM      9  N   UNL     1       3.702  13.632  17.807  0.00  0.00    +0.000 N 
ATOM     10  C   UNL     1       2.736  12.815  18.350  0.00  0.00    +0.000 A 
ATOM     11  O   UNL     1       2.509  11.745  17.794  0.00  0.00    +0.000 OA
ATOM     12  H   UNL     1       4.128  13.305  16.954  0.00  0.00    +0.000 HD
ENDROOT
BRANCH   1  16
ATOM     13  C   UNL     1      -1.751  10.558  17.602  0.00  0.00    +0.000 A 
ATOM     14  C   UNL     1      -1.757  11.951  17.722  0.00  0.00    +0.000 A 
ATOM     15  C   UNL     1      -0.870  12.591  18.596  0.00  0.00    +0.000 A 
ATOM     16  C   UNL     1       0.081  11.855  19.322  0.00  0.00    +0.000 A 
ATOM     17  C   UNL     1       0.063  10.459  19.219  0.00  0.00    +0.000 A 
ATOM     18  C   UNL     1      -0.855   9.816  18.380  0.00  0.00    +0.000 A 
BRANCH  13  20
ATOM     19  C   UNL     1      -2.975  10.802  15.435  0.00  0.00    +0.000 C 
ATOM     20  C   UNL     1      -2.639   9.872  16.593  0.00  0.00    +0.000 C 
ENDBRANCH  13  20
ENDBRANCH   1  16
BRANCH   2  21
ATOM     21  O   UNL     1       0.008  11.987  22.101  0.00  0.00    +0.000 OA
ATOM     22  H   UNL     1      -0.645  11.932  21.377  0.00  0.00    +0.000 HD
ENDBRANCH   2  21
TORSDOF 3
ENDMDL
MODEL 6
REMARK VINA RESULT:      -5.9      3.991      6.620
REMARK  Name = 
REMARK  4 active torsions:
REMARK  status: ('A' for Active; 'I' for Inactive)
REMARK    1  A    between atoms: C_1  and  C_2
REMARK    2  A    between atoms: C_2  and  C_3
REMARK    3  A    between atoms: C_6  and  C_7
REMARK    4  A    between atoms: N_8  and  O_9
REMARK                            x       y       z     vdW  Elec       q    Type
REMARK                         _______ _______ _______ _____ _____    ______ ____
ROOT
ATOM      1  C   UNL     1      -0.047  11.399  19.275  0.00  0.00    +0.000 C 
ATOM      2  N   UNL     1       0.376  12.586  19.620  0.00  0.00    +0.000 NA
ATOM      3  N   UNL     1      -1.427  11.293  18.945  0.00  0.00    +0.000 N 
ATOM      4  C   UNL     1      -2.321  12.148  19.592  0.00  0.00    +0.000 A 
ATOM      5  C   UNL     1      -3.647  12.136  19.401  0.00  0.00    +0.000 A 
ATOM      6  I   UNL     1      -4.906  13.390  20.412  0.00  0.00    +0.000 I 
ATOM      7  C   UNL     1      -4.198  11.156  18.438  0.00  0.00    +0.000 A 
ATOM      8  O   UNL     1      -5.397  11.007  18.225  0.00  0.00    +0.000 OA
ATOM      9  N   UNL     1      -3.269  10.397  17.783  0.00  0.00    +0.000 N 
ATOM     10  C   UNL     1      -1.903  10.422  17.955  0.00  0.00    +0.000 A 
ATOM     11  O   UNL     1      -1.217   9.726  17.213  0.00  0.00    +0.000 OA
ATOM     12  H   UNL     1      -3.613   9.763  17.078  0.00  0.00    +0.000 HD
ENDROOT
BRANCH   1  16
ATOM     13  C   UNL     1       2.224   7.707  19.154  0.00  0.00    +0.000 A 
ATOM     14  C   UNL     1       1.487   8.056  20.290  0.00  0.00    +0.000 A 
ATOM     15  C   UNL     1       0.796   9.272  20.341  0.00  0.00    +0.000 A 
ATOM     16  C   UNL     1       0.781  10.138  19.234  0.00  0.00    +0.000 A 
ATOM     17  C   UNL     1       1.544   9.796  18.112  0.00  0.00    +0.000 A 
ATOM     18  C   UNL     1       2.272   8.601  18.078  0.00  0.00    +0.000 A 
BRANCH  13  20
ATOM     19  C   UNL     1       2.331   5.393  20.095  0.00  0.00    +0.000 C 
ATOM     20  C   UNL     1       2.892   6.358  19.058  0.00  0.00    +0.000 C 
ENDBRANCH  13  20
ENDBRANCH   1  16
BRANCH   2  21
ATOM     21  O   UNL     1       1.716  12.647  19.994  0.00  0.00    +0.000 OA
ATOM     22  H   UNL     1       2.043  11.761  19.743  0.00  0.00    +0.000 HD
ENDBRANCH   2  21
TORSDOF 3
ENDMDL
MODEL 7
REMARK VINA RESULT:      -5.9      4.469      6.081
REMARK  Name = 
REMARK  4 active torsions:
REMARK  status: ('A' for Active; 'I' for Inactive)
REMARK    1  A    between atoms: C_1  and  C_2
REMARK    2  A    between atoms: C_2  and  C_3
REMARK    3  A    between atoms: C_6  and  C_7
REMARK    4  A    between atoms: N_8  and  O_9
REMARK                            x       y       z     vdW  Elec       q    Type
REMARK                         _______ _______ _______ _____ _____    ______ ____
ROOT
ATOM      1  C   UNL     1       1.089  12.640  20.190  0.00  0.00    +0.000 C 
ATOM      2  N   UNL     1       1.058  12.707  21.495  0.00  0.00    +0.000 NA
ATOM      3  N   UNL     1       2.144  13.345  19.548  0.00  0.00    +0.000 N 
ATOM      4  C   UNL     1       2.623  14.505  20.159  0.00  0.00    +0.000 A 
ATOM      5  C   UNL     1       3.589  15.281  19.651  0.00  0.00    +0.000 A 
ATOM      6  I   UNL     1       4.217  16.991  20.579  0.00  0.00    +0.000 I 
ATOM      7  C   UNL     1       4.191  14.878  18.360  0.00  0.00    +0.000 A 
ATOM      8  O   UNL     1       5.037  15.538  17.765  0.00  0.00    +0.000 OA
ATOM      9  N   UNL     1       3.733  13.697  17.846  0.00  0.00    +0.000 N 
ATOM     10  C   UNL     1       2.759  12.881  18.377  0.00  0.00    +0.000 A 
ATOM     11  O   UNL     1       2.539  11.811  17.819  0.00  0.00    +0.000 OA
ATOM     12  H   UNL     1       4.170  13.369  16.999  0.00  0.00    +0.000 HD
ENDROOT
BRANCH   1  16
ATOM     13  C   UNL     1      -1.839  10.538  17.779  0.00  0.00    +0.000 A 
ATOM     14  C   UNL     1      -0.894   9.833  18.532  0.00  0.00    +0.000 A 
ATOM     15  C   UNL     1       0.080  10.518  19.268  0.00  0.00    +0.000 A 
ATOM     16  C   UNL     1       0.091  11.923  19.314  0.00  0.00    +0.000 A 
ATOM     17  C   UNL     1      -0.840  12.622  18.536  0.00  0.00    +0.000 A 
ATOM     18  C   UNL     1      -1.784  11.937  17.763  0.00  0.00    +0.000 A 
BRANCH  13  20
ATOM     19  C   UNL     1      -2.878  10.049  15.558  0.00  0.00    +0.000 C 
ATOM     20  C   UNL     1      -2.945   9.807  17.060  0.00  0.00    +0.000 C 
ENDBRANCH  13  20
ENDBRANCH   1  16
BRANCH   2  21
ATOM     21  O   UNL     1      -0.019  12.057  22.092  0.00  0.00    +0.000 OA
ATOM     22  H   UNL     1      -0.654  11.984  21.353  0.00  0.00    +0.000 HD
ENDBRANCH   2  21
TORSDOF 3
ENDMDL
MODEL 8
REMARK VINA RESULT:      -5.7      4.033      6.735
REMARK  Name = 
REMARK  4 active torsions:
REMARK  status: ('A' for Active; 'I' for Inactive)
REMARK    1  A    between atoms: C_1  and  C_2
REMARK    2  A    between atoms: C_2  and  C_3
REMARK    3  A    between atoms: C_6  and  C_7
REMARK    4  A    between atoms: N_8  and  O_9
REMARK                            x       y       z     vdW  Elec       q    Type
REMARK                         _______ _______ _______ _____ _____    ______ ____
ROOT
ATOM      1  C   UNL     1      -0.134  11.382  19.155  0.00  0.00    +0.000 C 
ATOM      2  N   UNL     1       0.333  12.562  19.469  0.00  0.00    +0.000 NA
ATOM      3  N   UNL     1      -1.527  11.309  18.880  0.00  0.00    +0.000 N 
ATOM      4  C   UNL     1      -2.374  12.194  19.550  0.00  0.00    +0.000 A 
ATOM      5  C   UNL     1      -3.705  12.214  19.412  0.00  0.00    +0.000 A 
ATOM      6  I   UNL     1      -4.892  13.512  20.455  0.00  0.00    +0.000 I 
ATOM      7  C   UNL     1      -4.318  11.238  18.482  0.00  0.00    +0.000 A 
ATOM      8  O   UNL     1      -5.528  11.117  18.318  0.00  0.00    +0.000 OA
ATOM      9  N   UNL     1      -3.435  10.447  17.802  0.00  0.00    +0.000 N 
ATOM     10  C   UNL     1      -2.063  10.439  17.921  0.00  0.00    +0.000 A 
ATOM     11  O   UNL     1      -1.425   9.717  17.161  0.00  0.00    +0.000 OA
ATOM     12  H   UNL     1      -3.823   9.815  17.118  0.00  0.00    +0.000 HD
ENDROOT
BRANCH   1  16
ATOM     13  C   UNL     1       2.255   7.768  18.991  0.00  0.00    +0.000 A 
ATOM     14  C   UNL     1       2.195   8.634  17.895  0.00  0.00    +0.000 A 
ATOM     15  C   UNL     1       1.382   9.774  17.937  0.00  0.00    +0.000 A 
ATOM     16  C   UNL     1       0.660  10.100  19.097  0.00  0.00    +0.000 A 
ATOM     17  C   UNL     1       0.703   9.214  20.179  0.00  0.00    +0.000 A 
ATOM     18  C   UNL     1       1.479   8.050  20.121  0.00  0.00    +0.000 A 
BRANCH  13  20
ATOM     19  C   UNL     1       3.840   6.407  17.615  0.00  0.00    +0.000 C 
ATOM     20  C   UNL     1       3.200   6.591  18.986  0.00  0.00    +0.000 C 
ENDBRANCH  13  20
ENDBRANCH   1  16
BRANCH   2  21
ATOM     21  O   UNL     1       1.687  12.592  19.790  0.00  0.00    +0.000 OA
ATOM     22  H   UNL     1       1.816  11.732  20.235  0.00  0.00    +0.000 HD
ENDBRANCH   2  21
TORSDOF 3
ENDMDL
MODEL 9
REMARK VINA RESULT:      -5.6      5.597      8.759
REMARK  Name = 
REMARK  4 active torsions:
REMARK  status: ('A' for Active; 'I' for Inactive)
REMARK    1  A    between atoms: C_1  and  C_2
REMARK    2  A    between atoms: C_2  and  C_3
REMARK    3  A    between atoms: C_6  and  C_7
REMARK    4  A    between atoms: N_8  and  O_9
REMARK                            x       y       z     vdW  Elec       q    Type
REMARK                         _______ _______ _______ _____ _____    ______ ____
ROOT
ATOM      1  C   UNL     1       6.257   4.476  17.589  0.00  0.00    +0.000 C 
ATOM      2  N   UNL     1       7.118   4.242  18.544  0.00  0.00    +0.000 NA
ATOM      3  N   UNL     1       4.906   4.670  17.992  0.00  0.00    +0.000 N 
ATOM      4  C   UNL     1       4.460   3.996  19.130  0.00  0.00    +0.000 A 
ATOM      5  C   UNL     1       3.209   4.063  19.603  0.00  0.00    +0.000 A 
ATOM      6  I   UNL     1       2.609   3.018  21.255  0.00  0.00    +0.000 I 
ATOM      7  C   UNL     1       2.239   4.912  18.874  0.00  0.00    +0.000 A 
ATOM      8  O   UNL     1       1.052   5.004  19.172  0.00  0.00    +0.000 OA
ATOM      9  N   UNL     1       2.751   5.602  17.812  0.00  0.00    +0.000 N 
ATOM     10  C   UNL     1       4.043   5.558  17.336  0.00  0.00    +0.000 A 
ATOM     11  O   UNL     1       4.344   6.317  16.420  0.00  0.00    +0.000 OA
ATOM     12  H   UNL     1       2.127   6.234  17.335  0.00  0.00    +0.000 HD
ENDROOT
BRANCH   1  16
ATOM     13  C   UNL     1       7.006   4.633  13.321  0.00  0.00    +0.000 A 
ATOM     14  C   UNL     1       6.163   3.658  13.863  0.00  0.00    +0.000 A 
ATOM     15  C   UNL     1       5.965   3.582  15.247  0.00  0.00    +0.000 A 
ATOM     16  C   UNL     1       6.560   4.517  16.111  0.00  0.00    +0.000 A 
ATOM     17  C   UNL     1       7.424   5.472  15.565  0.00  0.00    +0.000 A 
ATOM     18  C   UNL     1       7.659   5.520  14.186  0.00  0.00    +0.000 A 
BRANCH  13  20
ATOM     19  C   UNL     1       7.820   6.097  11.464  0.00  0.00    +0.000 C 
ATOM     20  C   UNL     1       7.149   4.778  11.826  0.00  0.00    +0.000 C 
ENDBRANCH  13  20
ENDBRANCH   1  16
BRANCH   2  21
ATOM     21  O   UNL     1       8.419   3.998  18.115  0.00  0.00    +0.000 OA
ATOM     22  H   UNL     1       8.789   4.899  18.046  0.00  0.00    +0.000 HD
ENDBRANCH   2  21
TORSDOF 3
ENDMDL
