MODEL 1
REMARK VINA RESULT:      -7.0      0.000      0.000
REMARK  Name = 
REMARK  6 active torsions:
REMARK  status: ('A' for Active; 'I' for Inactive)
REMARK    1  A    between atoms: C_1  and  N_2
REMARK    2  A    between atoms: N_2  and  C_3
REMARK    3  A    between atoms: N_6  and  C_7
REMARK    4  A    between atoms: C_7  and  C_8
REMARK    5  A    between atoms: N_16  and  C_17
REMARK    6  A    between atoms: C_17  and  C_18
REMARK                            x       y       z     vdW  Elec       q    Type
REMARK                         _______ _______ _______ _____ _____    ______ ____
ROOT
ATOM      1  C   UNL     1       0.880   9.780  18.793  0.00  0.00    +0.000 A 
ATOM      2  C   UNL     1       1.779   9.110  17.930  0.00  0.00    +0.000 A 
ATOM      3  C   UNL     1       2.252   8.019  18.645  0.00  0.00    +0.000 A 
ATOM      4  N   UNL     1       1.625   8.104  19.863  0.00  0.00    +0.000 N 
ATOM      5  N   UNL     1       0.767   9.141  19.962  0.00  0.00    +0.000 NA
ATOM      6  C   UNL     1       1.752   7.228  21.002  0.00  0.00    +0.000 C 
ATOM      7  C   UNL     1       1.894   5.744  20.713  0.00  0.00    +0.000 C 
ATOM      8  C   UNL     1       1.710   5.321  19.259  0.00  0.00    +0.000 C 
ATOM      9  N   UNL     1       2.926   5.563  18.484  0.00  0.00    +0.000 NA
ATOM     10  C   UNL     1       3.277   6.987  18.287  0.00  0.00    +0.000 C 
ENDROOT
BRANCH   1  11
ATOM     11  C   UNL     1       0.084  11.019  18.538  0.00  0.00    +0.000 C 
BRANCH  11  17
ATOM     12  C   UNL     1      -4.404  11.483  16.761  0.00  0.00    +0.000 C 
ATOM     13  N   UNL     1      -3.051  10.979  16.623  0.00  0.00    +0.000 N 
ATOM     14  C   UNL     1      -2.754  10.079  15.527  0.00  0.00    +0.000 C 
ATOM     15  C   UNL     1      -2.181  11.263  17.665  0.00  0.00    +0.000 C 
ATOM     16  O   UNL     1      -2.519  11.914  18.652  0.00  0.00    +0.000 OA
ATOM     17  N   UNL     1      -0.925  10.734  17.537  0.00  0.00    +0.000 N 
ATOM     18  H   UNL     1      -0.567  10.654  16.600  0.00  0.00    +0.000 HD
ENDBRANCH  11  17
ENDBRANCH   1  11
BRANCH   9  19
ATOM     19  C   UNL     1       2.998   4.789  17.220  0.00  0.00    +0.000 C 
BRANCH  19  20
ATOM     20  C   UNL     1       3.893   3.510  17.243  0.00  0.00    +0.000 C 
ATOM     21  C   UNL     1       3.172   2.229  17.703  0.00  0.00    +0.000 C 
ATOM     22  C   UNL     1       3.197   1.962  19.213  0.00  0.00    +0.000 C 
ATOM     23  C   UNL     1       4.443   2.454  19.949  0.00  0.00    +0.000 C 
ATOM     24  N   UNL     1       4.897   3.766  19.494  0.00  0.00    +0.000 NA
ATOM     25  C   UNL     1       5.171   3.727  18.063  0.00  0.00    +0.000 C 
ATOM     26  H   UNL     1       5.757   4.005  19.990  0.00  0.00    +0.000 HD
ENDBRANCH  19  20
ENDBRANCH   9  19
TORSDOF 4
ENDMDL
MODEL 2
REMARK VINA RESULT:      -6.6      1.330      1.988
REMARK  Name = 
REMARK  6 active torsions:
REMARK  status: ('A' for Active; 'I' for Inactive)
REMARK    1  A    between atoms: C_1  and  N_2
REMARK    2  A    between atoms: N_2  and  C_3
REMARK    3  A    between atoms: N_6  and  C_7
REMARK    4  A    between atoms: C_7  and  C_8
REMARK    5  A    between atoms: N_16  and  C_17
REMARK    6  A    between atoms: C_17  and  C_18
REMARK                            x       y       z     vdW  Elec       q    Type
REMARK                         _______ _______ _______ _____ _____    ______ ____
ROOT
ATOM      1  C   UNL     1       0.931   9.715  18.728  0.00  0.00    +0.000 A 
ATOM      2  C   UNL     1       1.933   9.128  17.921  0.00  0.00    +0.000 A 
ATOM      3  C   UNL     1       2.403   8.034  18.633  0.00  0.00    +0.000 A 
ATOM      4  N   UNL     1       1.673   8.035  19.795  0.00  0.00    +0.000 N 
ATOM      5  N   UNL     1       0.755   9.023  19.859  0.00  0.00    +0.000 NA
ATOM      6  C   UNL     1       1.752   7.121  20.907  0.00  0.00    +0.000 C 
ATOM      7  C   UNL     1       1.996   5.659  20.575  0.00  0.00    +0.000 C 
ATOM      8  C   UNL     1       1.958   5.288  19.096  0.00  0.00    +0.000 C 
ATOM      9  N   UNL     1       3.220   5.624  18.438  0.00  0.00    +0.000 NA
ATOM     10  C   UNL     1       3.508   7.070  18.325  0.00  0.00    +0.000 C 
ENDROOT
BRANCH   1  11
ATOM     11  C   UNL     1       0.093  10.922  18.453  0.00  0.00    +0.000 C 
BRANCH  11  17
ATOM     12  C   UNL     1      -4.372  11.405  16.623  0.00  0.00    +0.000 C 
ATOM     13  N   UNL     1      -3.047  10.820  16.548  0.00  0.00    +0.000 N 
ATOM     14  C   UNL     1      -2.800   9.784  15.565  0.00  0.00    +0.000 C 
ATOM     15  C   UNL     1      -2.160  11.178  17.552  0.00  0.00    +0.000 C 
ATOM     16  O   UNL     1      -2.461  11.956  18.455  0.00  0.00    +0.000 OA
ATOM     17  N   UNL     1      -0.933  10.574  17.489  0.00  0.00    +0.000 N 
ATOM     18  H   UNL     1      -0.583  10.367  16.569  0.00  0.00    +0.000 HD
ENDBRANCH  11  17
ENDBRANCH   1  11
BRANCH   9  19
ATOM     19  C   UNL     1       3.438   4.908  17.157  0.00  0.00    +0.000 C 
BRANCH  19  20
ATOM     20  C   UNL     1       4.824   4.210  16.984  0.00  0.00    +0.000 C 
ATOM     21  C   UNL     1       5.749   4.304  18.212  0.00  0.00    +0.000 C 
ATOM     22  C   UNL     1       6.663   5.535  18.259  0.00  0.00    +0.000 C 
ATOM     23  C   UNL     1       7.124   6.065  16.902  0.00  0.00    +0.000 C 
ATOM     24  N   UNL     1       6.067   6.054  15.893  0.00  0.00    +0.000 NA
ATOM     25  C   UNL     1       5.553   4.701  15.727  0.00  0.00    +0.000 C 
ATOM     26  H   UNL     1       6.459   6.372  15.005  0.00  0.00    +0.000 HD
ENDBRANCH  19  20
ENDBRANCH   9  19
TORSDOF 4
ENDMDL
MODEL 3
REMARK VINA RESULT:      -6.6      5.768      7.442
REMARK  Name = 
REMARK  6 active torsions:
REMARK  status: ('A' for Active; 'I' for Inactive)
REMARK    1  A    between atoms: C_1  and  N_2
REMARK    2  A    between atoms: N_2  and  C_3
REMARK    3  A    between atoms: N_6  and  C_7
REMARK    4  A    between atoms: C_7  and  C_8
REMARK    5  A    between atoms: N_16  and  C_17
REMARK    6  A    between atoms: C_17  and  C_18
REMARK                            x       y       z     vdW  Elec       q    Type
REMARK                         _______ _______ _______ _____ _____    ______ ____
ROOT
ATOM      1  C   UNL     1       7.482   7.359  17.681  0.00  0.00    +0.000 A 
ATOM      2  C   UNL     1       6.171   7.031  18.099  0.00  0.00    +0.000 A 
ATOM      3  C   UNL     1       5.659   6.190  17.122  0.00  0.00    +0.000 A 
ATOM      4  N   UNL     1       6.669   6.071  16.201  0.00  0.00    +0.000 N 
ATOM      5  N   UNL     1       7.791   6.742  16.535  0.00  0.00    +0.000 NA
ATOM      6  C   UNL     1       6.680   5.318  14.972  0.00  0.00    +0.000 C 
ATOM      7  C   UNL     1       5.975   3.972  14.986  0.00  0.00    +0.000 C 
ATOM      8  C   UNL     1       5.483   3.485  16.345  0.00  0.00    +0.000 C 
ATOM      9  N   UNL     1       4.219   4.124  16.706  0.00  0.00    +0.000 NA
ATOM     10  C   UNL     1       4.300   5.577  16.977  0.00  0.00    +0.000 C 
ENDROOT
BRANCH   1  11
ATOM     11  C   UNL     1       8.490   8.235  18.354  0.00  0.00    +0.000 C 
BRANCH  11  17
ATOM     12  C   UNL     1       9.501  12.970  18.621  0.00  0.00    +0.000 C 
ATOM     13  N   UNL     1       8.749  11.884  18.021  0.00  0.00    +0.000 N 
ATOM     14  C   UNL     1       7.668  12.208  17.111  0.00  0.00    +0.000 C 
ATOM     15  C   UNL     1       9.012  10.612  18.508  0.00  0.00    +0.000 C 
ATOM     16  O   UNL     1       9.842  10.400  19.389  0.00  0.00    +0.000 OA
ATOM     17  N   UNL     1       8.255   9.611  17.963  0.00  0.00    +0.000 N 
ATOM     18  H   UNL     1       7.984   9.728  17.001  0.00  0.00    +0.000 HD
ENDBRANCH  11  17
ENDBRANCH   1  11
BRANCH   9  19
ATOM     19  C   UNL     1       3.457   3.402  17.754  0.00  0.00    +0.000 C 
BRANCH  19  20
ATOM     20  C   UNL     1       2.447   4.255  18.585  0.00  0.00    +0.000 C 
ATOM     21  C   UNL     1       2.901   4.566  20.024  0.00  0.00    +0.000 C 
ATOM     22  C   UNL     1       2.501   3.530  21.082  0.00  0.00    +0.000 C 
ATOM     23  C   UNL     1       1.180   2.804  20.828  0.00  0.00    +0.000 C 
ATOM     24  N   UNL     1       0.988   2.438  19.426  0.00  0.00    +0.000 NA
ATOM     25  C   UNL     1       1.047   3.630  18.590  0.00  0.00    +0.000 C 
ATOM     26  H   UNL     1       0.068   2.007  19.325  0.00  0.00    +0.000 HD
ENDBRANCH  19  20
ENDBRANCH   9  19
TORSDOF 4
ENDMDL
MODEL 4
REMARK VINA RESULT:      -6.6      5.570      7.311
REMARK  Name = 
REMARK  6 active torsions:
REMARK  status: ('A' for Active; 'I' for Inactive)
REMARK    1  A    between atoms: C_1  and  N_2
REMARK    2  A    between atoms: N_2  and  C_3
REMARK    3  A    between atoms: N_6  and  C_7
REMARK    4  A    between atoms: C_7  and  C_8
REMARK    5  A    between atoms: N_16  and  C_17
REMARK    6  A    between atoms: C_17  and  C_18
REMARK                            x       y       z     vdW  Elec       q    Type
REMARK                         _______ _______ _______ _____ _____    ______ ____
ROOT
ATOM      1  C   UNL     1       7.564   7.649  17.648  0.00  0.00    +0.000 A 
ATOM      2  C   UNL     1       6.170   7.663  17.891  0.00  0.00    +0.000 A 
ATOM      3  C   UNL     1       5.635   6.657  17.100  0.00  0.00    +0.000 A 
ATOM      4  N   UNL     1       6.714   6.118  16.446  0.00  0.00    +0.000 N 
ATOM      5  N   UNL     1       7.893   6.679  16.787  0.00  0.00    +0.000 NA
ATOM      6  C   UNL     1       6.738   5.040  15.488  0.00  0.00    +0.000 C 
ATOM      7  C   UNL     1       5.784   3.884  15.735  0.00  0.00    +0.000 C 
ATOM      8  C   UNL     1       5.031   3.904  17.060  0.00  0.00    +0.000 C 
ATOM      9  N   UNL     1       3.882   4.805  16.998  0.00  0.00    +0.000 NA
ATOM     10  C   UNL     1       4.213   6.243  16.878  0.00  0.00    +0.000 C 
ENDROOT
BRANCH   1  11
ATOM     11  C   UNL     1       8.628   8.521  18.234  0.00  0.00    +0.000 C 
BRANCH  11  17
ATOM     12  C   UNL     1       9.605  13.262  18.515  0.00  0.00    +0.000 C 
ATOM     13  N   UNL     1       8.818  12.180  17.957  0.00  0.00    +0.000 N 
ATOM     14  C   UNL     1       7.662  12.507  17.147  0.00  0.00    +0.000 C 
ATOM     15  C   UNL     1       9.135  10.901  18.393  0.00  0.00    +0.000 C 
ATOM     16  O   UNL     1      10.038  10.682  19.198  0.00  0.00    +0.000 OA
ATOM     17  N   UNL     1       8.346   9.902  17.892  0.00  0.00    +0.000 N 
ATOM     18  H   UNL     1       7.995  10.034  16.958  0.00  0.00    +0.000 HD
ENDBRANCH  11  17
ENDBRANCH   1  11
BRANCH   9  19
ATOM     19  C   UNL     1       2.861   4.552  18.044  0.00  0.00    +0.000 C 
BRANCH  19  20
ATOM     20  C   UNL     1       2.610   3.056  18.416  0.00  0.00    +0.000 C 
ATOM     21  C   UNL     1       1.128   2.678  18.594  0.00  0.00    +0.000 C 
ATOM     22  C   UNL     1       0.565   2.858  20.010  0.00  0.00    +0.000 C 
ATOM     23  C   UNL     1       1.561   2.637  21.148  0.00  0.00    +0.000 C 
ATOM     24  N   UNL     1       2.879   3.206  20.875  0.00  0.00    +0.000 NA
ATOM     25  C   UNL     1       3.421   2.635  19.648  0.00  0.00    +0.000 C 
ATOM     26  H   UNL     1       3.501   2.977  21.651  0.00  0.00    +0.000 HD
ENDBRANCH  19  20
ENDBRANCH   9  19
TORSDOF 4
ENDMDL
MODEL 5
REMARK VINA RESULT:      -6.5      3.838      8.191
REMARK  Name = 
REMARK  6 active torsions:
REMARK  status: ('A' for Active; 'I' for Inactive)
REMARK    1  A    between atoms: C_1  and  N_2
REMARK    2  A    between atoms: N_2  and  C_3
REMARK    3  A    between atoms: N_6  and  C_7
REMARK    4  A    between atoms: C_7  and  C_8
REMARK    5  A    between atoms: N_16  and  C_17
REMARK    6  A    between atoms: C_17  and  C_18
REMARK                            x       y       z     vdW  Elec       q    Type
REMARK                         _______ _______ _______ _____ _____    ______ ____
ROOT
ATOM      1  C   UNL     1       5.029   4.775  17.413  0.00  0.00    +0.000 A 
ATOM      2  C   UNL     1       4.463   6.066  17.532  0.00  0.00    +0.000 A 
ATOM      3  C   UNL     1       3.218   5.884  18.115  0.00  0.00    +0.000 A 
ATOM      4  N   UNL     1       3.115   4.529  18.301  0.00  0.00    +0.000 N 
ATOM      5  N   UNL     1       4.212   3.842  17.915  0.00  0.00    +0.000 NA
ATOM      6  C   UNL     1       2.021   3.779  18.867  0.00  0.00    +0.000 C 
ATOM      7  C   UNL     1       1.289   4.413  20.037  0.00  0.00    +0.000 C 
ATOM      8  C   UNL     1       1.900   5.692  20.600  0.00  0.00    +0.000 C 
ATOM      9  N   UNL     1       1.543   6.849  19.782  0.00  0.00    +0.000 NA
ATOM     10  C   UNL     1       2.132   6.869  18.425  0.00  0.00    +0.000 C 
ENDROOT
BRANCH   1  11
ATOM     11  C   UNL     1       6.357   4.381  16.852  0.00  0.00    +0.000 C 
BRANCH  11  17
ATOM     12  C   UNL     1       7.590   5.032  12.208  0.00  0.00    +0.000 C 
ATOM     13  N   UNL     1       6.808   4.329  13.207  0.00  0.00    +0.000 N 
ATOM     14  C   UNL     1       5.778   3.412  12.762  0.00  0.00    +0.000 C 
ATOM     15  C   UNL     1       6.990   4.728  14.523  0.00  0.00    +0.000 C 
ATOM     16  O   UNL     1       7.777   5.618  14.842  0.00  0.00    +0.000 OA
ATOM     17  N   UNL     1       6.205   4.086  15.441  0.00  0.00    +0.000 N 
ATOM     18  H   UNL     1       5.975   3.127  15.241  0.00  0.00    +0.000 HD
ENDBRANCH  11  17
ENDBRANCH   1  11
BRANCH   9  19
ATOM     19  C   UNL     1       1.700   8.149  20.479  0.00  0.00    +0.000 C 
BRANCH  19  20
ATOM     20  C   UNL     1       0.391   8.966  20.720  0.00  0.00    +0.000 C 
ATOM     21  C   UNL     1      -0.136   9.715  19.481  0.00  0.00    +0.000 C 
ATOM     22  C   UNL     1       0.409  11.135  19.286  0.00  0.00    +0.000 C 
ATOM     23  C   UNL     1       0.737  11.899  20.569  0.00  0.00    +0.000 C 
ATOM     24  N   UNL     1       1.383  11.067  21.581  0.00  0.00    +0.000 NA
ATOM     25  C   UNL     1       0.533   9.928  21.905  0.00  0.00    +0.000 C 
ATOM     26  H   UNL     1       1.525  11.626  22.423  0.00  0.00    +0.000 HD
ENDBRANCH  19  20
ENDBRANCH   9  19
TORSDOF 4
ENDMDL
MODEL 6
REMARK VINA RESULT:      -6.5      1.907      3.043
REMARK  Name = 
REMARK  6 active torsions:
REMARK  status: ('A' for Active; 'I' for Inactive)
REMARK    1  A    between atoms: C_1  and  N_2
REMARK    2  A    between atoms: N_2  and  C_3
REMARK    3  A    between atoms: N_6  and  C_7
REMARK    4  A    between atoms: C_7  and  C_8
REMARK    5  A    between atoms: N_16  and  C_17
REMARK    6  A    between atoms: C_17  and  C_18
REMARK                            x       y       z     vdW  Elec       q    Type
REMARK                         _______ _______ _______ _____ _____    ______ ____
ROOT
ATOM      1  C   UNL     1      -1.004  10.922  18.318  0.00  0.00    +0.000 A 
ATOM      2  C   UNL     1      -0.081   9.901  17.991  0.00  0.00    +0.000 A 
ATOM      3  C   UNL     1       0.637   9.652  19.152  0.00  0.00    +0.000 A 
ATOM      4  N   UNL     1       0.115  10.520  20.077  0.00  0.00    +0.000 N 
ATOM      5  N   UNL     1      -0.901  11.273  19.604  0.00  0.00    +0.000 NA
ATOM      6  C   UNL     1       0.493  10.696  21.457  0.00  0.00    +0.000 C 
ATOM      7  C   UNL     1       0.867   9.444  22.231  0.00  0.00    +0.000 C 
ATOM      8  C   UNL     1       0.634   8.117  21.517  0.00  0.00    +0.000 C 
ATOM      9  N   UNL     1       1.716   7.829  20.576  0.00  0.00    +0.000 NA
ATOM     10  C   UNL     1       1.792   8.732  19.406  0.00  0.00    +0.000 C 
ENDROOT
BRANCH   1  11
ATOM     11  C   UNL     1      -2.026  11.577  17.444  0.00  0.00    +0.000 C 
BRANCH  11  17
ATOM     12  C   UNL     1      -6.824  11.552  18.142  0.00  0.00    +0.000 C 
ATOM     13  N   UNL     1      -5.491  11.839  18.635  0.00  0.00    +0.000 N 
ATOM     14  C   UNL     1      -5.354  12.556  19.888  0.00  0.00    +0.000 C 
ATOM     15  C   UNL     1      -4.443  11.558  17.772  0.00  0.00    +0.000 C 
ATOM     16  O   UNL     1      -4.617  11.080  16.653  0.00  0.00    +0.000 OA
ATOM     17  N   UNL     1      -3.199  11.885  18.239  0.00  0.00    +0.000 N 
ATOM     18  H   UNL     1      -3.058  11.804  19.232  0.00  0.00    +0.000 HD
ENDBRANCH  11  17
ENDBRANCH   1  11
BRANCH   9  19
ATOM     19  C   UNL     1       1.811   6.401  20.188  0.00  0.00    +0.000 C 
BRANCH  19  20
ATOM     20  C   UNL     1       2.685   6.083  18.933  0.00  0.00    +0.000 C 
ATOM     21  C   UNL     1       1.958   5.297  17.826  0.00  0.00    +0.000 C 
ATOM     22  C   UNL     1       2.030   3.769  17.945  0.00  0.00    +0.000 C 
ATOM     23  C   UNL     1       3.308   3.216  18.573  0.00  0.00    +0.000 C 
ATOM     24  N   UNL     1       3.769   3.999  19.718  0.00  0.00    +0.000 NA
ATOM     25  C   UNL     1       3.993   5.382  19.316  0.00  0.00    +0.000 C 
ATOM     26  H   UNL     1       4.649   3.603  20.052  0.00  0.00    +0.000 HD
ENDBRANCH  19  20
ENDBRANCH   9  19
TORSDOF 4
ENDMDL
MODEL 7
REMARK VINA RESULT:      -6.5      3.557      8.464
REMARK  Name = 
REMARK  6 active torsions:
REMARK  status: ('A' for Active; 'I' for Inactive)
REMARK    1  A    between atoms: C_1  and  N_2
REMARK    2  A    between atoms: N_2  and  C_3
REMARK    3  A    between atoms: N_6  and  C_7
REMARK    4  A    between atoms: C_7  and  C_8
REMARK    5  A    between atoms: N_16  and  C_17
REMARK    6  A    between atoms: C_17  and  C_18
REMARK                            x       y       z     vdW  Elec       q    Type
REMARK                         _______ _______ _______ _____ _____    ______ ____
ROOT
ATOM      1  C   UNL     1       2.223   7.751  19.045  0.00  0.00    +0.000 A 
ATOM      2  C   UNL     1       1.872   8.786  18.146  0.00  0.00    +0.000 A 
ATOM      3  C   UNL     1       1.074   9.662  18.867  0.00  0.00    +0.000 A 
ATOM      4  N   UNL     1       0.995   9.109  20.121  0.00  0.00    +0.000 N 
ATOM      5  N   UNL     1       1.710   7.973  20.260  0.00  0.00    +0.000 NA
ATOM      6  C   UNL     1       0.285   9.599  21.276  0.00  0.00    +0.000 C 
ATOM      7  C   UNL     1       0.273  11.103  21.486  0.00  0.00    +0.000 C 
ATOM      8  C   UNL     1       1.159  11.920  20.552  0.00  0.00    +0.000 C 
ATOM      9  N   UNL     1       0.513  12.121  19.257  0.00  0.00    +0.000 NA
ATOM     10  C   UNL     1       0.348  10.900  18.437  0.00  0.00    +0.000 C 
ENDROOT
BRANCH   1  11
ATOM     11  C   UNL     1       3.070   6.543  18.800  0.00  0.00    +0.000 C 
BRANCH  11  17
ATOM     12  C   UNL     1       0.694   2.316  18.822  0.00  0.00    +0.000 C 
ATOM     13  N   UNL     1       1.403   3.355  19.544  0.00  0.00    +0.000 N 
ATOM     14  C   UNL     1       1.416   3.309  20.992  0.00  0.00    +0.000 C 
ATOM     15  C   UNL     1       1.869   4.420  18.788  0.00  0.00    +0.000 C 
ATOM     16  O   UNL     1       1.708   4.488  17.570  0.00  0.00    +0.000 OA
ATOM     17  N   UNL     1       2.490   5.412  19.497  0.00  0.00    +0.000 N 
ATOM     18  H   UNL     1       3.000   5.124  20.315  0.00  0.00    +0.000 HD
ENDBRANCH  11  17
ENDBRANCH   1  11
BRANCH   9  19
ATOM     19  C   UNL     1       1.075  13.248  18.473  0.00  0.00    +0.000 C 
BRANCH  19  20
ATOM     20  C   UNL     1       2.063  14.192  19.231  0.00  0.00    +0.000 C 
ATOM     21  C   UNL     1       1.570  15.643  19.389  0.00  0.00    +0.000 C 
ATOM     22  C   UNL     1       1.942  16.595  18.246  0.00  0.00    +0.000 C 
ATOM     23  C   UNL     1       3.269  16.302  17.548  0.00  0.00    +0.000 C 
ATOM     24  N   UNL     1       3.500  14.875  17.332  0.00  0.00    +0.000 NA
ATOM     25  C   UNL     1       3.463  14.168  18.606  0.00  0.00    +0.000 C 
ATOM     26  H   UNL     1       4.422  14.753  16.911  0.00  0.00    +0.000 HD
ENDBRANCH  19  20
ENDBRANCH   9  19
TORSDOF 4
ENDMDL
MODEL 8
REMARK VINA RESULT:      -6.5      5.317      7.376
REMARK  Name = 
REMARK  6 active torsions:
REMARK  status: ('A' for Active; 'I' for Inactive)
REMARK    1  A    between atoms: C_1  and  N_2
REMARK    2  A    between atoms: N_2  and  C_3
REMARK    3  A    between atoms: N_6  and  C_7
REMARK    4  A    between atoms: C_7  and  C_8
REMARK    5  A    between atoms: N_16  and  C_17
REMARK    6  A    between atoms: C_17  and  C_18
REMARK                            x       y       z     vdW  Elec       q    Type
REMARK                         _______ _______ _______ _____ _____    ______ ____
ROOT
ATOM      1  C   UNL     1       7.545   7.603  17.679  0.00  0.00    +0.000 A 
ATOM      2  C   UNL     1       6.147   7.581  17.893  0.00  0.00    +0.000 A 
ATOM      3  C   UNL     1       5.650   6.590  17.060  0.00  0.00    +0.000 A 
ATOM      4  N   UNL     1       6.753   6.094  16.412  0.00  0.00    +0.000 N 
ATOM      5  N   UNL     1       7.913   6.669  16.796  0.00  0.00    +0.000 NA
ATOM      6  C   UNL     1       6.820   5.047  15.422  0.00  0.00    +0.000 C 
ATOM      7  C   UNL     1       5.887   3.864  15.612  0.00  0.00    +0.000 C 
ATOM      8  C   UNL     1       5.106   3.826  16.922  0.00  0.00    +0.000 C 
ATOM      9  N   UNL     1       3.939   4.706  16.863  0.00  0.00    +0.000 NA
ATOM     10  C   UNL     1       4.241   6.152  16.795  0.00  0.00    +0.000 C 
ENDROOT
BRANCH   1  11
ATOM     11  C   UNL     1       8.577   8.479  18.314  0.00  0.00    +0.000 C 
BRANCH  11  17
ATOM     12  C   UNL     1       9.632  13.208  18.501  0.00  0.00    +0.000 C 
ATOM     13  N   UNL     1       8.824  12.128  17.968  0.00  0.00    +0.000 N 
ATOM     14  C   UNL     1       7.669  12.459  17.158  0.00  0.00    +0.000 C 
ATOM     15  C   UNL     1       9.123  10.854  18.426  0.00  0.00    +0.000 C 
ATOM     16  O   UNL     1      10.027  10.634  19.231  0.00  0.00    +0.000 OA
ATOM     17  N   UNL     1       8.316   9.857  17.948  0.00  0.00    +0.000 N 
ATOM     18  H   UNL     1       7.962   9.978  17.014  0.00  0.00    +0.000 HD
ENDBRANCH  11  17
ENDBRANCH   1  11
BRANCH   9  19
ATOM     19  C   UNL     1       2.903   4.398  17.879  0.00  0.00    +0.000 C 
BRANCH  19  20
ATOM     20  C   UNL     1       3.376   4.388  19.367  0.00  0.00    +0.000 C 
ATOM     21  C   UNL     1       3.583   2.984  19.965  0.00  0.00    +0.000 C 
ATOM     22  C   UNL     1       2.347   2.357  20.623  0.00  0.00    +0.000 C 
ATOM     23  C   UNL     1       1.378   3.340  21.277  0.00  0.00    +0.000 C 
ATOM     24  N   UNL     1       1.174   4.553  20.489  0.00  0.00    +0.000 NA
ATOM     25  C   UNL     1       2.450   5.219  20.263  0.00  0.00    +0.000 C 
ATOM     26  H   UNL     1       0.559   5.181  21.008  0.00  0.00    +0.000 HD
ENDBRANCH  19  20
ENDBRANCH   9  19
TORSDOF 4
ENDMDL
MODEL 9
REMARK VINA RESULT:      -6.5      2.318      4.131
REMARK  Name = 
REMARK  6 active torsions:
REMARK  status: ('A' for Active; 'I' for Inactive)
REMARK    1  A    between atoms: C_1  and  N_2
REMARK    2  A    between atoms: N_2  and  C_3
REMARK    3  A    between atoms: N_6  and  C_7
REMARK    4  A    between atoms: C_7  and  C_8
REMARK    5  A    between atoms: N_16  and  C_17
REMARK    6  A    between atoms: C_17  and  C_18
REMARK                            x       y       z     vdW  Elec       q    Type
REMARK                         _______ _______ _______ _____ _____    ______ ____
ROOT
ATOM      1  C   UNL     1       1.812   6.251  20.602  0.00  0.00    +0.000 A 
ATOM      2  C   UNL     1       3.108   5.854  20.194  0.00  0.00    +0.000 A 
ATOM      3  C   UNL     1       3.000   4.521  19.826  0.00  0.00    +0.000 A 
ATOM      4  N   UNL     1       1.680   4.209  20.033  0.00  0.00    +0.000 N 
ATOM      5  N   UNL     1       0.937   5.248  20.470  0.00  0.00    +0.000 NA
ATOM      6  C   UNL     1       1.010   2.950  19.821  0.00  0.00    +0.000 C 
ATOM      7  C   UNL     1       1.440   2.140  18.610  0.00  0.00    +0.000 C 
ATOM      8  C   UNL     1       2.409   2.826  17.652  0.00  0.00    +0.000 C 
ATOM      9  N   UNL     1       3.780   2.758  18.153  0.00  0.00    +0.000 NA
ATOM     10  C   UNL     1       4.044   3.545  19.379  0.00  0.00    +0.000 C 
ENDROOT
BRANCH   1  11
ATOM     11  C   UNL     1       1.352   7.583  21.099  0.00  0.00    +0.000 C 
BRANCH  11  17
ATOM     12  C   UNL     1      -0.079  11.563  18.728  0.00  0.00    +0.000 C 
ATOM     13  N   UNL     1       0.889  10.500  18.913  0.00  0.00    +0.000 N 
ATOM     14  C   UNL     1       1.957  10.356  17.944  0.00  0.00    +0.000 C 
ATOM     15  C   UNL     1       0.611   9.585  19.918  0.00  0.00    +0.000 C 
ATOM     16  O   UNL     1      -0.390   9.665  20.628  0.00  0.00    +0.000 OA
ATOM     17  N   UNL     1       1.512   8.562  20.041  0.00  0.00    +0.000 N 
ATOM     18  H   UNL     1       2.469   8.780  19.820  0.00  0.00    +0.000 HD
ENDBRANCH  11  17
ENDBRANCH   1  11
BRANCH   9  19
ATOM     19  C   UNL     1       4.813   2.982  17.112  0.00  0.00    +0.000 C 
BRANCH  19  20
ATOM     20  C   UNL     1       4.919   4.434  16.546  0.00  0.00    +0.000 C 
ATOM     21  C   UNL     1       4.837   4.533  15.011  0.00  0.00    +0.000 C 
ATOM     22  C   UNL     1       6.175   4.421  14.270  0.00  0.00    +0.000 C 
ATOM     23  C   UNL     1       7.391   4.970  15.015  0.00  0.00    +0.000 C 
ATOM     24  N   UNL     1       7.385   4.642  16.440  0.00  0.00    +0.000 NA
ATOM     25  C   UNL     1       6.171   5.154  17.062  0.00  0.00    +0.000 C 
ATOM     26  H   UNL     1       8.195   5.082  16.879  0.00  0.00    +0.000 HD
ENDBRANCH  19  20
ENDBRANCH   9  19
TORSDOF 4
ENDMDL
