MODEL 1
REMARK VINA RESULT:      -7.6      0.000      0.000
REMARK  Name = 
REMARK  2 active torsions:
REMARK  status: ('A' for Active; 'I' for Inactive)
REMARK    1  A    between atoms: C_1  and  O_2
REMARK    2  A    between atoms: O_2  and  C_3
REMARK                            x       y       z     vdW  Elec       q    Type
REMARK                         _______ _______ _______ _____ _____    ______ ____
ROOT
ATOM      1  C   UNL     1       3.844   4.202  18.988  0.00  0.00    +0.000 A 
ATOM      2  C   UNL     1       3.118   4.879  19.978  0.00  0.00    +0.000 A 
ATOM      3  C   UNL     1       2.613   6.163  19.739  0.00  0.00    +0.000 A 
ATOM      4  N   UNL     1       1.927   6.867  20.738  0.00  0.00    +0.000 N 
ATOM      5  C   UNL     1       1.426   8.134  20.526  0.00  0.00    +0.000 A 
ATOM      6  C   UNL     1       1.603   8.801  19.369  0.00  0.00    +0.000 A 
ATOM      7  C   UNL     1       2.364   8.144  18.269  0.00  0.00    +0.000 A 
ATOM      8  O   UNL     1       2.572   8.720  17.208  0.00  0.00    +0.000 OA
ATOM      9  C   UNL     1       2.865   6.771  18.500  0.00  0.00    +0.000 A 
ATOM     10  C   UNL     1       3.584   6.110  17.504  0.00  0.00    +0.000 A 
ATOM     11  C   UNL     1       4.077   4.830  17.753  0.00  0.00    +0.000 A 
ATOM     12 CL   UNL     1       4.971   4.048  16.496  0.00  0.00    +0.000 Cl
ATOM     13  C   UNL     1       1.066  10.174  19.083  0.00  0.00    +0.000 C 
ATOM     14  C   UNL     1       0.047  10.624  20.118  0.00  0.00    +0.000 C 
ATOM     15  F   UNL     1      -1.157  10.049  19.861  0.00  0.00    +0.000 F 
ATOM     16  F   UNL     1      -0.140  11.963  20.024  0.00  0.00    +0.000 F 
ATOM     17  C   UNL     1       0.473  10.274  21.531  0.00  0.00    +0.000 C 
ATOM     18  C   UNL     1       0.662   8.764  21.675  0.00  0.00    +0.000 C 
ATOM     19  H   UNL     1       1.655   6.376  21.583  0.00  0.00    +0.000 HD
ENDROOT
BRANCH   1  21
ATOM     20  C   UNL     1       3.562   1.840  18.917  0.00  0.00    +0.000 C 
ATOM     21  O   UNL     1       4.401   2.960  19.167  0.00  0.00    +0.000 OA
ENDBRANCH   1  21
TORSDOF 1
ENDMDL
MODEL 2
REMARK VINA RESULT:      -7.2      3.865      6.410
REMARK  Name = 
REMARK  2 active torsions:
REMARK  status: ('A' for Active; 'I' for Inactive)
REMARK    1  A    between atoms: C_1  and  O_2
REMARK    2  A    between atoms: O_2  and  C_3
REMARK                            x       y       z     vdW  Elec       q    Type
REMARK                         _______ _______ _______ _____ _____    ______ ____
ROOT
ATOM      1  C   UNL     1       0.295  10.157  21.174  0.00  0.00    +0.000 A 
ATOM      2  C   UNL     1       0.735   8.857  21.463  0.00  0.00    +0.000 A 
ATOM      3  C   UNL     1       1.451   8.119  20.512  0.00  0.00    +0.000 A 
ATOM      4  N   UNL     1       1.854   6.802  20.775  0.00  0.00    +0.000 N 
ATOM      5  C   UNL     1       2.554   6.055  19.851  0.00  0.00    +0.000 A 
ATOM      6  C   UNL     1       2.856   6.517  18.622  0.00  0.00    +0.000 A 
ATOM      7  C   UNL     1       2.422   7.892  18.243  0.00  0.00    +0.000 A 
ATOM      8  O   UNL     1       2.650   8.345  17.128  0.00  0.00    +0.000 OA
ATOM      9  C   UNL     1       1.701   8.693  19.257  0.00  0.00    +0.000 A 
ATOM     10  C   UNL     1       1.272   9.985  18.954  0.00  0.00    +0.000 A 
ATOM     11  C   UNL     1       0.565  10.711  19.911  0.00  0.00    +0.000 A 
ATOM     12 CL   UNL     1       0.042  12.306  19.495  0.00  0.00    +0.000 Cl
ATOM     13  C   UNL     1       3.628   5.750  17.587  0.00  0.00    +0.000 C 
ATOM     14  C   UNL     1       4.297   4.513  18.164  0.00  0.00    +0.000 C 
ATOM     15  F   UNL     1       5.436   4.867  18.818  0.00  0.00    +0.000 F 
ATOM     16  F   UNL     1       4.676   3.686  17.158  0.00  0.00    +0.000 F 
ATOM     17  C   UNL     1       3.390   3.762  19.117  0.00  0.00    +0.000 C 
ATOM     18  C   UNL     1       2.971   4.661  20.280  0.00  0.00    +0.000 C 
ATOM     19  H   UNL     1       1.767   6.443  21.720  0.00  0.00    +0.000 HD
ENDROOT
BRANCH   1  21
ATOM     20  C   UNL     1      -0.926  10.276  23.213  0.00  0.00    +0.000 C 
ATOM     21  O   UNL     1      -0.444  10.922  22.042  0.00  0.00    +0.000 OA
ENDBRANCH   1  21
TORSDOF 1
ENDMDL
MODEL 3
REMARK VINA RESULT:      -7.2      4.431      5.580
REMARK  Name = 
REMARK  2 active torsions:
REMARK  status: ('A' for Active; 'I' for Inactive)
REMARK    1  A    between atoms: C_1  and  O_2
REMARK    2  A    between atoms: O_2  and  C_3
REMARK                            x       y       z     vdW  Elec       q    Type
REMARK                         _______ _______ _______ _____ _____    ______ ____
ROOT
ATOM      1  C   UNL     1       6.834   6.332  16.797  0.00  0.00    +0.000 A 
ATOM      2  C   UNL     1       6.036   6.388  17.949  0.00  0.00    +0.000 A 
ATOM      3  C   UNL     1       4.942   5.527  18.100  0.00  0.00    +0.000 A 
ATOM      4  N   UNL     1       4.110   5.608  19.226  0.00  0.00    +0.000 N 
ATOM      5  C   UNL     1       3.024   4.774  19.393  0.00  0.00    +0.000 A 
ATOM      6  C   UNL     1       2.659   3.863  18.469  0.00  0.00    +0.000 A 
ATOM      7  C   UNL     1       3.462   3.744  17.220  0.00  0.00    +0.000 A 
ATOM      8  O   UNL     1       3.154   2.949  16.340  0.00  0.00    +0.000 OA
ATOM      9  C   UNL     1       4.644   4.623  17.071  0.00  0.00    +0.000 A 
ATOM     10  C   UNL     1       5.429   4.553  15.920  0.00  0.00    +0.000 A 
ATOM     11  C   UNL     1       6.518   5.412  15.784  0.00  0.00    +0.000 A 
ATOM     12 CL   UNL     1       7.461   5.301  14.339  0.00  0.00    +0.000 Cl
ATOM     13  C   UNL     1       1.497   2.923  18.610  0.00  0.00    +0.000 C 
ATOM     14  C   UNL     1       0.946   2.892  20.027  0.00  0.00    +0.000 C 
ATOM     15  F   UNL     1       1.734   2.109  20.811  0.00  0.00    +0.000 F 
ATOM     16  F   UNL     1      -0.283   2.320  20.027  0.00  0.00    +0.000 F 
ATOM     17  C   UNL     1       0.857   4.276  20.638  0.00  0.00    +0.000 C 
ATOM     18  C   UNL     1       2.236   4.934  20.679  0.00  0.00    +0.000 C 
ATOM     19  H   UNL     1       4.401   6.183  20.009  0.00  0.00    +0.000 HD
ENDROOT
BRANCH   1  21
ATOM     20  C   UNL     1       8.086   8.234  17.490  0.00  0.00    +0.000 C 
ATOM     21  O   UNL     1       7.896   7.170  16.565  0.00  0.00    +0.000 OA
ENDBRANCH   1  21
TORSDOF 1
ENDMDL
MODEL 4
REMARK VINA RESULT:      -7.0      4.640      5.929
REMARK  Name = 
REMARK  2 active torsions:
REMARK  status: ('A' for Active; 'I' for Inactive)
REMARK    1  A    between atoms: C_1  and  O_2
REMARK    2  A    between atoms: O_2  and  C_3
REMARK                            x       y       z     vdW  Elec       q    Type
REMARK                         _______ _______ _______ _____ _____    ______ ____
ROOT
ATOM      1  C   UNL     1       6.857   5.312  15.962  0.00  0.00    +0.000 A 
ATOM      2  C   UNL     1       5.962   4.239  16.091  0.00  0.00    +0.000 A 
ATOM      3  C   UNL     1       5.075   4.178  17.172  0.00  0.00    +0.000 A 
ATOM      4  N   UNL     1       4.210   3.086  17.336  0.00  0.00    +0.000 N 
ATOM      5  C   UNL     1       3.332   3.002  18.395  0.00  0.00    +0.000 A 
ATOM      6  C   UNL     1       3.278   3.932  19.370  0.00  0.00    +0.000 A 
ATOM      7  C   UNL     1       4.197   5.103  19.298  0.00  0.00    +0.000 A 
ATOM      8  O   UNL     1       4.203   5.960  20.173  0.00  0.00    +0.000 OA
ATOM      9  C   UNL     1       5.110   5.195  18.137  0.00  0.00    +0.000 A 
ATOM     10  C   UNL     1       5.992   6.270  18.022  0.00  0.00    +0.000 A 
ATOM     11  C   UNL     1       6.867   6.322  16.939  0.00  0.00    +0.000 A 
ATOM     12 CL   UNL     1       7.951   7.665  16.837  0.00  0.00    +0.000 Cl
ATOM     13  C   UNL     1       2.331   3.894  20.535  0.00  0.00    +0.000 C 
ATOM     14  C   UNL     1       1.233   2.859  20.354  0.00  0.00    +0.000 C 
ATOM     15  F   UNL     1       0.270   3.348  19.528  0.00  0.00    +0.000 F 
ATOM     16  F   UNL     1       0.630   2.620  21.545  0.00  0.00    +0.000 F 
ATOM     17  C   UNL     1       1.760   1.557  19.786  0.00  0.00    +0.000 C 
ATOM     18  C   UNL     1       2.419   1.792  18.427  0.00  0.00    +0.000 C 
ATOM     19  H   UNL     1       4.116   2.420  16.577  0.00  0.00    +0.000 HD
ENDROOT
BRANCH   1  21
ATOM     20  C   UNL     1       7.389   4.929  13.674  0.00  0.00    +0.000 C 
ATOM     21  O   UNL     1       7.779   5.417  14.951  0.00  0.00    +0.000 OA
ENDBRANCH   1  21
TORSDOF 1
ENDMDL
MODEL 5
REMARK VINA RESULT:      -7.0      4.075      6.942
REMARK  Name = 
REMARK  2 active torsions:
REMARK  status: ('A' for Active; 'I' for Inactive)
REMARK    1  A    between atoms: C_1  and  O_2
REMARK    2  A    between atoms: O_2  and  C_3
REMARK                            x       y       z     vdW  Elec       q    Type
REMARK                         _______ _______ _______ _____ _____    ______ ____
ROOT
ATOM      1  C   UNL     1       1.368   9.242  19.769  0.00  0.00    +0.000 A 
ATOM      2  C   UNL     1       1.967   8.492  18.746  0.00  0.00    +0.000 A 
ATOM      3  C   UNL     1       2.223   7.127  18.920  0.00  0.00    +0.000 A 
ATOM      4  N   UNL     1       2.864   6.379  17.922  0.00  0.00    +0.000 N 
ATOM      5  C   UNL     1       3.131   5.035  18.074  0.00  0.00    +0.000 A 
ATOM      6  C   UNL     1       2.843   4.361  19.205  0.00  0.00    +0.000 A 
ATOM      7  C   UNL     1       2.204   5.092  20.335  0.00  0.00    +0.000 A 
ATOM      8  O   UNL     1       1.947   4.528  21.392  0.00  0.00    +0.000 OA
ATOM      9  C   UNL     1       1.893   6.526  20.143  0.00  0.00    +0.000 A 
ATOM     10  C   UNL     1       1.295   7.257  21.170  0.00  0.00    +0.000 A 
ATOM     11  C   UNL     1       1.041   8.614  20.982  0.00  0.00    +0.000 A 
ATOM     12 CL   UNL     1       0.307   9.488  22.282  0.00  0.00    +0.000 Cl
ATOM     13  C   UNL     1       3.100   2.896  19.415  0.00  0.00    +0.000 C 
ATOM     14  C   UNL     1       3.444   2.178  18.120  0.00  0.00    +0.000 C 
ATOM     15  F   UNL     1       2.309   1.925  17.416  0.00  0.00    +0.000 F 
ATOM     16  F   UNL     1       3.998   0.972  18.399  0.00  0.00    +0.000 F 
ATOM     17  C   UNL     1       4.396   2.980  17.255  0.00  0.00    +0.000 C 
ATOM     18  C   UNL     1       3.785   4.335  16.899  0.00  0.00    +0.000 C 
ATOM     19  H   UNL     1       2.993   6.796  17.006  0.00  0.00    +0.000 HD
ENDROOT
BRANCH   1  21
ATOM     20  C   UNL     1      -0.032  10.986  18.955  0.00  0.00    +0.000 C 
ATOM     21  O   UNL     1       1.124  10.590  19.682  0.00  0.00    +0.000 OA
ENDBRANCH   1  21
TORSDOF 1
ENDMDL
MODEL 6
REMARK VINA RESULT:      -6.9      4.096      6.805
REMARK  Name = 
REMARK  2 active torsions:
REMARK  status: ('A' for Active; 'I' for Inactive)
REMARK    1  A    between atoms: C_1  and  O_2
REMARK    2  A    between atoms: O_2  and  C_3
REMARK                            x       y       z     vdW  Elec       q    Type
REMARK                         _______ _______ _______ _____ _____    ______ ____
ROOT
ATOM      1  C   UNL     1       0.632   9.617  19.911  0.00  0.00    +0.000 A 
ATOM      2  C   UNL     1       1.453   9.442  18.787  0.00  0.00    +0.000 A 
ATOM      3  C   UNL     1       2.233   8.288  18.648  0.00  0.00    +0.000 A 
ATOM      4  N   UNL     1       3.092   8.125  17.552  0.00  0.00    +0.000 N 
ATOM      5  C   UNL     1       3.873   6.999  17.397  0.00  0.00    +0.000 A 
ATOM      6  C   UNL     1       3.903   6.005  18.306  0.00  0.00    +0.000 A 
ATOM      7  C   UNL     1       3.055   6.121  19.526  0.00  0.00    +0.000 A 
ATOM      8  O   UNL     1       3.069   5.255  20.393  0.00  0.00    +0.000 OA
ATOM      9  C   UNL     1       2.198   7.319  19.661  0.00  0.00    +0.000 A 
ATOM     10  C   UNL     1       1.385   7.477  20.784  0.00  0.00    +0.000 A 
ATOM     11  C   UNL     1       0.610   8.628  20.909  0.00  0.00    +0.000 A 
ATOM     12 CL   UNL     1      -0.377   8.791  22.320  0.00  0.00    +0.000 Cl
ATOM     13  C   UNL     1       4.724   4.754  18.177  0.00  0.00    +0.000 C 
ATOM     14  C   UNL     1       5.292   4.577  16.778  0.00  0.00    +0.000 C 
ATOM     15  F   UNL     1       4.332   4.088  15.949  0.00  0.00    +0.000 F 
ATOM     16  F   UNL     1       6.284   3.653  16.801  0.00  0.00    +0.000 F 
ATOM     17  C   UNL     1       5.827   5.875  16.208  0.00  0.00    +0.000 C 
ATOM     18  C   UNL     1       4.721   6.928  16.142  0.00  0.00    +0.000 C 
ATOM     19  H   UNL     1       3.023   8.775  16.776  0.00  0.00    +0.000 HD
ENDROOT
BRANCH   1  21
ATOM     20  C   UNL     1      -0.059  11.763  19.148  0.00  0.00    +0.000 C 
ATOM     21  O   UNL     1      -0.127  10.739  20.132  0.00  0.00    +0.000 OA
ENDBRANCH   1  21
TORSDOF 1
ENDMDL
MODEL 7
REMARK VINA RESULT:      -6.8      3.916      6.448
REMARK  Name = 
REMARK  2 active torsions:
REMARK  status: ('A' for Active; 'I' for Inactive)
REMARK    1  A    between atoms: C_1  and  O_2
REMARK    2  A    between atoms: O_2  and  C_3
REMARK                            x       y       z     vdW  Elec       q    Type
REMARK                         _______ _______ _______ _____ _____    ______ ____
ROOT
ATOM      1  C   UNL     1       1.014   9.471  20.544  0.00  0.00    +0.000 A 
ATOM      2  C   UNL     1       1.086   8.211  21.157  0.00  0.00    +0.000 A 
ATOM      3  C   UNL     1       1.672   7.127  20.491  0.00  0.00    +0.000 A 
ATOM      4  N   UNL     1       1.707   5.854  21.076  0.00  0.00    +0.000 N 
ATOM      5  C   UNL     1       2.273   4.772  20.437  0.00  0.00    +0.000 A 
ATOM      6  C   UNL     1       2.786   4.849  19.193  0.00  0.00    +0.000 A 
ATOM      7  C   UNL     1       2.747   6.157  18.479  0.00  0.00    +0.000 A 
ATOM      8  O   UNL     1       3.177   6.270  17.338  0.00  0.00    +0.000 OA
ATOM      9  C   UNL     1       2.166   7.316  19.192  0.00  0.00    +0.000 A 
ATOM     10  C   UNL     1       2.103   8.563  18.569  0.00  0.00    +0.000 A 
ATOM     11  C   UNL     1       1.522   9.635  19.244  0.00  0.00    +0.000 A 
ATOM     12 CL   UNL     1       1.456  11.161  18.435  0.00  0.00    +0.000 Cl
ATOM     13  C   UNL     1       3.427   3.706  18.460  0.00  0.00    +0.000 C 
ATOM     14  C   UNL     1       3.711   2.522  19.371  0.00  0.00    +0.000 C 
ATOM     15  F   UNL     1       4.841   2.754  20.091  0.00  0.00    +0.000 F 
ATOM     16  F   UNL     1       3.954   1.417  18.623  0.00  0.00    +0.000 F 
ATOM     17  C   UNL     1       2.565   2.242  20.322  0.00  0.00    +0.000 C 
ATOM     18  C   UNL     1       2.287   3.461  21.201  0.00  0.00    +0.000 C 
ATOM     19  H   UNL     1       1.451   5.758  22.053  0.00  0.00    +0.000 HD
ENDROOT
BRANCH   1  21
ATOM     20  C   UNL     1      -0.230  10.358  22.368  0.00  0.00    +0.000 C 
ATOM     21  O   UNL     1       0.419  10.565  21.120  0.00  0.00    +0.000 OA
ENDBRANCH   1  21
TORSDOF 1
ENDMDL
MODEL 8
REMARK VINA RESULT:      -6.8      4.016      6.848
REMARK  Name = 
REMARK  2 active torsions:
REMARK  status: ('A' for Active; 'I' for Inactive)
REMARK    1  A    between atoms: C_1  and  O_2
REMARK    2  A    between atoms: O_2  and  C_3
REMARK                            x       y       z     vdW  Elec       q    Type
REMARK                         _______ _______ _______ _____ _____    ______ ____
ROOT
ATOM      1  C   UNL     1       1.338  10.471  18.831  0.00  0.00    +0.000 A 
ATOM      2  C   UNL     1       2.127   9.656  18.005  0.00  0.00    +0.000 A 
ATOM      3  C   UNL     1       2.386   8.325  18.356  0.00  0.00    +0.000 A 
ATOM      4  N   UNL     1       3.211   7.517  17.562  0.00  0.00    +0.000 N 
ATOM      5  C   UNL     1       3.485   6.206  17.891  0.00  0.00    +0.000 A 
ATOM      6  C   UNL     1       3.022   5.628  19.017  0.00  0.00    +0.000 A 
ATOM      7  C   UNL     1       2.175   6.433  19.943  0.00  0.00    +0.000 A 
ATOM      8  O   UNL     1       1.753   5.959  20.991  0.00  0.00    +0.000 OA
ATOM      9  C   UNL     1       1.864   7.827  19.558  0.00  0.00    +0.000 A 
ATOM     10  C   UNL     1       1.076   8.624  20.390  0.00  0.00    +0.000 A 
ATOM     11  C   UNL     1       0.821   9.945  20.027  0.00  0.00    +0.000 A 
ATOM     12 CL   UNL     1      -0.151  10.904  21.088  0.00  0.00    +0.000 Cl
ATOM     13  C   UNL     1       3.278   4.202  19.413  0.00  0.00    +0.000 C 
ATOM     14  C   UNL     1       3.863   3.382  18.274  0.00  0.00    +0.000 C 
ATOM     15  F   UNL     1       2.875   3.015  17.415  0.00  0.00    +0.000 F 
ATOM     16  F   UNL     1       4.392   2.233  18.762  0.00  0.00    +0.000 F 
ATOM     17  C   UNL     1       4.929   4.141  17.509  0.00  0.00    +0.000 C 
ATOM     18  C   UNL     1       4.353   5.429  16.920  0.00  0.00    +0.000 C 
ATOM     19  H   UNL     1       3.487   7.852  16.645  0.00  0.00    +0.000 HD
ENDROOT
BRANCH   1  21
ATOM     20  C   UNL     1       2.160  12.702  18.721  0.00  0.00    +0.000 C 
ATOM     21  O   UNL     1       1.077  11.793  18.570  0.00  0.00    +0.000 OA
ENDBRANCH   1  21
TORSDOF 1
ENDMDL
MODEL 9
REMARK VINA RESULT:      -6.7      1.336      1.567
REMARK  Name = 
REMARK  2 active torsions:
REMARK  status: ('A' for Active; 'I' for Inactive)
REMARK    1  A    between atoms: C_1  and  O_2
REMARK    2  A    between atoms: O_2  and  C_3
REMARK                            x       y       z     vdW  Elec       q    Type
REMARK                         _______ _______ _______ _____ _____    ______ ____
ROOT
ATOM      1  C   UNL     1       2.782   5.129  19.834  0.00  0.00    +0.000 A 
ATOM      2  C   UNL     1       2.084   6.002  20.681  0.00  0.00    +0.000 A 
ATOM      3  C   UNL     1       1.729   7.285  20.247  0.00  0.00    +0.000 A 
ATOM      4  N   UNL     1       1.073   8.182  21.102  0.00  0.00    +0.000 N 
ATOM      5  C   UNL     1       0.719   9.451  20.697  0.00  0.00    +0.000 A 
ATOM      6  C   UNL     1       1.019   9.934  19.476  0.00  0.00    +0.000 A 
ATOM      7  C   UNL     1       1.758   9.062  18.519  0.00  0.00    +0.000 A 
ATOM      8  O   UNL     1       2.076   9.467  17.407  0.00  0.00    +0.000 OA
ATOM      9  C   UNL     1       2.101   7.691  18.957  0.00  0.00    +0.000 A 
ATOM     10  C   UNL     1       2.794   6.835  18.101  0.00  0.00    +0.000 A 
ATOM     11  C   UNL     1       3.137   5.559  18.544  0.00  0.00    +0.000 A 
ATOM     12 CL   UNL     1       4.003   4.530  17.457  0.00  0.00    +0.000 Cl
ATOM     13  C   UNL     1       0.643  11.302  18.982  0.00  0.00    +0.000 C 
ATOM     14  C   UNL     1      -0.371  11.984  19.886  0.00  0.00    +0.000 C 
ATOM     15  F   UNL     1      -1.615  11.500  19.632  0.00  0.00    +0.000 F 
ATOM     16  F   UNL     1      -0.412  13.311  19.606  0.00  0.00    +0.000 F 
ATOM     17  C   UNL     1      -0.052  11.790  21.354  0.00  0.00    +0.000 C 
ATOM     18  C   UNL     1      -0.029  10.302  21.706  0.00  0.00    +0.000 C 
ATOM     19  H   UNL     1       0.711   7.838  21.985  0.00  0.00    +0.000 HD
ENDROOT
BRANCH   1  21
ATOM     20  C   UNL     1       2.463   3.242  21.247  0.00  0.00    +0.000 C 
ATOM     21  O   UNL     1       3.196   3.875  20.206  0.00  0.00    +0.000 OA
ENDBRANCH   1  21
TORSDOF 1
ENDMDL
