MODEL 1
REMARK VINA RESULT:      -8.0      0.000      0.000
REMARK  Name = 
REMARK  8 active torsions:
REMARK  status: ('A' for Active; 'I' for Inactive)
REMARK    1  A    between atoms: C_1  and  N_2
REMARK    2  A    between atoms: N_2  and  C_3
REMARK    3  A    between atoms: N_2  and  C_4
REMARK    4  A    between atoms: C_4  and  C_5
REMARK    5  A    between atoms: C_5  and  C_6
REMARK    6  A    between atoms: C_6  and  N_7
REMARK    7  A    between atoms: C_6  and  C_20
REMARK    8  A    between atoms: C_8  and  C_10
REMARK                            x       y       z     vdW  Elec       q    Type
REMARK                         _______ _______ _______ _____ _____    ______ ____
ROOT
ATOM      1  N   UNL     1       3.325   5.636  17.752  0.00  0.00    +0.000 N 
ATOM      2  C   UNL     1       3.139   6.101  19.039  0.00  0.00    +0.000 C 
ATOM      3  O   UNL     1       3.543   5.505  20.033  0.00  0.00    +0.000 OA
ATOM      4  H   UNL     1       3.162   6.260  16.974  0.00  0.00    +0.000 HD
ENDROOT
BRANCH   2   5
ATOM      5  C   UNL     1       2.388   7.381  19.201  0.00  0.00    +0.000 A 
ATOM      6  C   UNL     1       2.147   8.239  18.125  0.00  0.00    +0.000 A 
ATOM      7  C   UNL     1       1.344   9.371  18.298  0.00  0.00    +0.000 A 
ATOM      8  C   UNL     1       0.758   9.658  19.541  0.00  0.00    +0.000 A 
ATOM      9  C   UNL     1      -0.093  10.761  19.708  0.00  0.00    +0.000 A 
ATOM     10  C   UNL     1      -0.683  11.028  20.945  0.00  0.00    +0.000 A 
ATOM     11  C   UNL     1      -0.415  10.204  22.037  0.00  0.00    +0.000 A 
ATOM     12  C   UNL     1       0.433   9.104  21.885  0.00  0.00    +0.000 A 
ATOM     13  C   UNL     1       1.017   8.808  20.641  0.00  0.00    +0.000 A 
ATOM     14  C   UNL     1       1.830   7.676  20.456  0.00  0.00    +0.000 A 
ENDBRANCH   2   5
BRANCH   1  15
ATOM     15  C   UNL     1       4.043   4.388  17.490  0.00  0.00    +0.000 C 
BRANCH  15  16
ATOM     16  C   UNL     1       5.039   4.569  16.355  0.00  0.00    +0.000 A 
ATOM     17  C   UNL     1       5.963   5.629  16.405  0.00  0.00    +0.000 A 
ATOM     18  C   UNL     1       6.897   5.813  15.382  0.00  0.00    +0.000 A 
ATOM     19  C   UNL     1       6.908   4.946  14.293  0.00  0.00    +0.000 A 
ATOM     20 CL   UNL     1       8.045   5.180  13.023  0.00  0.00    +0.000 Cl
ATOM     21  C   UNL     1       6.000   3.891  14.224  0.00  0.00    +0.000 A 
ATOM     22  C   UNL     1       5.072   3.700  15.253  0.00  0.00    +0.000 A 
ENDBRANCH  15  16
BRANCH  15  23
ATOM     23  C   UNL     1       3.039   3.244  17.247  0.00  0.00    +0.000 C 
BRANCH  23  24
ATOM     24  C   UNL     1       3.172   2.101  18.270  0.00  0.00    +0.000 C 
BRANCH  24  26
ATOM     25  C   UNL     1       2.353   2.410  20.515  0.00  0.00    +0.000 C 
ATOM     26  N   UNL     1       2.004   1.954  19.163  0.00  0.00    +0.000 NA
ATOM     27  C   UNL     1       0.836   2.702  18.694  0.00  0.00    +0.000 C 
ENDBRANCH  24  26
ENDBRANCH  23  24
ENDBRANCH  15  23
ENDBRANCH   1  15
TORSDOF 6
ENDMDL
MODEL 2
REMARK VINA RESULT:      -8.0      1.208      1.831
REMARK  Name = 
REMARK  8 active torsions:
REMARK  status: ('A' for Active; 'I' for Inactive)
REMARK    1  A    between atoms: C_1  and  N_2
REMARK    2  A    between atoms: N_2  and  C_3
REMARK    3  A    between atoms: N_2  and  C_4
REMARK    4  A    between atoms: C_4  and  C_5
REMARK    5  A    between atoms: C_5  and  C_6
REMARK    6  A    between atoms: C_6  and  N_7
REMARK    7  A    between atoms: C_6  and  C_20
REMARK    8  A    between atoms: C_8  and  C_10
REMARK                            x       y       z     vdW  Elec       q    Type
REMARK                         _______ _______ _______ _____ _____    ______ ____
ROOT
ATOM      1  N   UNL     1       2.553   6.348  18.729  0.00  0.00    +0.000 N 
ATOM      2  C   UNL     1       2.080   6.704  19.977  0.00  0.00    +0.000 C 
ATOM      3  O   UNL     1       2.085   5.943  20.939  0.00  0.00    +0.000 OA
ATOM      4  H   UNL     1       2.719   7.068  18.040  0.00  0.00    +0.000 HD
ENDROOT
BRANCH   2   5
ATOM      5  C   UNL     1       1.523   8.080  20.128  0.00  0.00    +0.000 A 
ATOM      6  C   UNL     1       1.488   8.986  19.065  0.00  0.00    +0.000 A 
ATOM      7  C   UNL     1       0.856  10.224  19.219  0.00  0.00    +0.000 A 
ATOM      8  C   UNL     1       0.236  10.573  20.429  0.00  0.00    +0.000 A 
ATOM      9  C   UNL     1      -0.448  11.789  20.574  0.00  0.00    +0.000 A 
ATOM     10  C   UNL     1      -1.073  12.119  21.778  0.00  0.00    +0.000 A 
ATOM     11  C   UNL     1      -1.009  11.242  22.860  0.00  0.00    +0.000 A 
ATOM     12  C   UNL     1      -0.329  10.029  22.730  0.00  0.00    +0.000 A 
ATOM     13  C   UNL     1       0.288   9.671  21.518  0.00  0.00    +0.000 A 
ATOM     14  C   UNL     1       0.931   8.432  21.352  0.00  0.00    +0.000 A 
ENDBRANCH   2   5
BRANCH   1  15
ATOM     15  C   UNL     1       3.114   5.019  18.478  0.00  0.00    +0.000 C 
BRANCH  15  16
ATOM     16  C   UNL     1       4.123   5.066  17.342  0.00  0.00    +0.000 A 
ATOM     17  C   UNL     1       4.639   3.865  16.821  0.00  0.00    +0.000 A 
ATOM     18  C   UNL     1       5.559   3.878  15.770  0.00  0.00    +0.000 A 
ATOM     19  C   UNL     1       5.982   5.092  15.237  0.00  0.00    +0.000 A 
ATOM     20 CL   UNL     1       7.129   5.112  13.954  0.00  0.00    +0.000 Cl
ATOM     21  C   UNL     1       5.484   6.293  15.740  0.00  0.00    +0.000 A 
ATOM     22  C   UNL     1       4.555   6.280  16.784  0.00  0.00    +0.000 A 
ENDBRANCH  15  16
BRANCH  15  23
ATOM     23  C   UNL     1       1.978   4.003  18.247  0.00  0.00    +0.000 C 
BRANCH  23  24
ATOM     24  C   UNL     1       2.084   2.766  19.158  0.00  0.00    +0.000 C 
BRANCH  24  26
ATOM     25  C   UNL     1       2.440   2.571  21.533  0.00  0.00    +0.000 C 
ATOM     26  N   UNL     1       3.071   2.907  20.250  0.00  0.00    +0.000 NA
ATOM     27  C   UNL     1       4.248   2.057  20.061  0.00  0.00    +0.000 C 
ENDBRANCH  24  26
ENDBRANCH  23  24
ENDBRANCH  15  23
ENDBRANCH   1  15
TORSDOF 6
ENDMDL
MODEL 3
REMARK VINA RESULT:      -7.9      0.830      1.184
REMARK  Name = 
REMARK  8 active torsions:
REMARK  status: ('A' for Active; 'I' for Inactive)
REMARK    1  A    between atoms: C_1  and  N_2
REMARK    2  A    between atoms: N_2  and  C_3
REMARK    3  A    between atoms: N_2  and  C_4
REMARK    4  A    between atoms: C_4  and  C_5
REMARK    5  A    between atoms: C_5  and  C_6
REMARK    6  A    between atoms: C_6  and  N_7
REMARK    7  A    between atoms: C_6  and  C_20
REMARK    8  A    between atoms: C_8  and  C_10
REMARK                            x       y       z     vdW  Elec       q    Type
REMARK                         _______ _______ _______ _____ _____    ______ ____
ROOT
ATOM      1  N   UNL     1       2.957   5.952  18.344  0.00  0.00    +0.000 N 
ATOM      2  C   UNL     1       2.637   6.329  19.633  0.00  0.00    +0.000 C 
ATOM      3  O   UNL     1       2.867   5.629  20.614  0.00  0.00    +0.000 OA
ATOM      4  H   UNL     1       2.940   6.645  17.609  0.00  0.00    +0.000 HD
ENDROOT
BRANCH   2   5
ATOM      5  C   UNL     1       1.960   7.647  19.811  0.00  0.00    +0.000 A 
ATOM      6  C   UNL     1       1.794   8.543  18.752  0.00  0.00    +0.000 A 
ATOM      7  C   UNL     1       1.056   9.717  18.935  0.00  0.00    +0.000 A 
ATOM      8  C   UNL     1       0.460  10.009  20.172  0.00  0.00    +0.000 A 
ATOM      9  C   UNL     1      -0.328  11.157  20.349  0.00  0.00    +0.000 A 
ATOM     10  C   UNL     1      -0.928  11.430  21.579  0.00  0.00    +0.000 A 
ATOM     11  C   UNL     1      -0.734  10.566  22.656  0.00  0.00    +0.000 A 
ATOM     12  C   UNL     1       0.050   9.421  22.495  0.00  0.00    +0.000 A 
ATOM     13  C   UNL     1       0.644   9.120  21.257  0.00  0.00    +0.000 A 
ATOM     14  C   UNL     1       1.392   7.945  21.060  0.00  0.00    +0.000 A 
ENDBRANCH   2   5
BRANCH   1  15
ATOM     15  C   UNL     1       3.617   4.676  18.065  0.00  0.00    +0.000 C 
BRANCH  15  16
ATOM     16  C   UNL     1       4.575   4.810  16.893  0.00  0.00    +0.000 A 
ATOM     17  C   UNL     1       5.157   3.656  16.336  0.00  0.00    +0.000 A 
ATOM     18  C   UNL     1       6.032   3.748  15.250  0.00  0.00    +0.000 A 
ATOM     19  C   UNL     1       6.346   4.996  14.719  0.00  0.00    +0.000 A 
ATOM     20 CL   UNL     1       7.437   5.114  13.395  0.00  0.00    +0.000 Cl
ATOM     21  C   UNL     1       5.782   6.151  15.258  0.00  0.00    +0.000 A 
ATOM     22  C   UNL     1       4.897   6.059  16.337  0.00  0.00    +0.000 A 
ENDBRANCH  15  16
BRANCH  15  23
ATOM     23  C   UNL     1       2.562   3.568  17.872  0.00  0.00    +0.000 C 
BRANCH  23  24
ATOM     24  C   UNL     1       2.756   2.381  18.831  0.00  0.00    +0.000 C 
BRANCH  24  26
ATOM     25  C   UNL     1       2.218   2.461  21.179  0.00  0.00    +0.000 C 
ATOM     26  N   UNL     1       1.678   2.234  19.832  0.00  0.00    +0.000 NA
ATOM     27  C   UNL     1       0.565   3.158  19.603  0.00  0.00    +0.000 C 
ENDBRANCH  24  26
ENDBRANCH  23  24
ENDBRANCH  15  23
ENDBRANCH   1  15
TORSDOF 6
ENDMDL
MODEL 4
REMARK VINA RESULT:      -7.9      1.060      1.398
REMARK  Name = 
REMARK  8 active torsions:
REMARK  status: ('A' for Active; 'I' for Inactive)
REMARK    1  A    between atoms: C_1  and  N_2
REMARK    2  A    between atoms: N_2  and  C_3
REMARK    3  A    between atoms: N_2  and  C_4
REMARK    4  A    between atoms: C_4  and  C_5
REMARK    5  A    between atoms: C_5  and  C_6
REMARK    6  A    between atoms: C_6  and  N_7
REMARK    7  A    between atoms: C_6  and  C_20
REMARK    8  A    between atoms: C_8  and  C_10
REMARK                            x       y       z     vdW  Elec       q    Type
REMARK                         _______ _______ _______ _____ _____    ______ ____
ROOT
ATOM      1  N   UNL     1       4.274   5.725  18.831  0.00  0.00    +0.000 N 
ATOM      2  C   UNL     1       2.984   5.977  18.408  0.00  0.00    +0.000 C 
ATOM      3  O   UNL     1       2.341   5.196  17.713  0.00  0.00    +0.000 OA
ATOM      4  H   UNL     1       4.673   6.294  19.565  0.00  0.00    +0.000 HD
ENDROOT
BRANCH   2   5
ATOM      5  C   UNL     1       2.375   7.278  18.813  0.00  0.00    +0.000 A 
ATOM      6  C   UNL     1       2.117   8.293  17.890  0.00  0.00    +0.000 A 
ATOM      7  C   UNL     1       1.443   9.451  18.291  0.00  0.00    +0.000 A 
ATOM      8  C   UNL     1       1.003   9.609  19.615  0.00  0.00    +0.000 A 
ATOM      9  C   UNL     1       0.278  10.742  20.012  0.00  0.00    +0.000 A 
ATOM     10  C   UNL     1      -0.167  10.882  21.328  0.00  0.00    +0.000 A 
ATOM     11  C   UNL     1       0.122   9.894  22.270  0.00  0.00    +0.000 A 
ATOM     12  C   UNL     1       0.845   8.762  21.888  0.00  0.00    +0.000 A 
ATOM     13  C   UNL     1       1.282   8.596  20.562  0.00  0.00    +0.000 A 
ATOM     14  C   UNL     1       1.965   7.439  20.147  0.00  0.00    +0.000 A 
ENDBRANCH   2   5
BRANCH   1  15
ATOM     15  C   UNL     1       4.961   4.480  18.482  0.00  0.00    +0.000 C 
BRANCH  15  16
ATOM     16  C   UNL     1       5.619   4.593  17.117  0.00  0.00    +0.000 A 
ATOM     17  C   UNL     1       4.944   4.114  15.979  0.00  0.00    +0.000 A 
ATOM     18  C   UNL     1       5.520   4.215  14.710  0.00  0.00    +0.000 A 
ATOM     19  C   UNL     1       6.783   4.783  14.567  0.00  0.00    +0.000 A 
ATOM     20 CL   UNL     1       7.502   4.891  13.008  0.00  0.00    +0.000 Cl
ATOM     21  C   UNL     1       7.469   5.260  15.682  0.00  0.00    +0.000 A 
ATOM     22  C   UNL     1       6.888   5.171  16.951  0.00  0.00    +0.000 A 
ENDBRANCH  15  16
BRANCH  15  23
ATOM     23  C   UNL     1       3.986   3.291  18.597  0.00  0.00    +0.000 C 
BRANCH  23  24
ATOM     24  C   UNL     1       3.925   2.699  20.016  0.00  0.00    +0.000 C 
BRANCH  24  26
ATOM     25  C   UNL     1       2.189   3.805  21.270  0.00  0.00    +0.000 C 
ATOM     26  N   UNL     1       2.555   2.573  20.557  0.00  0.00    +0.000 NA
ATOM     27  C   UNL     1       1.559   2.310  19.517  0.00  0.00    +0.000 C 
ENDBRANCH  24  26
ENDBRANCH  23  24
ENDBRANCH  15  23
ENDBRANCH   1  15
TORSDOF 6
ENDMDL
MODEL 5
REMARK VINA RESULT:      -7.8      1.058      1.262
REMARK  Name = 
REMARK  8 active torsions:
REMARK  status: ('A' for Active; 'I' for Inactive)
REMARK    1  A    between atoms: C_1  and  N_2
REMARK    2  A    between atoms: N_2  and  C_3
REMARK    3  A    between atoms: N_2  and  C_4
REMARK    4  A    between atoms: C_4  and  C_5
REMARK    5  A    between atoms: C_5  and  C_6
REMARK    6  A    between atoms: C_6  and  N_7
REMARK    7  A    between atoms: C_6  and  C_20
REMARK    8  A    between atoms: C_8  and  C_10
REMARK                            x       y       z     vdW  Elec       q    Type
REMARK                         _______ _______ _______ _____ _____    ______ ____
ROOT
ATOM      1  N   UNL     1       4.211   5.643  18.788  0.00  0.00    +0.000 N 
ATOM      2  C   UNL     1       2.944   5.952  18.332  0.00  0.00    +0.000 C 
ATOM      3  O   UNL     1       2.308   5.225  17.575  0.00  0.00    +0.000 OA
ATOM      4  H   UNL     1       4.597   6.164  19.563  0.00  0.00    +0.000 HD
ENDROOT
BRANCH   2   5
ATOM      5  C   UNL     1       2.354   7.246  18.781  0.00  0.00    +0.000 A 
ATOM      6  C   UNL     1       2.068   8.280  17.886  0.00  0.00    +0.000 A 
ATOM      7  C   UNL     1       1.412   9.432  18.332  0.00  0.00    +0.000 A 
ATOM      8  C   UNL     1       1.019   9.566  19.673  0.00  0.00    +0.000 A 
ATOM      9  C   UNL     1       0.311  10.695  20.115  0.00  0.00    +0.000 A 
ATOM     10  C   UNL     1      -0.088  10.811  21.448  0.00  0.00    +0.000 A 
ATOM     11  C   UNL     1       0.230   9.806  22.361  0.00  0.00    +0.000 A 
ATOM     12  C   UNL     1       0.936   8.678  21.934  0.00  0.00    +0.000 A 
ATOM     13  C   UNL     1       1.326   8.535  20.591  0.00  0.00    +0.000 A 
ATOM     14  C   UNL     1       1.990   7.384  20.131  0.00  0.00    +0.000 A 
ENDBRANCH   2   5
BRANCH   1  15
ATOM     15  C   UNL     1       4.878   4.399  18.400  0.00  0.00    +0.000 C 
BRANCH  15  16
ATOM     16  C   UNL     1       5.557   4.551  17.048  0.00  0.00    +0.000 A 
ATOM     17  C   UNL     1       6.818   5.170  16.969  0.00  0.00    +0.000 A 
ATOM     18  C   UNL     1       7.470   5.313  15.742  0.00  0.00    +0.000 A 
ATOM     19  C   UNL     1       6.862   4.851  14.578  0.00  0.00    +0.000 A 
ATOM     20 CL   UNL     1       7.654   5.042  13.063  0.00  0.00    +0.000 Cl
ATOM     21  C   UNL     1       5.611   4.237  14.635  0.00  0.00    +0.000 A 
ATOM     22  C   UNL     1       4.964   4.084  15.864  0.00  0.00    +0.000 A 
ENDBRANCH  15  16
BRANCH  15  23
ATOM     23  C   UNL     1       3.879   3.226  18.456  0.00  0.00    +0.000 C 
BRANCH  23  24
ATOM     24  C   UNL     1       3.593   2.750  19.891  0.00  0.00    +0.000 C 
BRANCH  24  26
ATOM     25  C   UNL     1       1.189   2.720  19.722  0.00  0.00    +0.000 C 
ATOM     26  N   UNL     1       2.333   3.274  20.459  0.00  0.00    +0.000 NA
ATOM     27  C   UNL     1       2.180   2.961  21.881  0.00  0.00    +0.000 C 
ENDBRANCH  24  26
ENDBRANCH  23  24
ENDBRANCH  15  23
ENDBRANCH   1  15
TORSDOF 6
ENDMDL
MODEL 6
REMARK VINA RESULT:      -7.6      3.977      8.723
REMARK  Name = 
REMARK  8 active torsions:
REMARK  status: ('A' for Active; 'I' for Inactive)
REMARK    1  A    between atoms: C_1  and  N_2
REMARK    2  A    between atoms: N_2  and  C_3
REMARK    3  A    between atoms: N_2  and  C_4
REMARK    4  A    between atoms: C_4  and  C_5
REMARK    5  A    between atoms: C_5  and  C_6
REMARK    6  A    between atoms: C_6  and  N_7
REMARK    7  A    between atoms: C_6  and  C_20
REMARK    8  A    between atoms: C_8  and  C_10
REMARK                            x       y       z     vdW  Elec       q    Type
REMARK                         _______ _______ _______ _____ _____    ______ ____
ROOT
ATOM      1  N   UNL     1       1.239   9.204  19.214  0.00  0.00    +0.000 N 
ATOM      2  C   UNL     1       1.639   8.136  19.992  0.00  0.00    +0.000 C 
ATOM      3  O   UNL     1       1.394   8.050  21.191  0.00  0.00    +0.000 OA
ATOM      4  H   UNL     1       1.281   9.125  18.208  0.00  0.00    +0.000 HD
ENDROOT
BRANCH   2   5
ATOM      5  C   UNL     1       2.422   7.058  19.320  0.00  0.00    +0.000 A 
ATOM      6  C   UNL     1       2.263   5.710  19.651  0.00  0.00    +0.000 A 
ATOM      7  C   UNL     1       2.934   4.725  18.920  0.00  0.00    +0.000 A 
ATOM      8  C   UNL     1       3.763   5.066  17.839  0.00  0.00    +0.000 A 
ATOM      9  C   UNL     1       4.396   4.080  17.067  0.00  0.00    +0.000 A 
ATOM     10  C   UNL     1       5.206   4.430  15.985  0.00  0.00    +0.000 A 
ATOM     11  C   UNL     1       5.407   5.774  15.671  0.00  0.00    +0.000 A 
ATOM     12  C   UNL     1       4.785   6.765  16.434  0.00  0.00    +0.000 A 
ATOM     13  C   UNL     1       3.949   6.429  17.513  0.00  0.00    +0.000 A 
ATOM     14  C   UNL     1       3.273   7.411  18.259  0.00  0.00    +0.000 A 
ENDBRANCH   2   5
BRANCH   1  15
ATOM     15  C   UNL     1       0.470  10.314  19.781  0.00  0.00    +0.000 C 
BRANCH  15  16
ATOM     16  C   UNL     1      -0.779  10.580  18.957  0.00  0.00    +0.000 A 
ATOM     17  C   UNL     1      -1.738  11.496  19.427  0.00  0.00    +0.000 A 
ATOM     18  C   UNL     1      -2.890  11.769  18.685  0.00  0.00    +0.000 A 
ATOM     19  C   UNL     1      -3.102  11.119  17.472  0.00  0.00    +0.000 A 
ATOM     20 CL   UNL     1      -4.528  11.439  16.565  0.00  0.00    +0.000 Cl
ATOM     21  C   UNL     1      -2.165  10.207  16.991  0.00  0.00    +0.000 A 
ATOM     22  C   UNL     1      -1.006   9.942  17.727  0.00  0.00    +0.000 A 
ENDBRANCH  15  16
BRANCH  15  23
ATOM     23  C   UNL     1       1.374  11.552  19.942  0.00  0.00    +0.000 C 
BRANCH  23  24
ATOM     24  C   UNL     1       1.959  12.047  18.607  0.00  0.00    +0.000 C 
BRANCH  24  26
ATOM     25  C   UNL     1       0.917  14.059  19.426  0.00  0.00    +0.000 C 
ATOM     26  N   UNL     1       1.675  13.468  18.316  0.00  0.00    +0.000 NA
ATOM     27  C   UNL     1       2.891  14.254  18.097  0.00  0.00    +0.000 C 
ENDBRANCH  24  26
ENDBRANCH  23  24
ENDBRANCH  15  23
ENDBRANCH   1  15
TORSDOF 6
ENDMDL
MODEL 7
REMARK VINA RESULT:      -7.6      0.898      1.687
REMARK  Name = 
REMARK  8 active torsions:
REMARK  status: ('A' for Active; 'I' for Inactive)
REMARK    1  A    between atoms: C_1  and  N_2
REMARK    2  A    between atoms: N_2  and  C_3
REMARK    3  A    between atoms: N_2  and  C_4
REMARK    4  A    between atoms: C_4  and  C_5
REMARK    5  A    between atoms: C_5  and  C_6
REMARK    6  A    between atoms: C_6  and  N_7
REMARK    7  A    between atoms: C_6  and  C_20
REMARK    8  A    between atoms: C_8  and  C_10
REMARK                            x       y       z     vdW  Elec       q    Type
REMARK                         _______ _______ _______ _____ _____    ______ ____
ROOT
ATOM      1  N   UNL     1       3.384   4.772  18.148  0.00  0.00    +0.000 N 
ATOM      2  C   UNL     1       3.677   5.616  19.200  0.00  0.00    +0.000 C 
ATOM      3  O   UNL     1       4.685   5.502  19.891  0.00  0.00    +0.000 OA
ATOM      4  H   UNL     1       2.663   5.035  17.490  0.00  0.00    +0.000 HD
ENDROOT
BRANCH   2   5
ATOM      5  C   UNL     1       2.693   6.697  19.503  0.00  0.00    +0.000 A 
ATOM      6  C   UNL     1       1.970   6.726  20.698  0.00  0.00    +0.000 A 
ATOM      7  C   UNL     1       1.142   7.815  20.990  0.00  0.00    +0.000 A 
ATOM      8  C   UNL     1       1.034   8.898  20.104  0.00  0.00    +0.000 A 
ATOM      9  C   UNL     1       0.250  10.019  20.415  0.00  0.00    +0.000 A 
ATOM     10  C   UNL     1       0.161  11.097  19.533  0.00  0.00    +0.000 A 
ATOM     11  C   UNL     1       0.844  11.061  18.318  0.00  0.00    +0.000 A 
ATOM     12  C   UNL     1       1.627   9.950  17.994  0.00  0.00    +0.000 A 
ATOM     13  C   UNL     1       1.744   8.865  18.881  0.00  0.00    +0.000 A 
ATOM     14  C   UNL     1       2.569   7.762  18.597  0.00  0.00    +0.000 A 
ENDBRANCH   2   5
BRANCH   1  15
ATOM     15  C   UNL     1       4.282   3.679  17.775  0.00  0.00    +0.000 C 
BRANCH  15  16
ATOM     16  C   UNL     1       5.167   4.083  16.606  0.00  0.00    +0.000 A 
ATOM     17  C   UNL     1       6.451   4.602  16.855  0.00  0.00    +0.000 A 
ATOM     18  C   UNL     1       7.290   4.972  15.801  0.00  0.00    +0.000 A 
ATOM     19  C   UNL     1       6.849   4.839  14.487  0.00  0.00    +0.000 A 
ATOM     20 CL   UNL     1       7.872   5.310  13.187  0.00  0.00    +0.000 Cl
ATOM     21  C   UNL     1       5.579   4.329  14.220  0.00  0.00    +0.000 A 
ATOM     22  C   UNL     1       4.744   3.949  15.275  0.00  0.00    +0.000 A 
ENDBRANCH  15  16
BRANCH  15  23
ATOM     23  C   UNL     1       3.470   2.395  17.513  0.00  0.00    +0.000 C 
BRANCH  23  24
ATOM     24  C   UNL     1       3.257   1.550  18.781  0.00  0.00    +0.000 C 
BRANCH  24  26
ATOM     25  C   UNL     1       2.170   2.628  20.642  0.00  0.00    +0.000 C 
ATOM     26  N   UNL     1       1.963   1.790  19.454  0.00  0.00    +0.000 NA
ATOM     27  C   UNL     1       0.983   2.437  18.579  0.00  0.00    +0.000 C 
ENDBRANCH  24  26
ENDBRANCH  23  24
ENDBRANCH  15  23
ENDBRANCH   1  15
TORSDOF 6
ENDMDL
MODEL 8
REMARK VINA RESULT:      -7.6      1.235      2.154
REMARK  Name = 
REMARK  8 active torsions:
REMARK  status: ('A' for Active; 'I' for Inactive)
REMARK    1  A    between atoms: C_1  and  N_2
REMARK    2  A    between atoms: N_2  and  C_3
REMARK    3  A    between atoms: N_2  and  C_4
REMARK    4  A    between atoms: C_4  and  C_5
REMARK    5  A    between atoms: C_5  and  C_6
REMARK    6  A    between atoms: C_6  and  N_7
REMARK    7  A    between atoms: C_6  and  C_20
REMARK    8  A    between atoms: C_8  and  C_10
REMARK                            x       y       z     vdW  Elec       q    Type
REMARK                         _______ _______ _______ _____ _____    ______ ____
ROOT
ATOM      1  N   UNL     1       4.142   5.274  19.489  0.00  0.00    +0.000 N 
ATOM      2  C   UNL     1       3.045   5.707  18.772  0.00  0.00    +0.000 C 
ATOM      3  O   UNL     1       2.680   5.185  17.723  0.00  0.00    +0.000 OA
ATOM      4  H   UNL     1       4.270   5.597  20.438  0.00  0.00    +0.000 HD
ENDROOT
BRANCH   2   5
ATOM      5  C   UNL     1       2.297   6.881  19.310  0.00  0.00    +0.000 A 
ATOM      6  C   UNL     1       1.775   6.896  20.606  0.00  0.00    +0.000 A 
ATOM      7  C   UNL     1       1.180   8.057  21.109  0.00  0.00    +0.000 A 
ATOM      8  C   UNL     1       1.108   9.226  20.334  0.00  0.00    +0.000 A 
ATOM      9  C   UNL     1       0.562  10.411  20.851  0.00  0.00    +0.000 A 
ATOM     10  C   UNL     1       0.510  11.571  20.077  0.00  0.00    +0.000 A 
ATOM     11  C   UNL     1       0.988  11.557  18.767  0.00  0.00    +0.000 A 
ATOM     12  C   UNL     1       1.531  10.383  18.239  0.00  0.00    +0.000 A 
ATOM     13  C   UNL     1       1.612   9.212  19.013  0.00  0.00    +0.000 A 
ATOM     14  C   UNL     1       2.203   8.036  18.517  0.00  0.00    +0.000 A 
ENDBRANCH   2   5
BRANCH   1  15
ATOM     15  C   UNL     1       4.944   4.135  19.041  0.00  0.00    +0.000 C 
BRANCH  15  16
ATOM     16  C   UNL     1       5.608   4.435  17.707  0.00  0.00    +0.000 A 
ATOM     17  C   UNL     1       5.311   3.635  16.588  0.00  0.00    +0.000 A 
ATOM     18  C   UNL     1       5.898   3.894  15.347  0.00  0.00    +0.000 A 
ATOM     19  C   UNL     1       6.798   4.948  15.214  0.00  0.00    +0.000 A 
ATOM     20 CL   UNL     1       7.536   5.258  13.692  0.00  0.00    +0.000 Cl
ATOM     21  C   UNL     1       7.107   5.750  16.311  0.00  0.00    +0.000 A 
ATOM     22  C   UNL     1       6.512   5.498  17.551  0.00  0.00    +0.000 A 
ENDBRANCH  15  16
BRANCH  15  23
ATOM     23  C   UNL     1       4.080   2.858  19.022  0.00  0.00    +0.000 C 
BRANCH  23  24
ATOM     24  C   UNL     1       3.404   2.571  20.375  0.00  0.00    +0.000 C 
BRANCH  24  26
ATOM     25  C   UNL     1       1.181   3.275  20.984  0.00  0.00    +0.000 C 
ATOM     26  N   UNL     1       1.963   2.256  20.272  0.00  0.00    +0.000 NA
ATOM     27  C   UNL     1       1.499   2.181  18.885  0.00  0.00    +0.000 C 
ENDBRANCH  24  26
ENDBRANCH  23  24
ENDBRANCH  15  23
ENDBRANCH   1  15
TORSDOF 6
ENDMDL
MODEL 9
REMARK VINA RESULT:      -7.4      4.113      8.845
REMARK  Name = 
REMARK  8 active torsions:
REMARK  status: ('A' for Active; 'I' for Inactive)
REMARK    1  A    between atoms: C_1  and  N_2
REMARK    2  A    between atoms: N_2  and  C_3
REMARK    3  A    between atoms: N_2  and  C_4
REMARK    4  A    between atoms: C_4  and  C_5
REMARK    5  A    between atoms: C_5  and  C_6
REMARK    6  A    between atoms: C_6  and  N_7
REMARK    7  A    between atoms: C_6  and  C_20
REMARK    8  A    between atoms: C_8  and  C_10
REMARK                            x       y       z     vdW  Elec       q    Type
REMARK                         _______ _______ _______ _____ _____    ______ ____
ROOT
ATOM      1  N   UNL     1       1.482   9.398  18.674  0.00  0.00    +0.000 N 
ATOM      2  C   UNL     1       1.787   8.327  19.490  0.00  0.00    +0.000 C 
ATOM      3  O   UNL     1       1.506   8.292  20.685  0.00  0.00    +0.000 OA
ATOM      4  H   UNL     1       1.544   9.287  17.671  0.00  0.00    +0.000 HD
ENDROOT
BRANCH   2   5
ATOM      5  C   UNL     1       2.512   7.180  18.870  0.00  0.00    +0.000 A 
ATOM      6  C   UNL     1       2.228   5.854  19.207  0.00  0.00    +0.000 A 
ATOM      7  C   UNL     1       2.851   4.807  18.521  0.00  0.00    +0.000 A 
ATOM      8  C   UNL     1       3.756   5.064  17.478  0.00  0.00    +0.000 A 
ATOM      9  C   UNL     1       4.343   4.020  16.749  0.00  0.00    +0.000 A 
ATOM     10  C   UNL     1       5.230   4.287  15.705  0.00  0.00    +0.000 A 
ATOM     11  C   UNL     1       5.555   5.605  15.387  0.00  0.00    +0.000 A 
ATOM     12  C   UNL     1       4.980   6.655  16.107  0.00  0.00    +0.000 A 
ATOM     13  C   UNL     1       4.068   6.404  17.147  0.00  0.00    +0.000 A 
ATOM     14  C   UNL     1       3.438   7.447  17.848  0.00  0.00    +0.000 A 
ENDBRANCH   2   5
BRANCH   1  15
ATOM     15  C   UNL     1       0.777  10.572  19.189  0.00  0.00    +0.000 C 
BRANCH  15  16
ATOM     16  C   UNL     1      -0.622  10.662  18.601  0.00  0.00    +0.000 A 
ATOM     17  C   UNL     1      -1.538  11.592  19.127  0.00  0.00    +0.000 A 
ATOM     18  C   UNL     1      -2.827  11.705  18.598  0.00  0.00    +0.000 A 
ATOM     19  C   UNL     1      -3.217  10.880  17.547  0.00  0.00    +0.000 A 
ATOM     20 CL   UNL     1      -4.809  11.003  16.906  0.00  0.00    +0.000 Cl
ATOM     21  C   UNL     1      -2.325   9.951  17.014  0.00  0.00    +0.000 A 
ATOM     22  C   UNL     1      -1.032   9.846  17.535  0.00  0.00    +0.000 A 
ENDBRANCH  15  16
BRANCH  15  23
ATOM     23  C   UNL     1       1.623  11.839  18.955  0.00  0.00    +0.000 C 
BRANCH  23  24
ATOM     24  C   UNL     1       1.656  12.774  20.178  0.00  0.00    +0.000 C 
BRANCH  24  26
ATOM     25  C   UNL     1       3.140  14.301  19.048  0.00  0.00    +0.000 C 
ATOM     26  N   UNL     1       2.899  13.565  20.297  0.00  0.00    +0.000 NA
ATOM     27  C   UNL     1       2.860  14.515  21.410  0.00  0.00    +0.000 C 
ENDBRANCH  24  26
ENDBRANCH  23  24
ENDBRANCH  15  23
ENDBRANCH   1  15
TORSDOF 6
ENDMDL
