MODEL 1
REMARK VINA RESULT:      -7.3      0.000      0.000
REMARK  Name = 
REMARK  9 active torsions:
REMARK  status: ('A' for Active; 'I' for Inactive)
REMARK    1  A    between atoms: C_1  and  C_2
REMARK    2  A    between atoms: C_2  and  C_3
REMARK    3  A    between atoms: C_3  and  C_4
REMARK    4  A    between atoms: C_4  and  C_5
REMARK    5  A    between atoms: C_5  and  C_6
REMARK    6  A    between atoms: C_6  and  C_7
REMARK    7  A    between atoms: C_7  and  C_8
REMARK    8  A    between atoms: N_13  and  N_14
REMARK    9  A    between atoms: C_15  and  C_17
REMARK                            x       y       z     vdW  Elec       q    Type
REMARK                         _______ _______ _______ _____ _____    ______ ____
ROOT
ATOM      1  C   UNL     1       5.873   6.601  17.134  0.00  0.00    +0.000 C 
ATOM      2  S   UNL     1       7.452   7.506  17.205  0.00  0.00    +0.000 S 
ATOM      3  C   UNL     1       8.000   6.687  18.722  0.00  0.00    +0.000 C 
ATOM      4  C   UNL     1       6.970   5.640  19.073  0.00  0.00    +0.000 C 
ATOM      5  O   UNL     1       6.989   5.020  20.132  0.00  0.00    +0.000 OA
ATOM      6  N   UNL     1       6.021   5.504  18.061  0.00  0.00    +0.000 N 
ENDROOT
BRANCH   6   7
ATOM      7  N   UNL     1       4.914   4.664  18.277  0.00  0.00    +0.000 N 
ATOM      8  C   UNL     1       3.773   5.205  18.856  0.00  0.00    +0.000 C 
ATOM      9  O   UNL     1       3.677   6.382  19.198  0.00  0.00    +0.000 OA
ATOM     10  H   UNL     1       5.047   3.669  18.166  0.00  0.00    +0.000 HD
BRANCH   8  11
ATOM     11  C   UNL     1       2.644   4.272  19.126  0.00  0.00    +0.000 A 
ATOM     12  C   UNL     1       2.439   3.234  18.212  0.00  0.00    +0.000 A 
ATOM     13  C   UNL     1       1.386   2.367  18.427  0.00  0.00    +0.000 A 
ATOM     14  N   UNL     1       0.543   2.465  19.476  0.00  0.00    +0.000 NA
ATOM     15  C   UNL     1       0.775   3.459  20.358  0.00  0.00    +0.000 A 
ATOM     16  C   UNL     1       1.802   4.374  20.236  0.00  0.00    +0.000 A 
ENDBRANCH   8  11
ENDBRANCH   6   7
BRANCH   1  17
ATOM     17  C   UNL     1       5.572   6.208  15.682  0.00  0.00    +0.000 C 
BRANCH  17  18
ATOM     18  C   UNL     1       6.240   4.913  15.188  0.00  0.00    +0.000 C 
BRANCH  18  19
ATOM     19  C   UNL     1       5.464   4.143  14.111  0.00  0.00    +0.000 C 
BRANCH  19  20
ATOM     20  C   UNL     1       6.386   3.611  13.015  0.00  0.00    +0.000 C 
BRANCH  20  21
ATOM     21  C   UNL     1       5.614   3.025  11.836  0.00  0.00    +0.000 C 
BRANCH  21  23
ATOM     22  C   UNL     1       3.408   3.094  10.612  0.00  0.00    +0.000 C 
ATOM     23  C   UNL     1       4.257   3.719  11.704  0.00  0.00    +0.000 C 
ENDBRANCH  21  23
ENDBRANCH  20  21
ENDBRANCH  19  20
ENDBRANCH  18  19
ENDBRANCH  17  18
ENDBRANCH   1  17
TORSDOF 8
ENDMDL
MODEL 2
REMARK VINA RESULT:      -7.2      0.496      1.048
REMARK  Name = 
REMARK  9 active torsions:
REMARK  status: ('A' for Active; 'I' for Inactive)
REMARK    1  A    between atoms: C_1  and  C_2
REMARK    2  A    between atoms: C_2  and  C_3
REMARK    3  A    between atoms: C_3  and  C_4
REMARK    4  A    between atoms: C_4  and  C_5
REMARK    5  A    between atoms: C_5  and  C_6
REMARK    6  A    between atoms: C_6  and  C_7
REMARK    7  A    between atoms: C_7  and  C_8
REMARK    8  A    between atoms: N_13  and  N_14
REMARK    9  A    between atoms: C_15  and  C_17
REMARK                            x       y       z     vdW  Elec       q    Type
REMARK                         _______ _______ _______ _____ _____    ______ ____
ROOT
ATOM      1  C   UNL     1       5.785   6.644  17.283  0.00  0.00    +0.000 C 
ATOM      2  S   UNL     1       7.355   7.563  17.202  0.00  0.00    +0.000 S 
ATOM      3  C   UNL     1       8.049   6.759  18.666  0.00  0.00    +0.000 C 
ATOM      4  C   UNL     1       7.066   5.705  19.118  0.00  0.00    +0.000 C 
ATOM      5  O   UNL     1       7.189   5.093  20.174  0.00  0.00    +0.000 OA
ATOM      6  N   UNL     1       6.029   5.554  18.199  0.00  0.00    +0.000 N 
ENDROOT
BRANCH   6   7
ATOM      7  N   UNL     1       4.955   4.706  18.521  0.00  0.00    +0.000 N 
ATOM      8  C   UNL     1       3.807   5.267  19.068  0.00  0.00    +0.000 C 
ATOM      9  O   UNL     1       3.678   6.468  19.294  0.00  0.00    +0.000 OA
ATOM     10  H   UNL     1       5.118   3.709  18.507  0.00  0.00    +0.000 HD
BRANCH   8  11
ATOM     11  C   UNL     1       2.715   4.331  19.455  0.00  0.00    +0.000 A 
ATOM     12  C   UNL     1       2.467   4.166  20.821  0.00  0.00    +0.000 A 
ATOM     13  C   UNL     1       1.474   3.288  21.209  0.00  0.00    +0.000 A 
ATOM     14  N   UNL     1       0.727   2.578  20.338  0.00  0.00    +0.000 NA
ATOM     15  C   UNL     1       0.967   2.771  19.025  0.00  0.00    +0.000 A 
ATOM     16  C   UNL     1       1.932   3.629  18.535  0.00  0.00    +0.000 A 
ENDBRANCH   8  11
ENDBRANCH   6   7
BRANCH   1  17
ATOM     17  C   UNL     1       5.354   6.238  15.867  0.00  0.00    +0.000 C 
BRANCH  17  18
ATOM     18  C   UNL     1       6.148   5.083  15.233  0.00  0.00    +0.000 C 
BRANCH  18  19
ATOM     19  C   UNL     1       5.477   4.409  14.029  0.00  0.00    +0.000 C 
BRANCH  19  20
ATOM     20  C   UNL     1       6.501   3.786  13.081  0.00  0.00    +0.000 C 
BRANCH  20  21
ATOM     21  C   UNL     1       5.848   3.117  11.874  0.00  0.00    +0.000 C 
BRANCH  21  23
ATOM     22  C   UNL     1       3.724   3.603  10.603  0.00  0.00    +0.000 C 
ATOM     23  C   UNL     1       4.328   3.265  11.953  0.00  0.00    +0.000 C 
ENDBRANCH  21  23
ENDBRANCH  20  21
ENDBRANCH  19  20
ENDBRANCH  18  19
ENDBRANCH  17  18
ENDBRANCH   1  17
TORSDOF 8
ENDMDL
MODEL 3
REMARK VINA RESULT:      -7.1      0.829      1.165
REMARK  Name = 
REMARK  9 active torsions:
REMARK  status: ('A' for Active; 'I' for Inactive)
REMARK    1  A    between atoms: C_1  and  C_2
REMARK    2  A    between atoms: C_2  and  C_3
REMARK    3  A    between atoms: C_3  and  C_4
REMARK    4  A    between atoms: C_4  and  C_5
REMARK    5  A    between atoms: C_5  and  C_6
REMARK    6  A    between atoms: C_6  and  C_7
REMARK    7  A    between atoms: C_7  and  C_8
REMARK    8  A    between atoms: N_13  and  N_14
REMARK    9  A    between atoms: C_15  and  C_17
REMARK                            x       y       z     vdW  Elec       q    Type
REMARK                         _______ _______ _______ _____ _____    ______ ____
ROOT
ATOM      1  C   UNL     1       5.759   6.448  17.228  0.00  0.00    +0.000 C 
ATOM      2  S   UNL     1       7.290   7.419  17.068  0.00  0.00    +0.000 S 
ATOM      3  C   UNL     1       8.038   6.725  18.562  0.00  0.00    +0.000 C 
ATOM      4  C   UNL     1       7.105   5.662  19.088  0.00  0.00    +0.000 C 
ATOM      5  O   UNL     1       7.268   5.115  20.175  0.00  0.00    +0.000 OA
ATOM      6  N   UNL     1       6.059   5.421  18.199  0.00  0.00    +0.000 N 
ENDROOT
BRANCH   6   7
ATOM      7  N   UNL     1       5.024   4.552  18.587  0.00  0.00    +0.000 N 
ATOM      8  C   UNL     1       3.845   5.101  19.078  0.00  0.00    +0.000 C 
ATOM      9  O   UNL     1       3.657   6.309  19.199  0.00  0.00    +0.000 OA
ATOM     10  H   UNL     1       5.235   3.566  18.659  0.00  0.00    +0.000 HD
BRANCH   8  11
ATOM     11  C   UNL     1       2.796   4.149  19.538  0.00  0.00    +0.000 A 
ATOM     12  C   UNL     1       1.813   3.784  18.613  0.00  0.00    +0.000 A 
ATOM     13  C   UNL     1       0.816   2.919  19.019  0.00  0.00    +0.000 A 
ATOM     14  N   UNL     1       0.739   2.404  20.263  0.00  0.00    +0.000 NA
ATOM     15  C   UNL     1       1.712   2.750  21.132  0.00  0.00    +0.000 A 
ATOM     16  C   UNL     1       2.753   3.603  20.823  0.00  0.00    +0.000 A 
ENDBRANCH   8  11
ENDBRANCH   6   7
BRANCH   1  17
ATOM     17  C   UNL     1       5.321   5.947  15.846  0.00  0.00    +0.000 C 
BRANCH  17  18
ATOM     18  C   UNL     1       6.414   5.266  15.005  0.00  0.00    +0.000 C 
BRANCH  18  19
ATOM     19  C   UNL     1       6.038   3.896  14.424  0.00  0.00    +0.000 C 
BRANCH  19  20
ATOM     20  C   UNL     1       6.477   3.755  12.967  0.00  0.00    +0.000 C 
BRANCH  20  21
ATOM     21  C   UNL     1       5.350   3.265  12.062  0.00  0.00    +0.000 C 
BRANCH  21  23
ATOM     22  C   UNL     1       7.231   1.872  11.123  0.00  0.00    +0.000 C 
ATOM     23  C   UNL     1       5.743   1.939  11.410  0.00  0.00    +0.000 C 
ENDBRANCH  21  23
ENDBRANCH  20  21
ENDBRANCH  19  20
ENDBRANCH  18  19
ENDBRANCH  17  18
ENDBRANCH   1  17
TORSDOF 8
ENDMDL
MODEL 4
REMARK VINA RESULT:      -6.8      3.857      6.121
REMARK  Name = 
REMARK  9 active torsions:
REMARK  status: ('A' for Active; 'I' for Inactive)
REMARK    1  A    between atoms: C_1  and  C_2
REMARK    2  A    between atoms: C_2  and  C_3
REMARK    3  A    between atoms: C_3  and  C_4
REMARK    4  A    between atoms: C_4  and  C_5
REMARK    5  A    between atoms: C_5  and  C_6
REMARK    6  A    between atoms: C_6  and  C_7
REMARK    7  A    between atoms: C_7  and  C_8
REMARK    8  A    between atoms: N_13  and  N_14
REMARK    9  A    between atoms: C_15  and  C_17
REMARK                            x       y       z     vdW  Elec       q    Type
REMARK                         _______ _______ _______ _____ _____    ______ ____
ROOT
ATOM      1  C   UNL     1       4.297   4.004  18.955  0.00  0.00    +0.000 C 
ATOM      2  S   UNL     1       4.306   2.183  18.952  0.00  0.00    +0.000 S 
ATOM      3  C   UNL     1       2.602   2.048  18.363  0.00  0.00    +0.000 C 
ATOM      4  C   UNL     1       2.105   3.445  18.077  0.00  0.00    +0.000 C 
ATOM      5  O   UNL     1       0.934   3.689  17.805  0.00  0.00    +0.000 OA
ATOM      6  N   UNL     1       3.133   4.380  18.187  0.00  0.00    +0.000 N 
ENDROOT
BRANCH   6   7
ATOM      7  N   UNL     1       2.822   5.747  18.081  0.00  0.00    +0.000 N 
ATOM      8  C   UNL     1       2.447   6.434  19.230  0.00  0.00    +0.000 C 
ATOM      9  O   UNL     1       2.366   5.910  20.339  0.00  0.00    +0.000 OA
ATOM     10  H   UNL     1       2.714   6.137  17.155  0.00  0.00    +0.000 HD
BRANCH   8  11
ATOM     11  C   UNL     1       2.065   7.864  19.068  0.00  0.00    +0.000 A 
ATOM     12  C   UNL     1       1.361   8.461  20.118  0.00  0.00    +0.000 A 
ATOM     13  C   UNL     1       0.976   9.781  19.985  0.00  0.00    +0.000 A 
ATOM     14  N   UNL     1       1.242  10.528  18.895  0.00  0.00    +0.000 NA
ATOM     15  C   UNL     1       1.944   9.938  17.904  0.00  0.00    +0.000 A 
ATOM     16  C   UNL     1       2.379   8.628  17.942  0.00  0.00    +0.000 A 
ENDBRANCH   8  11
ENDBRANCH   6   7
BRANCH   1  17
ATOM     17  C   UNL     1       5.639   4.525  18.425  0.00  0.00    +0.000 C 
BRANCH  17  18
ATOM     18  C   UNL     1       6.420   5.448  19.375  0.00  0.00    +0.000 C 
BRANCH  18  19
ATOM     19  C   UNL     1       7.705   6.054  18.795  0.00  0.00    +0.000 C 
BRANCH  19  20
ATOM     20  C   UNL     1       7.467   6.689  17.426  0.00  0.00    +0.000 C 
BRANCH  20  21
ATOM     21  C   UNL     1       7.605   8.209  17.455  0.00  0.00    +0.000 C 
BRANCH  21  23
ATOM     22  C   UNL     1       8.920  10.097  18.490  0.00  0.00    +0.000 C 
ATOM     23  C   UNL     1       8.560   8.625  18.574  0.00  0.00    +0.000 C 
ENDBRANCH  21  23
ENDBRANCH  20  21
ENDBRANCH  19  20
ENDBRANCH  18  19
ENDBRANCH  17  18
ENDBRANCH   1  17
TORSDOF 8
ENDMDL
MODEL 5
REMARK VINA RESULT:      -6.8      3.044      5.546
REMARK  Name = 
REMARK  9 active torsions:
REMARK  status: ('A' for Active; 'I' for Inactive)
REMARK    1  A    between atoms: C_1  and  C_2
REMARK    2  A    between atoms: C_2  and  C_3
REMARK    3  A    between atoms: C_3  and  C_4
REMARK    4  A    between atoms: C_4  and  C_5
REMARK    5  A    between atoms: C_5  and  C_6
REMARK    6  A    between atoms: C_6  and  C_7
REMARK    7  A    between atoms: C_7  and  C_8
REMARK    8  A    between atoms: N_13  and  N_14
REMARK    9  A    between atoms: C_15  and  C_17
REMARK                            x       y       z     vdW  Elec       q    Type
REMARK                         _______ _______ _______ _____ _____    ______ ____
ROOT
ATOM      1  C   UNL     1       4.447   4.775  16.222  0.00  0.00    +0.000 C 
ATOM      2  S   UNL     1       5.958   3.796  15.944  0.00  0.00    +0.000 S 
ATOM      3  C   UNL     1       7.069   5.127  16.461  0.00  0.00    +0.000 C 
ATOM      4  C   UNL     1       6.214   6.273  16.945  0.00  0.00    +0.000 C 
ATOM      5  O   UNL     1       6.678   7.375  17.221  0.00  0.00    +0.000 OA
ATOM      6  N   UNL     1       4.869   5.911  17.007  0.00  0.00    +0.000 N 
ENDROOT
BRANCH   6   7
ATOM      7  N   UNL     1       3.914   6.896  17.315  0.00  0.00    +0.000 N 
ATOM      8  C   UNL     1       3.358   6.908  18.588  0.00  0.00    +0.000 C 
ATOM      9  O   UNL     1       3.650   6.097  19.465  0.00  0.00    +0.000 OA
ATOM     10  H   UNL     1       3.541   7.447  16.554  0.00  0.00    +0.000 HD
BRANCH   8  11
ATOM     11  C   UNL     1       2.305   7.926  18.857  0.00  0.00    +0.000 A 
ATOM     12  C   UNL     1       1.826   8.021  20.168  0.00  0.00    +0.000 A 
ATOM     13  C   UNL     1       0.834   8.943  20.440  0.00  0.00    +0.000 A 
ATOM     14  N   UNL     1       0.302   9.760  19.509  0.00  0.00    +0.000 NA
ATOM     15  C   UNL     1       0.796   9.668  18.257  0.00  0.00    +0.000 A 
ATOM     16  C   UNL     1       1.789   8.785  17.884  0.00  0.00    +0.000 A 
ENDBRANCH   8  11
ENDBRANCH   6   7
BRANCH   1  17
ATOM     17  C   UNL     1       3.371   3.888  16.861  0.00  0.00    +0.000 C 
BRANCH  17  18
ATOM     18  C   UNL     1       3.825   3.053  18.070  0.00  0.00    +0.000 C 
BRANCH  18  19
ATOM     19  C   UNL     1       3.027   1.765  18.315  0.00  0.00    +0.000 C 
BRANCH  19  20
ATOM     20  C   UNL     1       1.839   1.998  19.247  0.00  0.00    +0.000 C 
BRANCH  20  21
ATOM     21  C   UNL     1       1.288   3.418  19.146  0.00  0.00    +0.000 C 
BRANCH  21  23
ATOM     22  C   UNL     1       2.116   3.581  21.524  0.00  0.00    +0.000 C 
ATOM     23  C   UNL     1       1.026   3.977  20.545  0.00  0.00    +0.000 C 
ENDBRANCH  21  23
ENDBRANCH  20  21
ENDBRANCH  19  20
ENDBRANCH  18  19
ENDBRANCH  17  18
ENDBRANCH   1  17
TORSDOF 8
ENDMDL
MODEL 6
REMARK VINA RESULT:      -6.8      3.789      6.108
REMARK  Name = 
REMARK  9 active torsions:
REMARK  status: ('A' for Active; 'I' for Inactive)
REMARK    1  A    between atoms: C_1  and  C_2
REMARK    2  A    between atoms: C_2  and  C_3
REMARK    3  A    between atoms: C_3  and  C_4
REMARK    4  A    between atoms: C_4  and  C_5
REMARK    5  A    between atoms: C_5  and  C_6
REMARK    6  A    between atoms: C_6  and  C_7
REMARK    7  A    between atoms: C_7  and  C_8
REMARK    8  A    between atoms: N_13  and  N_14
REMARK    9  A    between atoms: C_15  and  C_17
REMARK                            x       y       z     vdW  Elec       q    Type
REMARK                         _______ _______ _______ _____ _____    ______ ____
ROOT
ATOM      1  C   UNL     1       3.966   4.234  19.414  0.00  0.00    +0.000 C 
ATOM      2  S   UNL     1       4.361   2.601  18.712  0.00  0.00    +0.000 S 
ATOM      3  C   UNL     1       2.820   2.490  17.771  0.00  0.00    +0.000 C 
ATOM      4  C   UNL     1       2.082   3.795  17.948  0.00  0.00    +0.000 C 
ATOM      5  O   UNL     1       0.933   3.965  17.551  0.00  0.00    +0.000 OA
ATOM      6  N   UNL     1       2.863   4.731  18.623  0.00  0.00    +0.000 N 
ENDROOT
BRANCH   6   7
ATOM      7  N   UNL     1       2.286   5.960  18.989  0.00  0.00    +0.000 N 
ATOM      8  C   UNL     1       2.616   7.093  18.254  0.00  0.00    +0.000 C 
ATOM      9  O   UNL     1       3.394   7.084  17.302  0.00  0.00    +0.000 OA
ATOM     10  H   UNL     1       1.793   6.008  19.869  0.00  0.00    +0.000 HD
BRANCH   8  11
ATOM     11  C   UNL     1       2.035   8.386  18.709  0.00  0.00    +0.000 A 
ATOM     12  C   UNL     1       1.505   8.431  20.002  0.00  0.00    +0.000 A 
ATOM     13  C   UNL     1       0.940   9.612  20.441  0.00  0.00    +0.000 A 
ATOM     14  N   UNL     1       0.874  10.730  19.690  0.00  0.00    +0.000 NA
ATOM     15  C   UNL     1       1.414  10.672  18.455  0.00  0.00    +0.000 A 
ATOM     16  C   UNL     1       2.005   9.542  17.924  0.00  0.00    +0.000 A 
ENDBRANCH   8  11
ENDBRANCH   6   7
BRANCH   1  17
ATOM     17  C   UNL     1       5.226   5.109  19.420  0.00  0.00    +0.000 C 
BRANCH  17  18
ATOM     18  C   UNL     1       6.169   4.931  18.219  0.00  0.00    +0.000 C 
BRANCH  18  19
ATOM     19  C   UNL     1       7.648   5.233  18.495  0.00  0.00    +0.000 C 
BRANCH  19  20
ATOM     20  C   UNL     1       7.899   6.729  18.684  0.00  0.00    +0.000 C 
BRANCH  20  21
ATOM     21  C   UNL     1       7.566   7.539  17.434  0.00  0.00    +0.000 C 
BRANCH  21  23
ATOM     22  C   UNL     1       8.841   9.197  18.846  0.00  0.00    +0.000 C 
ATOM     23  C   UNL     1       7.912   9.012  17.659  0.00  0.00    +0.000 C 
ENDBRANCH  21  23
ENDBRANCH  20  21
ENDBRANCH  19  20
ENDBRANCH  18  19
ENDBRANCH  17  18
ENDBRANCH   1  17
TORSDOF 8
ENDMDL
MODEL 7
REMARK VINA RESULT:      -6.7      2.984      5.556
REMARK  Name = 
REMARK  9 active torsions:
REMARK  status: ('A' for Active; 'I' for Inactive)
REMARK    1  A    between atoms: C_1  and  C_2
REMARK    2  A    between atoms: C_2  and  C_3
REMARK    3  A    between atoms: C_3  and  C_4
REMARK    4  A    between atoms: C_4  and  C_5
REMARK    5  A    between atoms: C_5  and  C_6
REMARK    6  A    between atoms: C_6  and  C_7
REMARK    7  A    between atoms: C_7  and  C_8
REMARK    8  A    between atoms: N_13  and  N_14
REMARK    9  A    between atoms: C_15  and  C_17
REMARK                            x       y       z     vdW  Elec       q    Type
REMARK                         _______ _______ _______ _____ _____    ______ ____
ROOT
ATOM      1  C   UNL     1       4.449   4.640  16.116  0.00  0.00    +0.000 C 
ATOM      2  S   UNL     1       5.965   3.698  15.754  0.00  0.00    +0.000 S 
ATOM      3  C   UNL     1       7.071   5.055  16.212  0.00  0.00    +0.000 C 
ATOM      4  C   UNL     1       6.216   6.180  16.744  0.00  0.00    +0.000 C 
ATOM      5  O   UNL     1       6.668   7.293  16.997  0.00  0.00    +0.000 OA
ATOM      6  N   UNL     1       4.886   5.785  16.880  0.00  0.00    +0.000 N 
ENDROOT
BRANCH   6   7
ATOM      7  N   UNL     1       3.926   6.747  17.242  0.00  0.00    +0.000 N 
ATOM      8  C   UNL     1       3.496   6.791  18.562  0.00  0.00    +0.000 C 
ATOM      9  O   UNL     1       3.903   6.030  19.436  0.00  0.00    +0.000 OA
ATOM     10  H   UNL     1       3.459   7.251  16.501  0.00  0.00    +0.000 HD
BRANCH   8  11
ATOM     11  C   UNL     1       2.433   7.780  18.894  0.00  0.00    +0.000 A 
ATOM     12  C   UNL     1       1.989   8.613  17.862  0.00  0.00    +0.000 A 
ATOM     13  C   UNL     1       1.019   9.554  18.148  0.00  0.00    +0.000 A 
ATOM     14  N   UNL     1       0.473   9.714  19.370  0.00  0.00    +0.000 NA
ATOM     15  C   UNL     1       0.899   8.883  20.345  0.00  0.00    +0.000 A 
ATOM     16  C   UNL     1       1.859   7.907  20.161  0.00  0.00    +0.000 A 
ENDBRANCH   8  11
ENDBRANCH   6   7
BRANCH   1  17
ATOM     17  C   UNL     1       3.432   3.727  16.812  0.00  0.00    +0.000 C 
BRANCH  17  18
ATOM     18  C   UNL     1       3.931   3.014  18.080  0.00  0.00    +0.000 C 
BRANCH  18  19
ATOM     19  C   UNL     1       2.900   2.117  18.779  0.00  0.00    +0.000 C 
BRANCH  19  20
ATOM     20  C   UNL     1       1.489   2.696  18.691  0.00  0.00    +0.000 C 
BRANCH  20  21
ATOM     21  C   UNL     1       1.259   3.828  19.690  0.00  0.00    +0.000 C 
BRANCH  21  23
ATOM     22  C   UNL     1       1.318   2.518  21.845  0.00  0.00    +0.000 C 
ATOM     23  C   UNL     1       2.025   3.547  20.983  0.00  0.00    +0.000 C 
ENDBRANCH  21  23
ENDBRANCH  20  21
ENDBRANCH  19  20
ENDBRANCH  18  19
ENDBRANCH  17  18
ENDBRANCH   1  17
TORSDOF 8
ENDMDL
MODEL 8
REMARK VINA RESULT:      -6.7      3.718      6.157
REMARK  Name = 
REMARK  9 active torsions:
REMARK  status: ('A' for Active; 'I' for Inactive)
REMARK    1  A    between atoms: C_1  and  C_2
REMARK    2  A    between atoms: C_2  and  C_3
REMARK    3  A    between atoms: C_3  and  C_4
REMARK    4  A    between atoms: C_4  and  C_5
REMARK    5  A    between atoms: C_5  and  C_6
REMARK    6  A    between atoms: C_6  and  C_7
REMARK    7  A    between atoms: C_7  and  C_8
REMARK    8  A    between atoms: N_13  and  N_14
REMARK    9  A    between atoms: C_15  and  C_17
REMARK                            x       y       z     vdW  Elec       q    Type
REMARK                         _______ _______ _______ _____ _____    ______ ____
ROOT
ATOM      1  C   UNL     1       3.963   4.508  19.266  0.00  0.00    +0.000 C 
ATOM      2  S   UNL     1       4.437   2.980  18.397  0.00  0.00    +0.000 S 
ATOM      3  C   UNL     1       2.927   2.924  17.404  0.00  0.00    +0.000 C 
ATOM      4  C   UNL     1       2.136   4.174  17.704  0.00  0.00    +0.000 C 
ATOM      5  O   UNL     1       0.992   4.350  17.295  0.00  0.00    +0.000 OA
ATOM      6  N   UNL     1       2.864   5.054  18.504  0.00  0.00    +0.000 N 
ENDROOT
BRANCH   6   7
ATOM      7  N   UNL     1       2.232   6.213  18.988  0.00  0.00    +0.000 N 
ATOM      8  C   UNL     1       2.461   7.417  18.332  0.00  0.00    +0.000 C 
ATOM      9  O   UNL     1       3.194   7.529  17.352  0.00  0.00    +0.000 OA
ATOM     10  H   UNL     1       1.778   6.163  19.888  0.00  0.00    +0.000 HD
BRANCH   8  11
ATOM     11  C   UNL     1       1.826   8.633  18.910  0.00  0.00    +0.000 A 
ATOM     12  C   UNL     1       1.754   9.767  18.096  0.00  0.00    +0.000 A 
ATOM     13  C   UNL     1       1.189  10.916  18.614  0.00  0.00    +0.000 A 
ATOM     14  N   UNL     1       0.698  11.003  19.867  0.00  0.00    +0.000 NA
ATOM     15  C   UNL     1       0.755   9.890  20.627  0.00  0.00    +0.000 A 
ATOM     16  C   UNL     1       1.296   8.692  20.202  0.00  0.00    +0.000 A 
ENDBRANCH   8  11
ENDBRANCH   6   7
BRANCH   1  17
ATOM     17  C   UNL     1       5.189   5.420  19.408  0.00  0.00    +0.000 C 
BRANCH  17  18
ATOM     18  C   UNL     1       6.196   5.372  18.246  0.00  0.00    +0.000 C 
BRANCH  18  19
ATOM     19  C   UNL     1       7.672   5.470  18.652  0.00  0.00    +0.000 C 
BRANCH  19  20
ATOM     20  C   UNL     1       8.163   6.916  18.676  0.00  0.00    +0.000 C 
BRANCH  20  21
ATOM     21  C   UNL     1       7.555   7.758  17.556  0.00  0.00    +0.000 C 
BRANCH  21  23
ATOM     22  C   UNL     1       8.874   9.429  18.909  0.00  0.00    +0.000 C 
ATOM     23  C   UNL     1       8.075   9.193  17.641  0.00  0.00    +0.000 C 
ENDBRANCH  21  23
ENDBRANCH  20  21
ENDBRANCH  19  20
ENDBRANCH  18  19
ENDBRANCH  17  18
ENDBRANCH   1  17
TORSDOF 8
ENDMDL
MODEL 9
REMARK VINA RESULT:      -6.7      1.072      1.575
REMARK  Name = 
REMARK  9 active torsions:
REMARK  status: ('A' for Active; 'I' for Inactive)
REMARK    1  A    between atoms: C_1  and  C_2
REMARK    2  A    between atoms: C_2  and  C_3
REMARK    3  A    between atoms: C_3  and  C_4
REMARK    4  A    between atoms: C_4  and  C_5
REMARK    5  A    between atoms: C_5  and  C_6
REMARK    6  A    between atoms: C_6  and  C_7
REMARK    7  A    between atoms: C_7  and  C_8
REMARK    8  A    between atoms: N_13  and  N_14
REMARK    9  A    between atoms: C_15  and  C_17
REMARK                            x       y       z     vdW  Elec       q    Type
REMARK                         _______ _______ _______ _____ _____    ______ ____
ROOT
ATOM      1  C   UNL     1       5.737   6.860  17.281  0.00  0.00    +0.000 C 
ATOM      2  S   UNL     1       7.502   7.269  17.107  0.00  0.00    +0.000 S 
ATOM      3  C   UNL     1       7.988   6.375  18.603  0.00  0.00    +0.000 C 
ATOM      4  C   UNL     1       6.759   5.684  19.142  0.00  0.00    +0.000 C 
ATOM      5  O   UNL     1       6.739   5.121  20.232  0.00  0.00    +0.000 OA
ATOM      6  N   UNL     1       5.686   5.797  18.258  0.00  0.00    +0.000 N 
ENDROOT
BRANCH   6   7
ATOM      7  N   UNL     1       4.425   5.323  18.658  0.00  0.00    +0.000 N 
ATOM      8  C   UNL     1       4.119   3.985  18.440  0.00  0.00    +0.000 C 
ATOM      9  O   UNL     1       4.890   3.189  17.908  0.00  0.00    +0.000 OA
ATOM     10  H   UNL     1       3.727   6.002  18.928  0.00  0.00    +0.000 HD
BRANCH   8  11
ATOM     11  C   UNL     1       2.751   3.533  18.818  0.00  0.00    +0.000 A 
ATOM     12  C   UNL     1       2.125   4.204  19.873  0.00  0.00    +0.000 A 
ATOM     13  C   UNL     1       0.864   3.792  20.259  0.00  0.00    +0.000 A 
ATOM     14  N   UNL     1       0.201   2.775  19.672  0.00  0.00    +0.000 NA
ATOM     15  C   UNL     1       0.815   2.158  18.640  0.00  0.00    +0.000 A 
ATOM     16  C   UNL     1       2.070   2.497  18.175  0.00  0.00    +0.000 A 
ENDBRANCH   8  11
ENDBRANCH   6   7
BRANCH   1  17
ATOM     17  C   UNL     1       5.149   6.524  15.905  0.00  0.00    +0.000 C 
BRANCH  17  18
ATOM     18  C   UNL     1       5.433   5.104  15.385  0.00  0.00    +0.000 C 
BRANCH  18  19
ATOM     19  C   UNL     1       6.768   4.929  14.650  0.00  0.00    +0.000 C 
BRANCH  19  20
ATOM     20  C   UNL     1       6.587   4.246  13.295  0.00  0.00    +0.000 C 
BRANCH  20  21
ATOM     21  C   UNL     1       5.190   3.659  13.118  0.00  0.00    +0.000 C 
BRANCH  21  23
ATOM     22  C   UNL     1       5.780   1.870  11.440  0.00  0.00    +0.000 C 
ATOM     23  C   UNL     1       5.012   3.156  11.685  0.00  0.00    +0.000 C 
ENDBRANCH  21  23
ENDBRANCH  20  21
ENDBRANCH  19  20
ENDBRANCH  18  19
ENDBRANCH  17  18
ENDBRANCH   1  17
TORSDOF 8
ENDMDL
