MODEL 1
REMARK VINA RESULT:      -8.0      0.000      0.000
REMARK  Name = 
REMARK  4 active torsions:
REMARK  status: ('A' for Active; 'I' for Inactive)
REMARK    1  A    between atoms: C_1  and  O_2
REMARK    2  A    between atoms: O_2  and  C_3
REMARK    3  A    between atoms: C_3  and  C_5
REMARK    4  A    between atoms: C_18  and  C_19
REMARK                            x       y       z     vdW  Elec       q    Type
REMARK                         _______ _______ _______ _____ _____    ______ ____
ROOT
ATOM      1  C   UNL     1       5.716   5.201  17.960  0.00  0.00    +0.000 C 
ATOM      2  C   UNL     1       6.038   4.463  16.883  0.00  0.00    +0.000 C 
ATOM      3  O   UNL     1       4.974   3.970  16.191  0.00  0.00    +0.000 OA
ATOM      4  N   UNL     1       3.900   4.166  17.147  0.00  0.00    +0.000 NA
ATOM      5  C   UNL     1       3.853   2.941  18.008  0.00  0.00    +0.000 C 
ATOM      6  C   UNL     1       3.978   3.013  19.577  0.00  0.00    +0.000 C 
ATOM      7  C   UNL     1       2.766   3.586  20.337  0.00  0.00    +0.000 C 
ATOM      8  C   UNL     1       1.452   3.026  19.783  0.00  0.00    +0.000 C 
ATOM      9  C   UNL     1       1.396   3.287  18.280  0.00  0.00    +0.000 C 
ATOM     10  C   UNL     1       2.484   2.399  17.642  0.00  0.00    +0.000 C 
ATOM     11  C   UNL     1       1.555   4.829  18.032  0.00  0.00    +0.000 C 
ATOM     12  C   UNL     1       2.818   5.535  18.758  0.00  0.00    +0.000 C 
ATOM     13  C   UNL     1       2.788   5.103  20.214  0.00  0.00    +0.000 C 
ATOM     14  C   UNL     1       4.200   5.424  17.893  0.00  0.00    +0.000 C 
ATOM     15  C   UNL     1       4.090   6.708  16.991  0.00  0.00    +0.000 C 
ENDROOT
BRANCH   1  16
ATOM     16  C   UNL     1       6.919   5.491  18.736  0.00  0.00    +0.000 C 
ATOM     17  O   UNL     1       6.952   5.373  19.966  0.00  0.00    +0.000 OA
BRANCH  16  19
ATOM     18  C   UNL     1       7.682   7.511  17.893  0.00  0.00    +0.000 C 
ATOM     19  O   UNL     1       7.899   6.089  18.023  0.00  0.00    +0.000 OA
ENDBRANCH  16  19
ENDBRANCH   1  16
TORSDOF 2
ENDMDL
MODEL 2
REMARK VINA RESULT:      -7.8      1.837      3.232
REMARK  Name = 
REMARK  4 active torsions:
REMARK  status: ('A' for Active; 'I' for Inactive)
REMARK    1  A    between atoms: C_1  and  O_2
REMARK    2  A    between atoms: O_2  and  C_3
REMARK    3  A    between atoms: C_3  and  C_5
REMARK    4  A    between atoms: C_18  and  C_19
REMARK                            x       y       z     vdW  Elec       q    Type
REMARK                         _______ _______ _______ _____ _____    ______ ____
ROOT
ATOM      1  C   UNL     1       4.647   5.529  17.264  0.00  0.00    +0.000 C 
ATOM      2  C   UNL     1       4.084   6.706  17.588  0.00  0.00    +0.000 C 
ATOM      3  O   UNL     1       3.437   6.718  18.786  0.00  0.00    +0.000 OA
ATOM      4  N   UNL     1       3.324   5.297  19.060  0.00  0.00    +0.000 NA
ATOM      5  C   UNL     1       2.050   4.830  18.423  0.00  0.00    +0.000 C 
ATOM      6  C   UNL     1       2.018   3.659  17.371  0.00  0.00    +0.000 C 
ATOM      7  C   UNL     1       2.259   2.238  17.915  0.00  0.00    +0.000 C 
ATOM      8  C   UNL     1       1.482   2.006  19.216  0.00  0.00    +0.000 C 
ATOM      9  C   UNL     1       1.848   3.102  20.214  0.00  0.00    +0.000 C 
ATOM     10  C   UNL     1       1.264   4.415  19.653  0.00  0.00    +0.000 C 
ATOM     11  C   UNL     1       3.404   3.092  20.422  0.00  0.00    +0.000 C 
ATOM     12  C   UNL     1       4.298   3.132  19.073  0.00  0.00    +0.000 C 
ATOM     13  C   UNL     1       3.751   2.054  18.152  0.00  0.00    +0.000 C 
ATOM     14  C   UNL     1       4.551   4.646  18.514  0.00  0.00    +0.000 C 
ATOM     15  C   UNL     1       5.852   5.041  19.304  0.00  0.00    +0.000 C 
ENDROOT
BRANCH   1  16
ATOM     16  C   UNL     1       5.119   5.573  15.882  0.00  0.00    +0.000 C 
ATOM     17  O   UNL     1       5.239   6.636  15.262  0.00  0.00    +0.000 OA
BRANCH  16  19
ATOM     18  C   UNL     1       6.430   4.199  14.553  0.00  0.00    +0.000 C 
ATOM     19  O   UNL     1       5.201   4.359  15.294  0.00  0.00    +0.000 OA
ENDBRANCH  16  19
ENDBRANCH   1  16
TORSDOF 2
ENDMDL
MODEL 3
REMARK VINA RESULT:      -7.6      1.674      3.014
REMARK  Name = 
REMARK  4 active torsions:
REMARK  status: ('A' for Active; 'I' for Inactive)
REMARK    1  A    between atoms: C_1  and  O_2
REMARK    2  A    between atoms: O_2  and  C_3
REMARK    3  A    between atoms: C_3  and  C_5
REMARK    4  A    between atoms: C_18  and  C_19
REMARK                            x       y       z     vdW  Elec       q    Type
REMARK                         _______ _______ _______ _____ _____    ______ ____
ROOT
ATOM      1  C   UNL     1       5.375   4.909  17.056  0.00  0.00    +0.000 C 
ATOM      2  C   UNL     1       4.855   6.121  16.798  0.00  0.00    +0.000 C 
ATOM      3  O   UNL     1       3.930   6.549  17.701  0.00  0.00    +0.000 OA
ATOM      4  N   UNL     1       3.626   5.313  18.400  0.00  0.00    +0.000 NA
ATOM      5  C   UNL     1       2.518   4.646  17.645  0.00  0.00    +0.000 C 
ATOM      6  C   UNL     1       2.649   3.179  17.085  0.00  0.00    +0.000 C 
ATOM      7  C   UNL     1       2.619   2.041  18.124  0.00  0.00    +0.000 C 
ATOM      8  C   UNL     1       1.521   2.276  19.168  0.00  0.00    +0.000 C 
ATOM      9  C   UNL     1       1.718   3.655  19.793  0.00  0.00    +0.000 C 
ATOM     10  C   UNL     1       1.413   4.684  18.684  0.00  0.00    +0.000 C 
ATOM     11  C   UNL     1       3.164   3.729  20.400  0.00  0.00    +0.000 C 
ATOM     12  C   UNL     1       4.369   3.297  19.409  0.00  0.00    +0.000 C 
ATOM     13  C   UNL     1       3.980   1.961  18.798  0.00  0.00    +0.000 C 
ATOM     14  C   UNL     1       4.889   4.520  18.458  0.00  0.00    +0.000 C 
ATOM     15  C   UNL     1       5.978   5.175  19.384  0.00  0.00    +0.000 C 
ENDROOT
BRANCH   1  16
ATOM     16  C   UNL     1       6.182   4.467  15.921  0.00  0.00    +0.000 C 
ATOM     17  O   UNL     1       7.410   4.608  15.894  0.00  0.00    +0.000 OA
BRANCH  16  19
ATOM     18  C   UNL     1       6.276   3.925  13.669  0.00  0.00    +0.000 C 
ATOM     19  O   UNL     1       5.455   4.098  14.844  0.00  0.00    +0.000 OA
ENDBRANCH  16  19
ENDBRANCH   1  16
TORSDOF 2
ENDMDL
MODEL 4
REMARK VINA RESULT:      -7.3      1.511      2.464
REMARK  Name = 
REMARK  4 active torsions:
REMARK  status: ('A' for Active; 'I' for Inactive)
REMARK    1  A    between atoms: C_1  and  O_2
REMARK    2  A    between atoms: O_2  and  C_3
REMARK    3  A    between atoms: C_3  and  C_5
REMARK    4  A    between atoms: C_18  and  C_19
REMARK                            x       y       z     vdW  Elec       q    Type
REMARK                         _______ _______ _______ _____ _____    ______ ____
ROOT
ATOM      1  C   UNL     1       5.074   5.406  17.734  0.00  0.00    +0.000 C 
ATOM      2  C   UNL     1       6.057   5.095  18.596  0.00  0.00    +0.000 C 
ATOM      3  O   UNL     1       5.957   3.856  19.152  0.00  0.00    +0.000 OA
ATOM      4  N   UNL     1       4.583   3.514  18.834  0.00  0.00    +0.000 NA
ATOM      5  C   UNL     1       3.733   4.039  19.950  0.00  0.00    +0.000 C 
ATOM      6  C   UNL     1       2.539   5.035  19.699  0.00  0.00    +0.000 C 
ATOM      7  C   UNL     1       1.283   4.447  19.027  0.00  0.00    +0.000 C 
ATOM      8  C   UNL     1       0.919   3.086  19.631  0.00  0.00    +0.000 C 
ATOM      9  C   UNL     1       2.134   2.165  19.546  0.00  0.00    +0.000 C 
ATOM     10  C   UNL     1       3.186   2.741  20.515  0.00  0.00    +0.000 C 
ATOM     11  C   UNL     1       2.583   2.066  18.045  0.00  0.00    +0.000 C 
ATOM     12  C   UNL     1       2.793   3.474  17.275  0.00  0.00    +0.000 C 
ATOM     13  C   UNL     1       1.549   4.308  17.535  0.00  0.00    +0.000 C 
ATOM     14  C   UNL     1       4.278   4.115  17.502  0.00  0.00    +0.000 C 
ATOM     15  C   UNL     1       5.078   3.435  16.330  0.00  0.00    +0.000 C 
ENDROOT
BRANCH   1  16
ATOM     16  C   UNL     1       5.165   6.818  17.371  0.00  0.00    +0.000 C 
ATOM     17  O   UNL     1       4.227   7.604  17.547  0.00  0.00    +0.000 OA
BRANCH  16  19
ATOM     18  C   UNL     1       7.244   7.842  17.430  0.00  0.00    +0.000 C 
ATOM     19  O   UNL     1       6.264   7.126  16.648  0.00  0.00    +0.000 OA
ENDBRANCH  16  19
ENDBRANCH   1  16
TORSDOF 2
ENDMDL
MODEL 5
REMARK VINA RESULT:      -7.3      1.370      1.721
REMARK  Name = 
REMARK  4 active torsions:
REMARK  status: ('A' for Active; 'I' for Inactive)
REMARK    1  A    between atoms: C_1  and  O_2
REMARK    2  A    between atoms: O_2  and  C_3
REMARK    3  A    between atoms: C_3  and  C_5
REMARK    4  A    between atoms: C_18  and  C_19
REMARK                            x       y       z     vdW  Elec       q    Type
REMARK                         _______ _______ _______ _____ _____    ______ ____
ROOT
ATOM      1  C   UNL     1       4.666   4.608  17.985  0.00  0.00    +0.000 C 
ATOM      2  C   UNL     1       4.390   4.010  16.813  0.00  0.00    +0.000 C 
ATOM      3  O   UNL     1       3.075   3.714  16.619  0.00  0.00    +0.000 OA
ATOM      4  N   UNL     1       2.553   3.857  17.966  0.00  0.00    +0.000 NA
ATOM      5  C   UNL     1       2.711   2.528  18.639  0.00  0.00    +0.000 C 
ATOM      6  C   UNL     1       3.504   2.359  19.989  0.00  0.00    +0.000 C 
ATOM      7  C   UNL     1       2.827   2.914  21.258  0.00  0.00    +0.000 C 
ATOM      8  C   UNL     1       1.338   2.552  21.293  0.00  0.00    +0.000 C 
ATOM      9  C   UNL     1       0.680   3.033  20.002  0.00  0.00    +0.000 C 
ATOM     10  C   UNL     1       1.256   2.160  18.868  0.00  0.00    +0.000 C 
ATOM     11  C   UNL     1       0.930   4.576  19.856  0.00  0.00    +0.000 C 
ATOM     12  C   UNL     1       2.467   5.061  20.011  0.00  0.00    +0.000 C 
ATOM     13  C   UNL     1       3.004   4.426  21.282  0.00  0.00    +0.000 C 
ATOM     14  C   UNL     1       3.315   4.963  18.617  0.00  0.00    +0.000 C 
ATOM     15  C   UNL     1       3.007   6.369  17.983  0.00  0.00    +0.000 C 
ENDROOT
BRANCH   1  16
ATOM     16  C   UNL     1       6.113   4.680  18.172  0.00  0.00    +0.000 C 
ATOM     17  O   UNL     1       6.907   4.378  17.275  0.00  0.00    +0.000 OA
BRANCH  16  19
ATOM     18  C   UNL     1       7.671   5.720  19.538  0.00  0.00    +0.000 C 
ATOM     19  O   UNL     1       6.488   4.896  19.452  0.00  0.00    +0.000 OA
ENDBRANCH  16  19
ENDBRANCH   1  16
TORSDOF 2
ENDMDL
MODEL 6
REMARK VINA RESULT:      -7.1      1.651      2.857
REMARK  Name = 
REMARK  4 active torsions:
REMARK  status: ('A' for Active; 'I' for Inactive)
REMARK    1  A    between atoms: C_1  and  O_2
REMARK    2  A    between atoms: O_2  and  C_3
REMARK    3  A    between atoms: C_3  and  C_5
REMARK    4  A    between atoms: C_18  and  C_19
REMARK                            x       y       z     vdW  Elec       q    Type
REMARK                         _______ _______ _______ _____ _____    ______ ____
ROOT
ATOM      1  C   UNL     1       4.839   5.454  17.505  0.00  0.00    +0.000 C 
ATOM      2  C   UNL     1       5.893   5.265  18.317  0.00  0.00    +0.000 C 
ATOM      3  O   UNL     1       5.926   4.053  18.937  0.00  0.00    +0.000 OA
ATOM      4  N   UNL     1       4.567   3.590  18.722  0.00  0.00    +0.000 NA
ATOM      5  C   UNL     1       3.744   4.105  19.863  0.00  0.00    +0.000 C 
ATOM      6  C   UNL     1       2.461   4.991  19.640  0.00  0.00    +0.000 C 
ATOM      7  C   UNL     1       1.219   4.273  19.076  0.00  0.00    +0.000 C 
ATOM      8  C   UNL     1       1.002   2.922  19.765  0.00  0.00    +0.000 C 
ATOM      9  C   UNL     1       2.279   2.094  19.648  0.00  0.00    +0.000 C 
ATOM     10  C   UNL     1       3.338   2.799  20.521  0.00  0.00    +0.000 C 
ATOM     11  C   UNL     1       2.647   1.952  18.128  0.00  0.00    +0.000 C 
ATOM     12  C   UNL     1       2.698   3.331  17.281  0.00  0.00    +0.000 C 
ATOM     13  C   UNL     1       1.408   4.078  17.578  0.00  0.00    +0.000 C 
ATOM     14  C   UNL     1       4.138   4.095  17.385  0.00  0.00    +0.000 C 
ATOM     15  C   UNL     1       4.919   3.419  16.198  0.00  0.00    +0.000 C 
ENDROOT
BRANCH   1  16
ATOM     16  C   UNL     1       4.795   6.848  17.071  0.00  0.00    +0.000 C 
ATOM     17  O   UNL     1       5.400   7.243  16.068  0.00  0.00    +0.000 OA
BRANCH  16  19
ATOM     18  C   UNL     1       2.832   7.930  17.665  0.00  0.00    +0.000 C 
ATOM     19  O   UNL     1       4.223   7.682  17.967  0.00  0.00    +0.000 OA
ENDBRANCH  16  19
ENDBRANCH   1  16
TORSDOF 2
ENDMDL
MODEL 7
REMARK VINA RESULT:      -7.1      0.572      1.089
REMARK  Name = 
REMARK  4 active torsions:
REMARK  status: ('A' for Active; 'I' for Inactive)
REMARK    1  A    between atoms: C_1  and  O_2
REMARK    2  A    between atoms: O_2  and  C_3
REMARK    3  A    between atoms: C_3  and  C_5
REMARK    4  A    between atoms: C_18  and  C_19
REMARK                            x       y       z     vdW  Elec       q    Type
REMARK                         _______ _______ _______ _____ _____    ______ ____
ROOT
ATOM      1  C   UNL     1       5.786   5.437  17.873  0.00  0.00    +0.000 C 
ATOM      2  C   UNL     1       6.167   4.675  16.833  0.00  0.00    +0.000 C 
ATOM      3  O   UNL     1       5.143   4.103  16.141  0.00  0.00    +0.000 OA
ATOM      4  N   UNL     1       4.041   4.281  17.069  0.00  0.00    +0.000 NA
ATOM      5  C   UNL     1       4.039   3.089  17.976  0.00  0.00    +0.000 C 
ATOM      6  C   UNL     1       4.127   3.227  19.543  0.00  0.00    +0.000 C 
ATOM      7  C   UNL     1       2.874   3.767  20.258  0.00  0.00    +0.000 C 
ATOM      8  C   UNL     1       1.600   3.120  19.702  0.00  0.00    +0.000 C 
ATOM      9  C   UNL     1       1.562   3.320  18.189  0.00  0.00    +0.000 C 
ATOM     10  C   UNL     1       2.706   2.465  17.607  0.00  0.00    +0.000 C 
ATOM     11  C   UNL     1       1.648   4.857  17.884  0.00  0.00    +0.000 C 
ATOM     12  C   UNL     1       2.860   5.653  18.604  0.00  0.00    +0.000 C 
ATOM     13  C   UNL     1       2.821   5.277  20.076  0.00  0.00    +0.000 C 
ATOM     14  C   UNL     1       4.263   5.580  17.770  0.00  0.00    +0.000 C 
ATOM     15  C   UNL     1       4.107   6.821  16.816  0.00  0.00    +0.000 C 
ENDROOT
BRANCH   1  16
ATOM     16  C   UNL     1       6.958   5.817  18.660  0.00  0.00    +0.000 C 
ATOM     17  O   UNL     1       7.842   6.553  18.208  0.00  0.00    +0.000 OA
BRANCH  16  19
ATOM     18  C   UNL     1       8.366   5.356  20.442  0.00  0.00    +0.000 C 
ATOM     19  O   UNL     1       7.084   5.131  19.817  0.00  0.00    +0.000 OA
ENDBRANCH  16  19
ENDBRANCH   1  16
TORSDOF 2
ENDMDL
MODEL 8
REMARK VINA RESULT:      -7.0      2.067      4.992
REMARK  Name = 
REMARK  4 active torsions:
REMARK  status: ('A' for Active; 'I' for Inactive)
REMARK    1  A    between atoms: C_1  and  O_2
REMARK    2  A    between atoms: O_2  and  C_3
REMARK    3  A    between atoms: C_3  and  C_5
REMARK    4  A    between atoms: C_18  and  C_19
REMARK                            x       y       z     vdW  Elec       q    Type
REMARK                         _______ _______ _______ _____ _____    ______ ____
ROOT
ATOM      1  C   UNL     1       2.620   5.048  18.236  0.00  0.00    +0.000 C 
ATOM      2  C   UNL     1       2.684   5.039  19.578  0.00  0.00    +0.000 C 
ATOM      3  O   UNL     1       3.728   5.736  20.105  0.00  0.00    +0.000 OA
ATOM      4  N   UNL     1       4.569   5.911  18.934  0.00  0.00    +0.000 NA
ATOM      5  C   UNL     1       5.463   4.711  18.856  0.00  0.00    +0.000 C 
ATOM      6  C   UNL     1       5.520   3.789  17.580  0.00  0.00    +0.000 C 
ATOM      7  C   UNL     1       6.212   4.379  16.336  0.00  0.00    +0.000 C 
ATOM      8  C   UNL     1       7.512   5.097  16.716  0.00  0.00    +0.000 C 
ATOM      9  C   UNL     1       7.206   6.143  17.786  0.00  0.00    +0.000 C 
ATOM     10  C   UNL     1       6.818   5.363  19.059  0.00  0.00    +0.000 C 
ATOM     11  C   UNL     1       6.108   7.119  17.233  0.00  0.00    +0.000 C 
ATOM     12  C   UNL     1       4.781   6.419  16.625  0.00  0.00    +0.000 C 
ATOM     13  C   UNL     1       5.253   5.347  15.658  0.00  0.00    +0.000 C 
ATOM     14  C   UNL     1       3.660   6.071  17.761  0.00  0.00    +0.000 C 
ATOM     15  C   UNL     1       2.847   7.417  17.800  0.00  0.00    +0.000 C 
ENDROOT
BRANCH   1  16
ATOM     16  C   UNL     1       1.601   4.103  17.784  0.00  0.00    +0.000 C 
ATOM     17  O   UNL     1       0.717   4.424  16.983  0.00  0.00    +0.000 OA
BRANCH  16  19
ATOM     18  C   UNL     1       2.446   1.946  17.870  0.00  0.00    +0.000 C 
ATOM     19  O   UNL     1       1.591   2.941  18.473  0.00  0.00    +0.000 OA
ENDBRANCH  16  19
ENDBRANCH   1  16
TORSDOF 2
ENDMDL
MODEL 9
REMARK VINA RESULT:      -6.8      2.538      4.670
REMARK  Name = 
REMARK  4 active torsions:
REMARK  status: ('A' for Active; 'I' for Inactive)
REMARK    1  A    between atoms: C_1  and  O_2
REMARK    2  A    between atoms: O_2  and  C_3
REMARK    3  A    between atoms: C_3  and  C_5
REMARK    4  A    between atoms: C_18  and  C_19
REMARK                            x       y       z     vdW  Elec       q    Type
REMARK                         _______ _______ _______ _____ _____    ______ ____
ROOT
ATOM      1  C   UNL     1       2.577   2.922  19.840  0.00  0.00    +0.000 C 
ATOM      2  C   UNL     1       2.131   1.974  18.998  0.00  0.00    +0.000 C 
ATOM      3  O   UNL     1       2.968   1.691  17.962  0.00  0.00    +0.000 OA
ATOM      4  N   UNL     1       3.869   2.828  18.010  0.00  0.00    +0.000 NA
ATOM      5  C   UNL     1       3.257   3.905  17.166  0.00  0.00    +0.000 C 
ATOM      6  C   UNL     1       2.946   5.341  17.734  0.00  0.00    +0.000 C 
ATOM      7  C   UNL     1       4.160   6.251  18.004  0.00  0.00    +0.000 C 
ATOM      8  C   UNL     1       5.172   6.177  16.855  0.00  0.00    +0.000 C 
ATOM      9  C   UNL     1       5.555   4.717  16.625  0.00  0.00    +0.000 C 
ATOM     10  C   UNL     1       4.298   4.019  16.068  0.00  0.00    +0.000 C 
ATOM     11  C   UNL     1       6.113   4.127  17.969  0.00  0.00    +0.000 C 
ATOM     12  C   UNL     1       5.184   4.346  19.276  0.00  0.00    +0.000 C 
ATOM     13  C   UNL     1       4.811   5.819  19.310  0.00  0.00    +0.000 C 
ATOM     14  C   UNL     1       4.032   3.199  19.446  0.00  0.00    +0.000 C 
ATOM     15  C   UNL     1       4.815   2.112  20.270  0.00  0.00    +0.000 C 
ENDROOT
BRANCH   1  16
ATOM     16  C   UNL     1       1.515   3.290  20.774  0.00  0.00    +0.000 C 
ATOM     17  O   UNL     1       1.163   2.545  21.695  0.00  0.00    +0.000 OA
BRANCH  16  19
ATOM     18  C   UNL     1       1.487   5.607  20.843  0.00  0.00    +0.000 C 
ATOM     19  O   UNL     1       0.828   4.396  20.412  0.00  0.00    +0.000 OA
ENDBRANCH  16  19
ENDBRANCH   1  16
TORSDOF 2
ENDMDL
