MODEL 1
REMARK VINA RESULT:      -6.1      0.000      0.000
REMARK  Name = 
REMARK  6 active torsions:
REMARK  status: ('A' for Active; 'I' for Inactive)
REMARK    1  A    between atoms: C_1  and  C_2
REMARK    2  A    between atoms: N_4  and  CA_5
REMARK    3  A    between atoms: CA_5  and  C_6
REMARK    4  A    between atoms: CA_5  and  C_9
REMARK    5  A    between atoms: C_6  and  OXT_8
REMARK    6  A    between atoms: C_12  and  O_13
REMARK                            x       y       z     vdW  Elec       q    Type
REMARK                         _______ _______ _______ _____ _____    ______ ____
ROOT
ATOM      1  CA  UNL     1       2.756   5.745  18.109  0.00  0.00    +0.000 C 
ENDROOT
BRANCH   1   2
ATOM      2  C   UNL     1       4.202   5.346  17.874  0.00  0.00    +0.000 A 
ATOM      3  C   UNL     1       4.581   4.762  16.654  0.00  0.00    +0.000 A 
ATOM      4  C   UNL     1       5.902   4.364  16.437  0.00  0.00    +0.000 A 
ATOM      5  C   UNL     1       6.844   4.542  17.445  0.00  0.00    +0.000 A 
ATOM      6  C   UNL     1       6.492   5.125  18.656  0.00  0.00    +0.000 A 
ATOM      7  C   UNL     1       5.174   5.529  18.872  0.00  0.00    +0.000 A 
BRANCH   5   8
ATOM      8  O   UNL     1       8.137   4.143  17.287  0.00  0.00    +0.000 OA
ATOM      9  H   UNL     1       8.181   3.179  17.399  0.00  0.00    +0.000 HD
ENDBRANCH   5   8
ENDBRANCH   1   2
BRANCH   1  13
ATOM     10  C   UNL     1       0.927   3.115  20.130  0.00  0.00    +0.000 C 
ATOM     11  C   UNL     1       1.425   3.821  18.901  0.00  0.00    +0.000 C 
ATOM     12  O   UNL     1       1.188   3.425  17.766  0.00  0.00    +0.000 OA
ATOM     13  N   UNL     1       2.178   4.933  19.172  0.00  0.00    +0.000 N 
ATOM     14  H   UNL     1       2.311   5.246  20.127  0.00  0.00    +0.000 HD
ENDBRANCH   1  13
BRANCH   1  15
ATOM     15  C   UNL     1       2.609   7.243  18.441  0.00  0.00    +0.000 C 
ATOM     16  O   UNL     1       2.873   8.147  17.656  0.00  0.00    +0.000 OA
BRANCH  15  17
ATOM     17  OXT UNL     1       2.185   7.501  19.705  0.00  0.00    +0.000 OA
ATOM     18  HXT UNL     1       2.841   7.282  20.398  0.00  0.00    +0.000 HD
ENDBRANCH  15  17
ENDBRANCH   1  15
TORSDOF 5
ENDMDL
MODEL 2
REMARK VINA RESULT:      -6.1      0.181      1.262
REMARK  Name = 
REMARK  6 active torsions:
REMARK  status: ('A' for Active; 'I' for Inactive)
REMARK    1  A    between atoms: C_1  and  C_2
REMARK    2  A    between atoms: N_4  and  CA_5
REMARK    3  A    between atoms: CA_5  and  C_6
REMARK    4  A    between atoms: CA_5  and  C_9
REMARK    5  A    between atoms: C_6  and  OXT_8
REMARK    6  A    between atoms: C_12  and  O_13
REMARK                            x       y       z     vdW  Elec       q    Type
REMARK                         _______ _______ _______ _____ _____    ______ ____
ROOT
ATOM      1  CA  UNL     1       2.749   5.720  18.283  0.00  0.00    +0.000 C 
ENDROOT
BRANCH   1   2
ATOM      2  C   UNL     1       4.176   5.280  18.007  0.00  0.00    +0.000 A 
ATOM      3  C   UNL     1       5.165   5.445  18.991  0.00  0.00    +0.000 A 
ATOM      4  C   UNL     1       6.487   5.071  18.739  0.00  0.00    +0.000 A 
ATOM      5  C   UNL     1       6.822   4.540  17.498  0.00  0.00    +0.000 A 
ATOM      6  C   UNL     1       5.858   4.361  16.514  0.00  0.00    +0.000 A 
ATOM      7  C   UNL     1       4.536   4.728  16.767  0.00  0.00    +0.000 A 
BRANCH   5   8
ATOM      8  O   UNL     1       8.104   4.188  17.200  0.00  0.00    +0.000 OA
ATOM      9  H   UNL     1       8.150   3.221  17.117  0.00  0.00    +0.000 HD
ENDBRANCH   5   8
ENDBRANCH   1   2
BRANCH   1  13
ATOM     10  C   UNL     1       0.859   3.020  20.152  0.00  0.00    +0.000 C 
ATOM     11  C   UNL     1       1.378   3.781  18.965  0.00  0.00    +0.000 C 
ATOM     12  O   UNL     1       1.143   3.449  17.809  0.00  0.00    +0.000 OA
ATOM     13  N   UNL     1       2.149   4.864  19.299  0.00  0.00    +0.000 N 
ATOM     14  H   UNL     1       2.281   5.123  20.270  0.00  0.00    +0.000 HD
ENDBRANCH   1  13
BRANCH   1  15
ATOM     15  C   UNL     1       2.665   7.198  18.713  0.00  0.00    +0.000 C 
ATOM     16  O   UNL     1       2.868   8.142  17.958  0.00  0.00    +0.000 OA
BRANCH  15  17
ATOM     17  OXT UNL     1       2.373   7.387  20.026  0.00  0.00    +0.000 OA
ATOM     18  HXT UNL     1       1.653   6.815  20.361  0.00  0.00    +0.000 HD
ENDBRANCH  15  17
ENDBRANCH   1  15
TORSDOF 5
ENDMDL
MODEL 3
REMARK VINA RESULT:      -6.1      2.605      3.343
REMARK  Name = 
REMARK  6 active torsions:
REMARK  status: ('A' for Active; 'I' for Inactive)
REMARK    1  A    between atoms: C_1  and  C_2
REMARK    2  A    between atoms: N_4  and  CA_5
REMARK    3  A    between atoms: CA_5  and  C_6
REMARK    4  A    between atoms: CA_5  and  C_9
REMARK    5  A    between atoms: C_6  and  OXT_8
REMARK    6  A    between atoms: C_12  and  O_13
REMARK                            x       y       z     vdW  Elec       q    Type
REMARK                         _______ _______ _______ _____ _____    ______ ____
ROOT
ATOM      1  CA  UNL     1       4.114   3.306  18.639  0.00  0.00    +0.000 C 
ENDROOT
BRANCH   1   2
ATOM      2  C   UNL     1       5.060   3.945  17.637  0.00  0.00    +0.000 A 
ATOM      3  C   UNL     1       4.706   4.009  16.279  0.00  0.00    +0.000 A 
ATOM      4  C   UNL     1       5.579   4.567  15.343  0.00  0.00    +0.000 A 
ATOM      5  C   UNL     1       6.812   5.055  15.764  0.00  0.00    +0.000 A 
ATOM      6  C   UNL     1       7.177   5.008  17.103  0.00  0.00    +0.000 A 
ATOM      7  C   UNL     1       6.304   4.456  18.040  0.00  0.00    +0.000 A 
BRANCH   5   8
ATOM      8  O   UNL     1       7.705   5.582  14.881  0.00  0.00    +0.000 OA
ATOM      9  H   UNL     1       8.602   5.342  15.166  0.00  0.00    +0.000 HD
ENDBRANCH   5   8
ENDBRANCH   1   2
BRANCH   1  13
ATOM     10  C   UNL     1       1.569   5.292  20.623  0.00  0.00    +0.000 C 
ATOM     11  C   UNL     1       2.538   4.182  20.328  0.00  0.00    +0.000 C 
ATOM     12  O   UNL     1       2.774   3.279  21.121  0.00  0.00    +0.000 OA
ATOM     13  N   UNL     1       3.138   4.286  19.100  0.00  0.00    +0.000 N 
ATOM     14  H   UNL     1       2.878   5.028  18.460  0.00  0.00    +0.000 HD
ENDBRANCH   1  13
BRANCH   1  15
ATOM     15  C   UNL     1       3.397   2.070  18.061  0.00  0.00    +0.000 C 
ATOM     16  O   UNL     1       2.298   2.108  17.520  0.00  0.00    +0.000 OA
BRANCH  15  17
ATOM     17  OXT UNL     1       4.069   0.901  18.225  0.00  0.00    +0.000 OA
ATOM     18  HXT UNL     1       4.970   1.007  18.591  0.00  0.00    +0.000 HD
ENDBRANCH  15  17
ENDBRANCH   1  15
TORSDOF 5
ENDMDL
MODEL 4
REMARK VINA RESULT:      -6.0      2.195      5.266
REMARK  Name = 
REMARK  6 active torsions:
REMARK  status: ('A' for Active; 'I' for Inactive)
REMARK    1  A    between atoms: C_1  and  C_2
REMARK    2  A    between atoms: N_4  and  CA_5
REMARK    3  A    between atoms: CA_5  and  C_6
REMARK    4  A    between atoms: CA_5  and  C_9
REMARK    5  A    between atoms: C_6  and  OXT_8
REMARK    6  A    between atoms: C_12  and  O_13
REMARK                            x       y       z     vdW  Elec       q    Type
REMARK                         _______ _______ _______ _____ _____    ______ ____
ROOT
ATOM      1  CA  UNL     1       5.402   4.014  18.163  0.00  0.00    +0.000 C 
ENDROOT
BRANCH   1   2
ATOM      2  C   UNL     1       3.966   3.641  18.493  0.00  0.00    +0.000 A 
ATOM      3  C   UNL     1       3.687   2.856  19.624  0.00  0.00    +0.000 A 
ATOM      4  C   UNL     1       2.375   2.483  19.922  0.00  0.00    +0.000 A 
ATOM      5  C   UNL     1       1.341   2.887  19.083  0.00  0.00    +0.000 A 
ATOM      6  C   UNL     1       1.596   3.670  17.965  0.00  0.00    +0.000 A 
ATOM      7  C   UNL     1       2.905   4.050  17.669  0.00  0.00    +0.000 A 
BRANCH   5   8
ATOM      8  O   UNL     1       0.051   2.522  19.321  0.00  0.00    +0.000 OA
ATOM      9  H   UNL     1      -0.185   2.782  20.227  0.00  0.00    +0.000 HD
ENDBRANCH   5   8
ENDBRANCH   1   2
BRANCH   1  13
ATOM     10  C   UNL     1       6.779   4.362  14.651  0.00  0.00    +0.000 C 
ATOM     11  C   UNL     1       6.807   4.300  16.152  0.00  0.00    +0.000 C 
ATOM     12  O   UNL     1       7.842   4.398  16.801  0.00  0.00    +0.000 OA
ATOM     13  N   UNL     1       5.575   4.108  16.719  0.00  0.00    +0.000 N 
ATOM     14  H   UNL     1       4.741   4.075  16.143  0.00  0.00    +0.000 HD
ENDBRANCH   1  13
BRANCH   1  15
ATOM     15  C   UNL     1       5.835   5.329  18.840  0.00  0.00    +0.000 C 
ATOM     16  O   UNL     1       5.358   6.426  18.570  0.00  0.00    +0.000 OA
BRANCH  15  17
ATOM     17  OXT UNL     1       6.827   5.191  19.757  0.00  0.00    +0.000 OA
ATOM     18  HXT UNL     1       7.182   4.282  19.827  0.00  0.00    +0.000 HD
ENDBRANCH  15  17
ENDBRANCH   1  15
TORSDOF 5
ENDMDL
MODEL 5
REMARK VINA RESULT:      -6.0      2.160      5.164
REMARK  Name = 
REMARK  6 active torsions:
REMARK  status: ('A' for Active; 'I' for Inactive)
REMARK    1  A    between atoms: C_1  and  C_2
REMARK    2  A    between atoms: N_4  and  CA_5
REMARK    3  A    between atoms: CA_5  and  C_6
REMARK    4  A    between atoms: CA_5  and  C_9
REMARK    5  A    between atoms: C_6  and  OXT_8
REMARK    6  A    between atoms: C_12  and  O_13
REMARK                            x       y       z     vdW  Elec       q    Type
REMARK                         _______ _______ _______ _____ _____    ______ ____
ROOT
ATOM      1  CA  UNL     1       5.394   4.074  18.135  0.00  0.00    +0.000 C 
ENDROOT
BRANCH   1   2
ATOM      2  C   UNL     1       3.968   3.626  18.405  0.00  0.00    +0.000 A 
ATOM      3  C   UNL     1       2.921   4.086  17.589  0.00  0.00    +0.000 A 
ATOM      4  C   UNL     1       1.602   3.704  17.844  0.00  0.00    +0.000 A 
ATOM      5  C   UNL     1       1.328   2.867  18.921  0.00  0.00    +0.000 A 
ATOM      6  C   UNL     1       2.350   2.395  19.735  0.00  0.00    +0.000 A 
ATOM      7  C   UNL     1       3.669   2.771  19.478  0.00  0.00    +0.000 A 
BRANCH   5   8
ATOM      8  O   UNL     1       0.054   2.493  19.223  0.00  0.00    +0.000 OA
ATOM      9  H   UNL     1      -0.382   2.190  18.409  0.00  0.00    +0.000 HD
ENDBRANCH   5   8
ENDBRANCH   1   2
BRANCH   1  13
ATOM     10  C   UNL     1       6.840   4.611  14.676  0.00  0.00    +0.000 C 
ATOM     11  C   UNL     1       6.844   4.418  16.166  0.00  0.00    +0.000 C 
ATOM     12  O   UNL     1       7.875   4.377  16.827  0.00  0.00    +0.000 OA
ATOM     13  N   UNL     1       5.593   4.278  16.706  0.00  0.00    +0.000 N 
ATOM     14  H   UNL     1       4.767   4.362  16.124  0.00  0.00    +0.000 HD
ENDBRANCH   1  13
BRANCH   1  15
ATOM     15  C   UNL     1       5.762   5.353  18.914  0.00  0.00    +0.000 C 
ATOM     16  O   UNL     1       5.193   6.429  18.769  0.00  0.00    +0.000 OA
BRANCH  15  17
ATOM     17  OXT UNL     1       6.807   5.210  19.770  0.00  0.00    +0.000 OA
ATOM     18  HXT UNL     1       7.544   5.833  19.607  0.00  0.00    +0.000 HD
ENDBRANCH  15  17
ENDBRANCH   1  15
TORSDOF 5
ENDMDL
MODEL 6
REMARK VINA RESULT:      -6.0      2.079      4.830
REMARK  Name = 
REMARK  6 active torsions:
REMARK  status: ('A' for Active; 'I' for Inactive)
REMARK    1  A    between atoms: C_1  and  C_2
REMARK    2  A    between atoms: N_4  and  CA_5
REMARK    3  A    between atoms: CA_5  and  C_6
REMARK    4  A    between atoms: CA_5  and  C_9
REMARK    5  A    between atoms: C_6  and  OXT_8
REMARK    6  A    between atoms: C_12  and  O_13
REMARK                            x       y       z     vdW  Elec       q    Type
REMARK                         _______ _______ _______ _____ _____    ______ ____
ROOT
ATOM      1  CA  UNL     1       5.033   5.153  17.405  0.00  0.00    +0.000 C 
ENDROOT
BRANCH   1   2
ATOM      2  C   UNL     1       3.823   4.611  18.145  0.00  0.00    +0.000 A 
ATOM      3  C   UNL     1       2.783   3.991  17.433  0.00  0.00    +0.000 A 
ATOM      4  C   UNL     1       1.652   3.514  18.099  0.00  0.00    +0.000 A 
ATOM      5  C   UNL     1       1.556   3.667  19.478  0.00  0.00    +0.000 A 
ATOM      6  C   UNL     1       2.576   4.271  20.202  0.00  0.00    +0.000 A 
ATOM      7  C   UNL     1       3.710   4.741  19.539  0.00  0.00    +0.000 A 
BRANCH   5   8
ATOM      8  O   UNL     1       0.458   3.243  20.164  0.00  0.00    +0.000 OA
ATOM      9  H   UNL     1       0.536   2.287  20.316  0.00  0.00    +0.000 HD
ENDBRANCH   5   8
ENDBRANCH   1   2
BRANCH   1  13
ATOM     10  C   UNL     1       6.141   3.799  14.044  0.00  0.00    +0.000 C 
ATOM     11  C   UNL     1       6.286   4.405  15.411  0.00  0.00    +0.000 C 
ATOM     12  O   UNL     1       7.373   4.694  15.897  0.00  0.00    +0.000 OA
ATOM     13  N   UNL     1       5.094   4.585  16.064  0.00  0.00    +0.000 N 
ATOM     14  H   UNL     1       4.217   4.370  15.604  0.00  0.00    +0.000 HD
ENDBRANCH   1  13
BRANCH   1  15
ATOM     15  C   UNL     1       5.035   6.693  17.333  0.00  0.00    +0.000 C 
ATOM     16  O   UNL     1       4.019   7.376  17.294  0.00  0.00    +0.000 OA
BRANCH  15  17
ATOM     17  OXT UNL     1       6.271   7.253  17.283  0.00  0.00    +0.000 OA
ATOM     18  HXT UNL     1       7.002   6.622  17.446  0.00  0.00    +0.000 HD
ENDBRANCH  15  17
ENDBRANCH   1  15
TORSDOF 5
ENDMDL
MODEL 7
REMARK VINA RESULT:      -6.0      2.083      4.987
REMARK  Name = 
REMARK  6 active torsions:
REMARK  status: ('A' for Active; 'I' for Inactive)
REMARK    1  A    between atoms: C_1  and  C_2
REMARK    2  A    between atoms: N_4  and  CA_5
REMARK    3  A    between atoms: CA_5  and  C_6
REMARK    4  A    between atoms: CA_5  and  C_9
REMARK    5  A    between atoms: C_6  and  OXT_8
REMARK    6  A    between atoms: C_12  and  O_13
REMARK                            x       y       z     vdW  Elec       q    Type
REMARK                         _______ _______ _______ _____ _____    ______ ____
ROOT
ATOM      1  CA  UNL     1       5.012   5.158  17.388  0.00  0.00    +0.000 C 
ENDROOT
BRANCH   1   2
ATOM      2  C   UNL     1       3.781   4.645  18.116  0.00  0.00    +0.000 A 
ATOM      3  C   UNL     1       3.661   4.823  19.504  0.00  0.00    +0.000 A 
ATOM      4  C   UNL     1       2.548   4.331  20.189  0.00  0.00    +0.000 A 
ATOM      5  C   UNL     1       1.558   3.651  19.487  0.00  0.00    +0.000 A 
ATOM      6  C   UNL     1       1.654   3.471  18.113  0.00  0.00    +0.000 A 
ATOM      7  C   UNL     1       2.762   3.968  17.426  0.00  0.00    +0.000 A 
BRANCH   5   8
ATOM      8  O   UNL     1       0.470   3.130  20.119  0.00  0.00    +0.000 OA
ATOM      9  H   UNL     1      -0.124   3.857  20.367  0.00  0.00    +0.000 HD
ENDBRANCH   5   8
ENDBRANCH   1   2
BRANCH   1  13
ATOM     10  C   UNL     1       6.129   3.793  14.036  0.00  0.00    +0.000 C 
ATOM     11  C   UNL     1       6.270   4.405  15.401  0.00  0.00    +0.000 C 
ATOM     12  O   UNL     1       7.356   4.699  15.887  0.00  0.00    +0.000 OA
ATOM     13  N   UNL     1       5.077   4.585  16.050  0.00  0.00    +0.000 N 
ATOM     14  H   UNL     1       4.201   4.365  15.590  0.00  0.00    +0.000 HD
ENDBRANCH   1  13
BRANCH   1  15
ATOM     15  C   UNL     1       5.046   6.698  17.312  0.00  0.00    +0.000 C 
ATOM     16  O   UNL     1       4.045   7.402  17.245  0.00  0.00    +0.000 OA
BRANCH  15  17
ATOM     17  OXT UNL     1       6.294   7.233  17.293  0.00  0.00    +0.000 OA
ATOM     18  HXT UNL     1       6.994   6.605  17.021  0.00  0.00    +0.000 HD
ENDBRANCH  15  17
ENDBRANCH   1  15
TORSDOF 5
ENDMDL
MODEL 8
REMARK VINA RESULT:      -5.9      2.448      5.380
REMARK  Name = 
REMARK  6 active torsions:
REMARK  status: ('A' for Active; 'I' for Inactive)
REMARK    1  A    between atoms: C_1  and  C_2
REMARK    2  A    between atoms: N_4  and  CA_5
REMARK    3  A    between atoms: CA_5  and  C_6
REMARK    4  A    between atoms: CA_5  and  C_9
REMARK    5  A    between atoms: C_6  and  OXT_8
REMARK    6  A    between atoms: C_12  and  O_13
REMARK                            x       y       z     vdW  Elec       q    Type
REMARK                         _______ _______ _______ _____ _____    ______ ____
ROOT
ATOM      1  CA  UNL     1       4.799   5.402  17.154  0.00  0.00    +0.000 C 
ENDROOT
BRANCH   1   2
ATOM      2  C   UNL     1       3.629   4.940  18.005  0.00  0.00    +0.000 A 
ATOM      3  C   UNL     1       3.638   5.160  19.392  0.00  0.00    +0.000 A 
ATOM      4  C   UNL     1       2.582   4.715  20.189  0.00  0.00    +0.000 A 
ATOM      5  C   UNL     1       1.518   4.040  19.600  0.00  0.00    +0.000 A 
ATOM      6  C   UNL     1       1.485   3.819  18.229  0.00  0.00    +0.000 A 
ATOM      7  C   UNL     1       2.537   4.268  17.430  0.00  0.00    +0.000 A 
BRANCH   5   8
ATOM      8  O   UNL     1       0.481   3.564  20.343  0.00  0.00    +0.000 OA
ATOM      9  H   UNL     1       0.839   3.022  21.066  0.00  0.00    +0.000 HD
ENDBRANCH   5   8
ENDBRANCH   1   2
BRANCH   1  13
ATOM     10  C   UNL     1       8.008   6.761  18.639  0.00  0.00    +0.000 C 
ATOM     11  C   UNL     1       6.908   6.597  17.630  0.00  0.00    +0.000 C 
ATOM     12  O   UNL     1       6.869   7.231  16.582  0.00  0.00    +0.000 OA
ATOM     13  N   UNL     1       5.950   5.690  18.000  0.00  0.00    +0.000 N 
ATOM     14  H   UNL     1       6.047   5.159  18.858  0.00  0.00    +0.000 HD
ENDBRANCH   1  13
BRANCH   1  15
ATOM     15  C   UNL     1       5.177   4.372  16.071  0.00  0.00    +0.000 C 
ATOM     16  O   UNL     1       5.077   4.578  14.867  0.00  0.00    +0.000 OA
BRANCH  15  17
ATOM     17  OXT UNL     1       5.612   3.180  16.554  0.00  0.00    +0.000 OA
ATOM     18  HXT UNL     1       5.878   3.204  17.496  0.00  0.00    +0.000 HD
ENDBRANCH  15  17
ENDBRANCH   1  15
TORSDOF 5
ENDMDL
MODEL 9
REMARK VINA RESULT:      -5.9      2.346      3.346
REMARK  Name = 
REMARK  6 active torsions:
REMARK  status: ('A' for Active; 'I' for Inactive)
REMARK    1  A    between atoms: C_1  and  C_2
REMARK    2  A    between atoms: N_4  and  CA_5
REMARK    3  A    between atoms: CA_5  and  C_6
REMARK    4  A    between atoms: CA_5  and  C_9
REMARK    5  A    between atoms: C_6  and  OXT_8
REMARK    6  A    between atoms: C_12  and  O_13
REMARK                            x       y       z     vdW  Elec       q    Type
REMARK                         _______ _______ _______ _____ _____    ______ ____
ROOT
ATOM      1  CA  UNL     1       3.829   3.650  18.633  0.00  0.00    +0.000 C 
ENDROOT
BRANCH   1   2
ATOM      2  C   UNL     1       4.898   4.073  17.640  0.00  0.00    +0.000 A 
ATOM      3  C   UNL     1       6.157   4.495  18.101  0.00  0.00    +0.000 A 
ATOM      4  C   UNL     1       7.138   4.914  17.200  0.00  0.00    +0.000 A 
ATOM      5  C   UNL     1       6.859   4.919  15.837  0.00  0.00    +0.000 A 
ATOM      6  C   UNL     1       5.623   4.498  15.361  0.00  0.00    +0.000 A 
ATOM      7  C   UNL     1       4.644   4.074  16.259  0.00  0.00    +0.000 A 
BRANCH   5   8
ATOM      8  O   UNL     1       7.776   5.346  14.926  0.00  0.00    +0.000 OA
ATOM      9  H   UNL     1       8.167   4.571  14.490  0.00  0.00    +0.000 HD
ENDBRANCH   5   8
ENDBRANCH   1   2
BRANCH   1  13
ATOM     10  C   UNL     1       1.733   6.141  20.569  0.00  0.00    +0.000 C 
ATOM     11  C   UNL     1       2.468   4.858  20.302  0.00  0.00    +0.000 C 
ATOM     12  O   UNL     1       2.536   3.950  21.122  0.00  0.00    +0.000 OA
ATOM     13  N   UNL     1       3.064   4.810  19.069  0.00  0.00    +0.000 N 
ATOM     14  H   UNL     1       2.944   5.570  18.409  0.00  0.00    +0.000 HD
ENDBRANCH   1  13
BRANCH   1  15
ATOM     15  C   UNL     1       2.887   2.576  18.055  0.00  0.00    +0.000 C 
ATOM     16  O   UNL     1       1.811   2.825  17.522  0.00  0.00    +0.000 OA
BRANCH  15  17
ATOM     17  OXT UNL     1       3.326   1.300  18.206  0.00  0.00    +0.000 OA
ATOM     18  HXT UNL     1       4.300   1.207  18.187  0.00  0.00    +0.000 HD
ENDBRANCH  15  17
ENDBRANCH   1  15
TORSDOF 5
ENDMDL
