MODEL 1
REMARK VINA RESULT:      -8.4      0.000      0.000
REMARK  Name = 
REMARK  7 active torsions:
REMARK  status: ('A' for Active; 'I' for Inactive)
REMARK    1  A    between atoms: N_1  and  C_2
REMARK    2  A    between atoms: C_2  and  C_3
REMARK    3  A    between atoms: C_2  and  C_13
REMARK    4  A    between atoms: C_3  and  C_4
REMARK    5  A    between atoms: C_20  and  C_21
REMARK    6  A    between atoms: C_29  and  C_30
REMARK    7  A    between atoms: C_30  and  C_31
REMARK                            x       y       z     vdW  Elec       q    Type
REMARK                         _______ _______ _______ _____ _____    ______ ____
ROOT
ATOM      1  C   UNL     1       0.151  10.060  22.560  0.00  0.00    +0.000 C 
ATOM      2  O   UNL     1       0.028  10.009  23.784  0.00  0.00    +0.000 OA
ATOM      3  N   UNL     1      -0.729  10.785  21.745  0.00  0.00    +0.000 N 
ATOM      4  C   UNL     1      -1.726  11.629  22.407  0.00  0.00    +0.000 C 
ATOM      5  C   UNL     1      -1.184  13.048  22.535  0.00  0.00    +0.000 C 
ATOM      6  N   UNL     1      -0.591  13.477  21.284  0.00  0.00    +0.000 N 
ATOM      7  C   UNL     1      -0.247  14.750  20.957  0.00  0.00    +0.000 A 
ATOM      8  C   UNL     1       0.281  14.664  19.686  0.00  0.00    +0.000 A 
ATOM      9  N   UNL     1       0.244  13.356  19.242  0.00  0.00    +0.000 NA
ATOM     10  C   UNL     1      -0.257  12.646  20.240  0.00  0.00    +0.000 A 
ATOM     11  C   UNL     1      -0.448  11.136  20.329  0.00  0.00    +0.000 C 
ENDROOT
BRANCH   8  12
ATOM     12  C   UNL     1       0.712  15.818  18.914  0.00  0.00    +0.000 A 
ATOM     13  C   UNL     1      -0.223  16.746  18.426  0.00  0.00    +0.000 A 
ATOM     14  C   UNL     1       0.168  17.768  17.558  0.00  0.00    +0.000 A 
ATOM     15  C   UNL     1       1.502  17.884  17.181  0.00  0.00    +0.000 A 
ATOM     16  C   UNL     1       2.449  16.998  17.698  0.00  0.00    +0.000 A 
ATOM     17  C   UNL     1       2.059  15.975  18.568  0.00  0.00    +0.000 A 
ENDBRANCH   8  12
BRANCH   1  18
ATOM     18  C   UNL     1       1.328   9.362  21.847  0.00  0.00    +0.000 C 
BRANCH  18  19
ATOM     19  N   UNL     1       2.489   9.389  22.770  0.00  0.00    +0.000 NA
ATOM     20  H   UNL     1       2.233   9.931  23.597  0.00  0.00    +0.000 HD
ATOM     21  H   UNL     1       3.255   9.896  22.329  0.00  0.00    +0.000 HD
ENDBRANCH  18  19
BRANCH  18  22
ATOM     22  C   UNL     1       0.960   7.950  21.371  0.00  0.00    +0.000 C 
BRANCH  22  23
ATOM     23  C   UNL     1       1.697   7.601  20.109  0.00  0.00    +0.000 A 
ATOM     24  C   UNL     1       2.023   8.454  19.072  0.00  0.00    +0.000 A 
ATOM     25  N   UNL     1       2.711   7.737  18.128  0.00  0.00    +0.000 N 
ATOM     26  C   UNL     1       2.842   6.427  18.528  0.00  0.00    +0.000 A 
ATOM     27  C   UNL     1       3.438   5.337  17.884  0.00  0.00    +0.000 A 
ATOM     28  C   UNL     1       3.439   4.110  18.556  0.00  0.00    +0.000 A 
ATOM     29  C   UNL     1       2.890   3.986  19.830  0.00  0.00    +0.000 A 
ATOM     30  C   UNL     1       2.292   5.084  20.454  0.00  0.00    +0.000 A 
ATOM     31  C   UNL     1       2.246   6.322  19.783  0.00  0.00    +0.000 A 
ATOM     32  H   UNL     1       3.076   8.110  17.262  0.00  0.00    +0.000 HD
ENDBRANCH  22  23
ENDBRANCH  18  22
ENDBRANCH   1  18
BRANCH  11  33
ATOM     33  C   UNL     1      -1.547  10.643  19.354  0.00  0.00    +0.000 C 
BRANCH  33  34
ATOM     34  C   UNL     1      -2.219  11.714  18.442  0.00  0.00    +0.000 C 
ATOM     35  C   UNL     1      -1.868  11.656  16.943  0.00  0.00    +0.000 C 
ATOM     36  C   UNL     1      -2.482  10.465  16.208  0.00  0.00    +0.000 C 
ATOM     37  C   UNL     1      -3.995  10.417  16.382  0.00  0.00    +0.000 C 
ATOM     38  C   UNL     1      -4.393  10.463  17.852  0.00  0.00    +0.000 C 
ATOM     39  C   UNL     1      -3.760  11.650  18.582  0.00  0.00    +0.000 C 
ENDBRANCH  33  34
ENDBRANCH  11  33
TORSDOF 7
ENDMDL
MODEL 2
REMARK VINA RESULT:      -8.2      0.993      1.593
REMARK  Name = 
REMARK  7 active torsions:
REMARK  status: ('A' for Active; 'I' for Inactive)
REMARK    1  A    between atoms: N_1  and  C_2
REMARK    2  A    between atoms: C_2  and  C_3
REMARK    3  A    between atoms: C_2  and  C_13
REMARK    4  A    between atoms: C_3  and  C_4
REMARK    5  A    between atoms: C_20  and  C_21
REMARK    6  A    between atoms: C_29  and  C_30
REMARK    7  A    between atoms: C_30  and  C_31
REMARK                            x       y       z     vdW  Elec       q    Type
REMARK                         _______ _______ _______ _____ _____    ______ ____
ROOT
ATOM      1  C   UNL     1       0.018   9.944  22.490  0.00  0.00    +0.000 C 
ATOM      2  O   UNL     1      -0.176   9.971  23.705  0.00  0.00    +0.000 OA
ATOM      3  N   UNL     1      -0.694  10.756  21.595  0.00  0.00    +0.000 N 
ATOM      4  C   UNL     1      -1.580  11.774  22.163  0.00  0.00    +0.000 C 
ATOM      5  C   UNL     1      -0.831  13.096  22.268  0.00  0.00    +0.000 C 
ATOM      6  N   UNL     1      -0.113  13.369  21.038  0.00  0.00    +0.000 N 
ATOM      7  C   UNL     1       0.443  14.556  20.683  0.00  0.00    +0.000 A 
ATOM      8  C   UNL     1       1.017  14.330  19.450  0.00  0.00    +0.000 A 
ATOM      9  N   UNL     1       0.800  13.023  19.056  0.00  0.00    +0.000 NA
ATOM     10  C   UNL     1       0.142  12.447  20.050  0.00  0.00    +0.000 A 
ATOM     11  C   UNL     1      -0.287  10.990  20.186  0.00  0.00    +0.000 C 
ENDROOT
BRANCH   8  12
ATOM     12  C   UNL     1       1.664  15.365  18.660  0.00  0.00    +0.000 A 
ATOM     13  C   UNL     1       1.047  16.613  18.469  0.00  0.00    +0.000 A 
ATOM     14  C   UNL     1       1.589  17.552  17.589  0.00  0.00    +0.000 A 
ATOM     15  C   UNL     1       2.764  17.261  16.903  0.00  0.00    +0.000 A 
ATOM     16  C   UNL     1       3.413  16.045  17.123  0.00  0.00    +0.000 A 
ATOM     17  C   UNL     1       2.872  15.104  18.005  0.00  0.00    +0.000 A 
ENDBRANCH   8  12
BRANCH   1  18
ATOM     18  C   UNL     1       1.107   9.039  21.876  0.00  0.00    +0.000 C 
BRANCH  18  19
ATOM     19  N   UNL     1       2.226   8.965  22.847  0.00  0.00    +0.000 NA
ATOM     20  H   UNL     1       2.955   9.617  22.552  0.00  0.00    +0.000 HD
ATOM     21  H   UNL     1       2.646   8.039  22.803  0.00  0.00    +0.000 HD
ENDBRANCH  18  19
BRANCH  18  22
ATOM     22  C   UNL     1       0.558   7.664  21.473  0.00  0.00    +0.000 C 
BRANCH  22  23
ATOM     23  C   UNL     1       1.610   6.850  20.775  0.00  0.00    +0.000 A 
ATOM     24  C   UNL     1       2.109   5.622  21.166  0.00  0.00    +0.000 A 
ATOM     25  N   UNL     1       3.036   5.221  20.239  0.00  0.00    +0.000 N 
ATOM     26  C   UNL     1       3.153   6.166  19.245  0.00  0.00    +0.000 A 
ATOM     27  C   UNL     1       3.984   6.201  18.120  0.00  0.00    +0.000 A 
ATOM     28  C   UNL     1       3.865   7.298  17.261  0.00  0.00    +0.000 A 
ATOM     29  C   UNL     1       2.934   8.306  17.505  0.00  0.00    +0.000 A 
ATOM     30  C   UNL     1       2.119   8.259  18.638  0.00  0.00    +0.000 A 
ATOM     31  C   UNL     1       2.245   7.181  19.538  0.00  0.00    +0.000 A 
ATOM     32  H   UNL     1       3.558   4.356  20.271  0.00  0.00    +0.000 HD
ENDBRANCH  22  23
ENDBRANCH  18  22
ENDBRANCH   1  18
BRANCH  11  33
ATOM     33  C   UNL     1      -1.396  10.627  19.167  0.00  0.00    +0.000 C 
BRANCH  33  34
ATOM     34  C   UNL     1      -2.068  11.804  18.398  0.00  0.00    +0.000 C 
ATOM     35  C   UNL     1      -1.897  11.808  16.866  0.00  0.00    +0.000 C 
ATOM     36  C   UNL     1      -2.698  10.721  16.151  0.00  0.00    +0.000 C 
ATOM     37  C   UNL     1      -4.179  10.791  16.502  0.00  0.00    +0.000 C 
ATOM     38  C   UNL     1      -4.400  10.781  18.010  0.00  0.00    +0.000 C 
ATOM     39  C   UNL     1      -3.582  11.862  18.718  0.00  0.00    +0.000 C 
ENDBRANCH  33  34
ENDBRANCH  11  33
TORSDOF 7
ENDMDL
MODEL 3
REMARK VINA RESULT:      -8.0      1.127      1.481
REMARK  Name = 
REMARK  7 active torsions:
REMARK  status: ('A' for Active; 'I' for Inactive)
REMARK    1  A    between atoms: N_1  and  C_2
REMARK    2  A    between atoms: C_2  and  C_3
REMARK    3  A    between atoms: C_2  and  C_13
REMARK    4  A    between atoms: C_3  and  C_4
REMARK    5  A    between atoms: C_20  and  C_21
REMARK    6  A    between atoms: C_29  and  C_30
REMARK    7  A    between atoms: C_30  and  C_31
REMARK                            x       y       z     vdW  Elec       q    Type
REMARK                         _______ _______ _______ _____ _____    ______ ____
ROOT
ATOM      1  C   UNL     1       0.057  10.300  21.501  0.00  0.00    +0.000 C 
ATOM      2  O   UNL     1       0.377  10.082  22.669  0.00  0.00    +0.000 OA
ATOM      3  N   UNL     1      -0.895  11.267  21.149  0.00  0.00    +0.000 N 
ATOM      4  C   UNL     1      -1.395  12.143  22.210  0.00  0.00    +0.000 C 
ATOM      5  C   UNL     1      -0.572  13.425  22.239  0.00  0.00    +0.000 C 
ATOM      6  N   UNL     1      -0.398  13.944  20.897  0.00  0.00    +0.000 N 
ATOM      7  C   UNL     1       0.051  15.184  20.571  0.00  0.00    +0.000 A 
ATOM      8  C   UNL     1       0.056  15.214  19.193  0.00  0.00    +0.000 A 
ATOM      9  N   UNL     1      -0.399  14.009  18.688  0.00  0.00    +0.000 NA
ATOM     10  C   UNL     1      -0.637  13.241  19.739  0.00  0.00    +0.000 A 
ATOM     11  C   UNL     1      -1.080  11.782  19.767  0.00  0.00    +0.000 C 
ENDROOT
BRANCH   8  12
ATOM     12  C   UNL     1       0.401  16.392  18.413  0.00  0.00    +0.000 A 
ATOM     13  C   UNL     1      -0.601  17.244  17.918  0.00  0.00    +0.000 A 
ATOM     14  C   UNL     1      -0.288  18.286  17.044  0.00  0.00    +0.000 A 
ATOM     15  C   UNL     1       1.035  18.500  16.668  0.00  0.00    +0.000 A 
ATOM     16  C   UNL     1       2.045  17.692  17.192  0.00  0.00    +0.000 A 
ATOM     17  C   UNL     1       1.732  16.648  18.069  0.00  0.00    +0.000 A 
ENDBRANCH   8  12
BRANCH   1  18
ATOM     18  C   UNL     1       0.732   9.546  20.335  0.00  0.00    +0.000 C 
BRANCH  18  19
ATOM     19  N   UNL     1       1.439  10.551  19.503  0.00  0.00    +0.000 NA
ATOM     20  H   UNL     1       2.432  10.311  19.479  0.00  0.00    +0.000 HD
ATOM     21  H   UNL     1       1.382  11.460  19.958  0.00  0.00    +0.000 HD
ENDBRANCH  18  19
BRANCH  18  22
ATOM     22  C   UNL     1       1.643   8.414  20.829  0.00  0.00    +0.000 C 
BRANCH  22  23
ATOM     23  C   UNL     1       2.003   7.486  19.703  0.00  0.00    +0.000 A 
ATOM     24  C   UNL     1       2.573   7.827  18.492  0.00  0.00    +0.000 A 
ATOM     25  N   UNL     1       2.754   6.679  17.765  0.00  0.00    +0.000 N 
ATOM     26  C   UNL     1       2.313   5.589  18.480  0.00  0.00    +0.000 A 
ATOM     27  C   UNL     1       2.274   4.234  18.136  0.00  0.00    +0.000 A 
ATOM     28  C   UNL     1       1.784   3.337  19.092  0.00  0.00    +0.000 A 
ATOM     29  C   UNL     1       1.375   3.777  20.349  0.00  0.00    +0.000 A 
ATOM     30  C   UNL     1       1.414   5.135  20.672  0.00  0.00    +0.000 A 
ATOM     31  C   UNL     1       1.870   6.063  19.714  0.00  0.00    +0.000 A 
ATOM     32  H   UNL     1       3.157   6.631  16.839  0.00  0.00    +0.000 HD
ENDBRANCH  22  23
ENDBRANCH  18  22
ENDBRANCH   1  18
BRANCH  11  33
ATOM     33  C   UNL     1      -2.531  11.619  19.250  0.00  0.00    +0.000 C 
BRANCH  33  34
ATOM     34  C   UNL     1      -2.864  10.312  18.470  0.00  0.00    +0.000 C 
ATOM     35  C   UNL     1      -4.308  10.175  17.947  0.00  0.00    +0.000 C 
ATOM     36  C   UNL     1      -4.634  11.102  16.778  0.00  0.00    +0.000 C 
ATOM     37  C   UNL     1      -3.653  10.922  15.626  0.00  0.00    +0.000 C 
ATOM     38  C   UNL     1      -2.209  11.058  16.093  0.00  0.00    +0.000 C 
ATOM     39  C   UNL     1      -1.896  10.137  17.273  0.00  0.00    +0.000 C 
ENDBRANCH  33  34
ENDBRANCH  11  33
TORSDOF 7
ENDMDL
MODEL 4
REMARK VINA RESULT:      -7.8      2.392      7.676
REMARK  Name = 
REMARK  7 active torsions:
REMARK  status: ('A' for Active; 'I' for Inactive)
REMARK    1  A    between atoms: N_1  and  C_2
REMARK    2  A    between atoms: C_2  and  C_3
REMARK    3  A    between atoms: C_2  and  C_13
REMARK    4  A    between atoms: C_3  and  C_4
REMARK    5  A    between atoms: C_20  and  C_21
REMARK    6  A    between atoms: C_29  and  C_30
REMARK    7  A    between atoms: C_30  and  C_31
REMARK                            x       y       z     vdW  Elec       q    Type
REMARK                         _______ _______ _______ _____ _____    ______ ____
ROOT
ATOM      1  C   UNL     1      -0.209  13.490  20.800  0.00  0.00    +0.000 C 
ATOM      2  O   UNL     1       0.430  14.487  21.134  0.00  0.00    +0.000 OA
ATOM      3  N   UNL     1      -0.145  12.952  19.507  0.00  0.00    +0.000 N 
ATOM      4  C   UNL     1       0.842  13.519  18.586  0.00  0.00    +0.000 C 
ATOM      5  C   UNL     1       2.123  12.697  18.646  0.00  0.00    +0.000 C 
ATOM      6  N   UNL     1       1.816  11.281  18.593  0.00  0.00    +0.000 N 
ATOM      7  C   UNL     1       2.705  10.278  18.368  0.00  0.00    +0.000 A 
ATOM      8  C   UNL     1       1.960   9.119  18.419  0.00  0.00    +0.000 A 
ATOM      9  N   UNL     1       0.631   9.417  18.658  0.00  0.00    +0.000 NA
ATOM     10  C   UNL     1       0.571  10.732  18.795  0.00  0.00    +0.000 A 
ATOM     11  C   UNL     1      -0.634  11.596  19.148  0.00  0.00    +0.000 C 
ENDROOT
BRANCH   8  12
ATOM     12  C   UNL     1       2.506   7.798  18.155  0.00  0.00    +0.000 A 
ATOM     13  C   UNL     1       3.744   7.649  17.508  0.00  0.00    +0.000 A 
ATOM     14  C   UNL     1       4.200   6.389  17.115  0.00  0.00    +0.000 A 
ATOM     15  C   UNL     1       3.431   5.260  17.382  0.00  0.00    +0.000 A 
ATOM     16  C   UNL     1       2.223   5.390  18.068  0.00  0.00    +0.000 A 
ATOM     17  C   UNL     1       1.765   6.652  18.462  0.00  0.00    +0.000 A 
ENDBRANCH   8  12
BRANCH   1  18
ATOM     18  C   UNL     1      -1.090  12.731  21.815  0.00  0.00    +0.000 C 
BRANCH  18  19
ATOM     19  N   UNL     1      -0.206  11.820  22.582  0.00  0.00    +0.000 NA
ATOM     20  H   UNL     1      -0.530  11.793  23.551  0.00  0.00    +0.000 HD
ATOM     21  H   UNL     1       0.733  12.214  22.613  0.00  0.00    +0.000 HD
ENDBRANCH  18  19
BRANCH  18  22
ATOM     22  C   UNL     1      -1.901  13.685  22.703  0.00  0.00    +0.000 C 
BRANCH  22  23
ATOM     23  C   UNL     1      -3.310  13.191  22.872  0.00  0.00    +0.000 A 
ATOM     24  C   UNL     1      -3.900  12.738  24.037  0.00  0.00    +0.000 A 
ATOM     25  N   UNL     1      -5.200  12.405  23.757  0.00  0.00    +0.000 N 
ATOM     26  C   UNL     1      -5.474  12.633  22.429  0.00  0.00    +0.000 A 
ATOM     27  C   UNL     1      -6.644  12.417  21.693  0.00  0.00    +0.000 A 
ATOM     28  C   UNL     1      -6.633  12.770  20.340  0.00  0.00    +0.000 A 
ATOM     29  C   UNL     1      -5.505  13.339  19.753  0.00  0.00    +0.000 A 
ATOM     30  C   UNL     1      -4.342  13.539  20.501  0.00  0.00    +0.000 A 
ATOM     31  C   UNL     1      -4.316  13.159  21.858  0.00  0.00    +0.000 A 
ATOM     32  H   UNL     1      -5.868  12.048  24.426  0.00  0.00    +0.000 HD
ENDBRANCH  22  23
ENDBRANCH  18  22
ENDBRANCH   1  18
BRANCH  11  33
ATOM     33  C   UNL     1      -1.678  11.612  18.004  0.00  0.00    +0.000 C 
BRANCH  33  34
ATOM     34  C   UNL     1      -2.573  10.347  17.841  0.00  0.00    +0.000 C 
ATOM     35  C   UNL     1      -4.096  10.582  17.826  0.00  0.00    +0.000 C 
ATOM     36  C   UNL     1      -4.607  11.258  16.554  0.00  0.00    +0.000 C 
ATOM     37  C   UNL     1      -4.195  10.490  15.305  0.00  0.00    +0.000 C 
ATOM     38  C   UNL     1      -2.692  10.239  15.270  0.00  0.00    +0.000 C 
ATOM     39  C   UNL     1      -2.189   9.576  16.553  0.00  0.00    +0.000 C 
ENDBRANCH  33  34
ENDBRANCH  11  33
TORSDOF 7
ENDMDL
MODEL 5
REMARK VINA RESULT:      -7.8      3.431      6.948
REMARK  Name = 
REMARK  7 active torsions:
REMARK  status: ('A' for Active; 'I' for Inactive)
REMARK    1  A    between atoms: N_1  and  C_2
REMARK    2  A    between atoms: C_2  and  C_3
REMARK    3  A    between atoms: C_2  and  C_13
REMARK    4  A    between atoms: C_3  and  C_4
REMARK    5  A    between atoms: C_20  and  C_21
REMARK    6  A    between atoms: C_29  and  C_30
REMARK    7  A    between atoms: C_30  and  C_31
REMARK                            x       y       z     vdW  Elec       q    Type
REMARK                         _______ _______ _______ _____ _____    ______ ____
ROOT
ATOM      1  C   UNL     1      -2.687  10.485  17.825  0.00  0.00    +0.000 C 
ATOM      2  O   UNL     1      -2.604   9.299  17.503  0.00  0.00    +0.000 OA
ATOM      3  N   UNL     1      -2.068  10.999  18.973  0.00  0.00    +0.000 N 
ATOM      4  C   UNL     1      -1.170  10.110  19.713  0.00  0.00    +0.000 C 
ATOM      5  C   UNL     1       0.261  10.325  19.236  0.00  0.00    +0.000 C 
ATOM      6  N   UNL     1       0.557  11.741  19.148  0.00  0.00    +0.000 N 
ATOM      7  C   UNL     1       1.790  12.293  19.009  0.00  0.00    +0.000 A 
ATOM      8  C   UNL     1       1.572  13.654  18.961  0.00  0.00    +0.000 A 
ATOM      9  N   UNL     1       0.222  13.924  19.085  0.00  0.00    +0.000 NA
ATOM     10  C   UNL     1      -0.380  12.748  19.162  0.00  0.00    +0.000 A 
ATOM     11  C   UNL     1      -1.873  12.449  19.230  0.00  0.00    +0.000 C 
ENDROOT
BRANCH   8  12
ATOM     12  C   UNL     1       2.639  14.639  18.892  0.00  0.00    +0.000 A 
ATOM     13  C   UNL     1       3.505  14.838  19.981  0.00  0.00    +0.000 A 
ATOM     14  C   UNL     1       4.430  15.884  19.979  0.00  0.00    +0.000 A 
ATOM     15  C   UNL     1       4.512  16.733  18.880  0.00  0.00    +0.000 A 
ATOM     16  C   UNL     1       3.692  16.516  17.771  0.00  0.00    +0.000 A 
ATOM     17  C   UNL     1       2.765  15.467  17.772  0.00  0.00    +0.000 A 
ENDBRANCH   8  12
BRANCH   1  18
ATOM     18  C   UNL     1      -3.444  11.500  16.942  0.00  0.00    +0.000 C 
BRANCH  18  19
ATOM     19  N   UNL     1      -2.789  11.510  15.611  0.00  0.00    +0.000 NA
ATOM     20  H   UNL     1      -1.842  11.879  15.718  0.00  0.00    +0.000 HD
ATOM     21  H   UNL     1      -3.277  12.166  15.003  0.00  0.00    +0.000 HD
ENDBRANCH  18  19
BRANCH  18  22
ATOM     22  C   UNL     1      -4.948  11.201  16.878  0.00  0.00    +0.000 C 
BRANCH  22  23
ATOM     23  C   UNL     1      -5.637  11.651  18.136  0.00  0.00    +0.000 A 
ATOM     24  C   UNL     1      -5.701  12.937  18.637  0.00  0.00    +0.000 A 
ATOM     25  N   UNL     1      -6.442  12.911  19.790  0.00  0.00    +0.000 N 
ATOM     26  C   UNL     1      -6.865  11.630  20.055  0.00  0.00    +0.000 A 
ATOM     27  C   UNL     1      -7.614  11.123  21.122  0.00  0.00    +0.000 A 
ATOM     28  C   UNL     1      -7.915   9.757  21.112  0.00  0.00    +0.000 A 
ATOM     29  C   UNL     1      -7.506   8.937  20.063  0.00  0.00    +0.000 A 
ATOM     30  C   UNL     1      -6.751   9.459  19.010  0.00  0.00    +0.000 A 
ATOM     31  C   UNL     1      -6.404  10.824  19.014  0.00  0.00    +0.000 A 
ATOM     32  H   UNL     1      -6.654  13.715  20.366  0.00  0.00    +0.000 HD
ENDBRANCH  22  23
ENDBRANCH  18  22
ENDBRANCH   1  18
BRANCH  11  33
ATOM     33  C   UNL     1      -2.485  12.913  20.576  0.00  0.00    +0.000 C 
BRANCH  33  34
ATOM     34  C   UNL     1      -1.571  12.838  21.835  0.00  0.00    +0.000 C 
ATOM     35  C   UNL     1      -1.221  14.180  22.508  0.00  0.00    +0.000 C 
ATOM     36  C   UNL     1      -2.392  14.827  23.246  0.00  0.00    +0.000 C 
ATOM     37  C   UNL     1      -3.001  13.882  24.273  0.00  0.00    +0.000 C 
ATOM     38  C   UNL     1      -3.373  12.541  23.652  0.00  0.00    +0.000 C 
ATOM     39  C   UNL     1      -2.198  11.908  22.903  0.00  0.00    +0.000 C 
ENDBRANCH  33  34
ENDBRANCH  11  33
TORSDOF 7
ENDMDL
MODEL 6
REMARK VINA RESULT:      -7.8      2.512      8.596
REMARK  Name = 
REMARK  7 active torsions:
REMARK  status: ('A' for Active; 'I' for Inactive)
REMARK    1  A    between atoms: N_1  and  C_2
REMARK    2  A    between atoms: C_2  and  C_3
REMARK    3  A    between atoms: C_2  and  C_13
REMARK    4  A    between atoms: C_3  and  C_4
REMARK    5  A    between atoms: C_20  and  C_21
REMARK    6  A    between atoms: C_29  and  C_30
REMARK    7  A    between atoms: C_30  and  C_31
REMARK                            x       y       z     vdW  Elec       q    Type
REMARK                         _______ _______ _______ _____ _____    ______ ____
ROOT
ATOM      1  C   UNL     1      -1.036  10.410  19.455  0.00  0.00    +0.000 C 
ATOM      2  O   UNL     1      -1.775  10.199  20.417  0.00  0.00    +0.000 OA
ATOM      3  N   UNL     1       0.362  10.412  19.566  0.00  0.00    +0.000 N 
ATOM      4  C   UNL     1       0.941   9.991  20.843  0.00  0.00    +0.000 C 
ATOM      5  C   UNL     1       1.267   8.503  20.786  0.00  0.00    +0.000 C 
ATOM      6  N   UNL     1       1.945   8.183  19.545  0.00  0.00    +0.000 N 
ATOM      7  C   UNL     1       2.602   7.027  19.269  0.00  0.00    +0.000 A 
ATOM      8  C   UNL     1       3.069   7.177  17.981  0.00  0.00    +0.000 A 
ATOM      9  N   UNL     1       2.710   8.417  17.486  0.00  0.00    +0.000 NA
ATOM     10  C   UNL     1       1.998   8.998  18.439  0.00  0.00    +0.000 A 
ATOM     11  C   UNL     1       1.285  10.345  18.403  0.00  0.00    +0.000 C 
ENDROOT
BRANCH   8  12
ATOM     12  C   UNL     1       3.901   6.195  17.305  0.00  0.00    +0.000 A 
ATOM     13  C   UNL     1       4.878   6.597  16.378  0.00  0.00    +0.000 A 
ATOM     14  C   UNL     1       5.572   5.656  15.615  0.00  0.00    +0.000 A 
ATOM     15  C   UNL     1       5.309   4.300  15.782  0.00  0.00    +0.000 A 
ATOM     16  C   UNL     1       4.377   3.885  16.735  0.00  0.00    +0.000 A 
ATOM     17  C   UNL     1       3.682   4.827  17.500  0.00  0.00    +0.000 A 
ENDBRANCH   8  12
BRANCH   1  18
ATOM     18  C   UNL     1      -1.612  10.637  18.041  0.00  0.00    +0.000 C 
BRANCH  18  19
ATOM     19  N   UNL     1      -2.516   9.500  17.740  0.00  0.00    +0.000 NA
ATOM     20  H   UNL     1      -2.898   9.630  16.801  0.00  0.00    +0.000 HD
ATOM     21  H   UNL     1      -3.314   9.531  18.372  0.00  0.00    +0.000 HD
ENDBRANCH  18  19
BRANCH  18  22
ATOM     22  C   UNL     1      -2.289  12.007  17.906  0.00  0.00    +0.000 C 
BRANCH  22  23
ATOM     23  C   UNL     1      -3.783  11.860  17.823  0.00  0.00    +0.000 A 
ATOM     24  C   UNL     1      -4.522  11.483  16.718  0.00  0.00    +0.000 A 
ATOM     25  N   UNL     1      -5.845  11.454  17.078  0.00  0.00    +0.000 N 
ATOM     26  C   UNL     1      -5.986  11.805  18.400  0.00  0.00    +0.000 A 
ATOM     27  C   UNL     1      -7.135  11.938  19.186  0.00  0.00    +0.000 A 
ATOM     28  C   UNL     1      -6.964  12.293  20.528  0.00  0.00    +0.000 A 
ATOM     29  C   UNL     1      -5.694  12.481  21.068  0.00  0.00    +0.000 A 
ATOM     30  C   UNL     1      -4.558  12.352  20.266  0.00  0.00    +0.000 A 
ATOM     31  C   UNL     1      -4.705  12.030  18.901  0.00  0.00    +0.000 A 
ATOM     32  H   UNL     1      -6.611  11.207  16.466  0.00  0.00    +0.000 HD
ENDBRANCH  22  23
ENDBRANCH  18  22
ENDBRANCH   1  18
BRANCH  11  33
ATOM     33  C   UNL     1       2.292  11.521  18.361  0.00  0.00    +0.000 C 
BRANCH  33  34
ATOM     34  C   UNL     1       1.719  12.955  18.571  0.00  0.00    +0.000 C 
ATOM     35  C   UNL     1       1.621  13.447  20.028  0.00  0.00    +0.000 C 
ATOM     36  C   UNL     1       2.972  13.761  20.669  0.00  0.00    +0.000 C 
ATOM     37  C   UNL     1       3.767  14.763  19.841  0.00  0.00    +0.000 C 
ATOM     38  C   UNL     1       3.899  14.314  18.391  0.00  0.00    +0.000 C 
ATOM     39  C   UNL     1       2.542  13.988  17.764  0.00  0.00    +0.000 C 
ENDBRANCH  33  34
ENDBRANCH  11  33
TORSDOF 7
ENDMDL
MODEL 7
REMARK VINA RESULT:      -7.7      1.589      2.392
REMARK  Name = 
REMARK  7 active torsions:
REMARK  status: ('A' for Active; 'I' for Inactive)
REMARK    1  A    between atoms: N_1  and  C_2
REMARK    2  A    between atoms: C_2  and  C_3
REMARK    3  A    between atoms: C_2  and  C_13
REMARK    4  A    between atoms: C_3  and  C_4
REMARK    5  A    between atoms: C_20  and  C_21
REMARK    6  A    between atoms: C_29  and  C_30
REMARK    7  A    between atoms: C_30  and  C_31
REMARK                            x       y       z     vdW  Elec       q    Type
REMARK                         _______ _______ _______ _____ _____    ______ ____
ROOT
ATOM      1  C   UNL     1       1.343   8.496  19.922  0.00  0.00    +0.000 C 
ATOM      2  O   UNL     1       1.735   7.981  20.969  0.00  0.00    +0.000 OA
ATOM      3  N   UNL     1       0.309   9.442  19.888  0.00  0.00    +0.000 N 
ATOM      4  C   UNL     1      -0.200   9.934  21.170  0.00  0.00    +0.000 C 
ATOM      5  C   UNL     1       0.529  11.218  21.546  0.00  0.00    +0.000 C 
ATOM      6  N   UNL     1       0.599  12.111  20.406  0.00  0.00    +0.000 N 
ATOM      7  C   UNL     1       0.942  13.425  20.439  0.00  0.00    +0.000 A 
ATOM      8  C   UNL     1       0.878  13.847  19.128  0.00  0.00    +0.000 A 
ATOM      9  N   UNL     1       0.485  12.803  18.310  0.00  0.00    +0.000 NA
ATOM     10  C   UNL     1       0.355  11.749  19.101  0.00  0.00    +0.000 A 
ATOM     11  C   UNL     1       0.020  10.312  18.719  0.00  0.00    +0.000 C 
ENDROOT
BRANCH   8  12
ATOM     12  C   UNL     1       1.098  15.222  18.713  0.00  0.00    +0.000 A 
ATOM     13  C   UNL     1       0.025  16.123  18.613  0.00  0.00    +0.000 A 
ATOM     14  C   UNL     1       0.206  17.396  18.069  0.00  0.00    +0.000 A 
ATOM     15  C   UNL     1       1.468  17.790  17.635  0.00  0.00    +0.000 A 
ATOM     16  C   UNL     1       2.552  16.923  17.774  0.00  0.00    +0.000 A 
ATOM     17  C   UNL     1       2.372  15.647  18.320  0.00  0.00    +0.000 A 
ENDBRANCH   8  12
BRANCH   1  18
ATOM     18  C   UNL     1       2.013   8.165  18.571  0.00  0.00    +0.000 C 
BRANCH  18  19
ATOM     19  N   UNL     1       2.612   9.418  18.050  0.00  0.00    +0.000 NA
ATOM     20  H   UNL     1       3.560   9.215  17.729  0.00  0.00    +0.000 HD
ATOM     21  H   UNL     1       2.713  10.083  18.815  0.00  0.00    +0.000 HD
ENDBRANCH  18  19
BRANCH  18  22
ATOM     22  C   UNL     1       3.019   7.013  18.692  0.00  0.00    +0.000 C 
BRANCH  22  23
ATOM     23  C   UNL     1       2.330   5.684  18.563  0.00  0.00    +0.000 A 
ATOM     24  C   UNL     1       1.806   5.126  17.412  0.00  0.00    +0.000 A 
ATOM     25  N   UNL     1       1.288   3.897  17.730  0.00  0.00    +0.000 N 
ATOM     26  C   UNL     1       1.464   3.638  19.069  0.00  0.00    +0.000 A 
ATOM     27  C   UNL     1       1.078   2.536  19.840  0.00  0.00    +0.000 A 
ATOM     28  C   UNL     1       1.419   2.543  21.196  0.00  0.00    +0.000 A 
ATOM     29  C   UNL     1       2.139   3.597  21.753  0.00  0.00    +0.000 A 
ATOM     30  C   UNL     1       2.509   4.693  20.970  0.00  0.00    +0.000 A 
ATOM     31  C   UNL     1       2.147   4.727  19.609  0.00  0.00    +0.000 A 
ATOM     32  H   UNL     1       0.843   3.264  17.078  0.00  0.00    +0.000 HD
ENDBRANCH  22  23
ENDBRANCH  18  22
ENDBRANCH   1  18
BRANCH  11  33
ATOM     33  C   UNL     1      -1.440  10.184  18.216  0.00  0.00    +0.000 C 
BRANCH  33  34
ATOM     34  C   UNL     1      -2.077  11.443  17.555  0.00  0.00    +0.000 C 
ATOM     35  C   UNL     1      -2.657  11.256  16.140  0.00  0.00    +0.000 C 
ATOM     36  C   UNL     1      -3.944  10.434  16.102  0.00  0.00    +0.000 C 
ATOM     37  C   UNL     1      -5.011  11.016  17.020  0.00  0.00    +0.000 C 
ATOM     38  C   UNL     1      -4.486  11.213  18.437  0.00  0.00    +0.000 C 
ATOM     39  C   UNL     1      -3.189  12.024  18.463  0.00  0.00    +0.000 C 
ENDBRANCH  33  34
ENDBRANCH  11  33
TORSDOF 7
ENDMDL
MODEL 8
REMARK VINA RESULT:      -7.6      2.075      3.125
REMARK  Name = 
REMARK  7 active torsions:
REMARK  status: ('A' for Active; 'I' for Inactive)
REMARK    1  A    between atoms: N_1  and  C_2
REMARK    2  A    between atoms: C_2  and  C_3
REMARK    3  A    between atoms: C_2  and  C_13
REMARK    4  A    between atoms: C_3  and  C_4
REMARK    5  A    between atoms: C_20  and  C_21
REMARK    6  A    between atoms: C_29  and  C_30
REMARK    7  A    between atoms: C_30  and  C_31
REMARK                            x       y       z     vdW  Elec       q    Type
REMARK                         _______ _______ _______ _____ _____    ______ ____
ROOT
ATOM      1  C   UNL     1       1.629   7.909  19.618  0.00  0.00    +0.000 C 
ATOM      2  O   UNL     1       2.014   7.331  20.635  0.00  0.00    +0.000 OA
ATOM      3  N   UNL     1       0.680   8.940  19.653  0.00  0.00    +0.000 N 
ATOM      4  C   UNL     1       0.263   9.434  20.967  0.00  0.00    +0.000 C 
ATOM      5  C   UNL     1       1.114  10.638  21.349  0.00  0.00    +0.000 C 
ATOM      6  N   UNL     1       1.218  11.557  20.232  0.00  0.00    +0.000 N 
ATOM      7  C   UNL     1       1.673  12.836  20.288  0.00  0.00    +0.000 A 
ATOM      8  C   UNL     1       1.596  13.302  18.993  0.00  0.00    +0.000 A 
ATOM      9  N   UNL     1       1.086  12.322  18.163  0.00  0.00    +0.000 NA
ATOM     10  C   UNL     1       0.895  11.259  18.929  0.00  0.00    +0.000 A 
ATOM     11  C   UNL     1       0.423   9.868  18.521  0.00  0.00    +0.000 C 
ENDROOT
BRANCH   8  12
ATOM     12  C   UNL     1       1.919  14.667  18.608  0.00  0.00    +0.000 A 
ATOM     13  C   UNL     1       1.010  15.712  18.840  0.00  0.00    +0.000 A 
ATOM     14  C   UNL     1       1.246  16.993  18.336  0.00  0.00    +0.000 A 
ATOM     15  C   UNL     1       2.405  17.247  17.608  0.00  0.00    +0.000 A 
ATOM     16  C   UNL     1       3.340  16.229  17.413  0.00  0.00    +0.000 A 
ATOM     17  C   UNL     1       3.103  14.946  17.918  0.00  0.00    +0.000 A 
ENDBRANCH   8  12
BRANCH   1  18
ATOM     18  C   UNL     1       2.217   7.565  18.233  0.00  0.00    +0.000 C 
BRANCH  18  19
ATOM     19  N   UNL     1       3.493   8.309  18.092  0.00  0.00    +0.000 NA
ATOM     20  H   UNL     1       3.360   9.253  18.459  0.00  0.00    +0.000 HD
ATOM     21  H   UNL     1       3.705   8.422  17.102  0.00  0.00    +0.000 HD
ENDBRANCH  18  19
BRANCH  18  22
ATOM     22  C   UNL     1       2.368   6.051  18.030  0.00  0.00    +0.000 C 
BRANCH  22  23
ATOM     23  C   UNL     1       3.780   5.613  18.302  0.00  0.00    +0.000 A 
ATOM     24  C   UNL     1       4.336   5.307  19.529  0.00  0.00    +0.000 A 
ATOM     25  N   UNL     1       5.639   4.933  19.327  0.00  0.00    +0.000 N 
ATOM     26  C   UNL     1       5.948   4.987  17.988  0.00  0.00    +0.000 A 
ATOM     27  C   UNL     1       7.150   4.724  17.322  0.00  0.00    +0.000 A 
ATOM     28  C   UNL     1       7.158   4.844  15.928  0.00  0.00    +0.000 A 
ATOM     29  C   UNL     1       6.003   5.188  15.228  0.00  0.00    +0.000 A 
ATOM     30  C   UNL     1       4.815   5.456  15.911  0.00  0.00    +0.000 A 
ATOM     31  C   UNL     1       4.789   5.377  17.318  0.00  0.00    +0.000 A 
ATOM     32  H   UNL     1       6.285   4.652  20.053  0.00  0.00    +0.000 HD
ENDBRANCH  22  23
ENDBRANCH  18  22
ENDBRANCH   1  18
BRANCH  11  33
ATOM     33  C   UNL     1      -1.060   9.880  18.072  0.00  0.00    +0.000 C 
BRANCH  33  34
ATOM     34  C   UNL     1      -1.607  11.205  17.462  0.00  0.00    +0.000 C 
ATOM     35  C   UNL     1      -2.361  11.083  16.123  0.00  0.00    +0.000 C 
ATOM     36  C   UNL     1      -3.736  10.428  16.244  0.00  0.00    +0.000 C 
ATOM     37  C   UNL     1      -4.613  11.143  17.262  0.00  0.00    +0.000 C 
ATOM     38  C   UNL     1      -3.912  11.280  18.609  0.00  0.00    +0.000 C 
ATOM     39  C   UNL     1      -2.531  11.924  18.476  0.00  0.00    +0.000 C 
ENDBRANCH  33  34
ENDBRANCH  11  33
TORSDOF 7
ENDMDL
MODEL 9
REMARK VINA RESULT:      -7.5      3.445      7.298
REMARK  Name = 
REMARK  7 active torsions:
REMARK  status: ('A' for Active; 'I' for Inactive)
REMARK    1  A    between atoms: N_1  and  C_2
REMARK    2  A    between atoms: C_2  and  C_3
REMARK    3  A    between atoms: C_2  and  C_13
REMARK    4  A    between atoms: C_3  and  C_4
REMARK    5  A    between atoms: C_20  and  C_21
REMARK    6  A    between atoms: C_29  and  C_30
REMARK    7  A    between atoms: C_30  and  C_31
REMARK                            x       y       z     vdW  Elec       q    Type
REMARK                         _______ _______ _______ _____ _____    ______ ____
ROOT
ATOM      1  C   UNL     1      -2.646  10.565  18.063  0.00  0.00    +0.000 C 
ATOM      2  O   UNL     1      -2.586   9.369  17.780  0.00  0.00    +0.000 OA
ATOM      3  N   UNL     1      -2.017  11.104  19.195  0.00  0.00    +0.000 N 
ATOM      4  C   UNL     1      -1.136  10.223  19.964  0.00  0.00    +0.000 C 
ATOM      5  C   UNL     1       0.299  10.393  19.480  0.00  0.00    +0.000 C 
ATOM      6  N   UNL     1       0.623  11.800  19.346  0.00  0.00    +0.000 N 
ATOM      7  C   UNL     1       1.867  12.323  19.190  0.00  0.00    +0.000 A 
ATOM      8  C   UNL     1       1.676  13.685  19.098  0.00  0.00    +0.000 A 
ATOM      9  N   UNL     1       0.331  13.986  19.212  0.00  0.00    +0.000 NA
ATOM     10  C   UNL     1      -0.294  12.825  19.327  0.00  0.00    +0.000 A 
ATOM     11  C   UNL     1      -1.793  12.558  19.404  0.00  0.00    +0.000 C 
ENDROOT
BRANCH   8  12
ATOM     12  C   UNL     1       2.762  14.646  18.997  0.00  0.00    +0.000 A 
ATOM     13  C   UNL     1       2.684  15.888  19.650  0.00  0.00    +0.000 A 
ATOM     14  C   UNL     1       3.650  16.873  19.433  0.00  0.00    +0.000 A 
ATOM     15  C   UNL     1       4.716  16.620  18.574  0.00  0.00    +0.000 A 
ATOM     16  C   UNL     1       4.831  15.372  17.959  0.00  0.00    +0.000 A 
ATOM     17  C   UNL     1       3.864  14.385  18.176  0.00  0.00    +0.000 A 
ENDBRANCH   8  12
BRANCH   1  18
ATOM     18  C   UNL     1      -3.382  11.566  17.147  0.00  0.00    +0.000 C 
BRANCH  18  19
ATOM     19  N   UNL     1      -2.668  11.591  15.847  0.00  0.00    +0.000 NA
ATOM     20  H   UNL     1      -2.253  12.516  15.723  0.00  0.00    +0.000 HD
ATOM     21  H   UNL     1      -3.343  11.485  15.092  0.00  0.00    +0.000 HD
ENDBRANCH  18  19
BRANCH  18  22
ATOM     22  C   UNL     1      -4.876  11.237  17.016  0.00  0.00    +0.000 C 
BRANCH  22  23
ATOM     23  C   UNL     1      -5.720  12.361  17.546  0.00  0.00    +0.000 A 
ATOM     24  C   UNL     1      -6.393  13.317  16.809  0.00  0.00    +0.000 A 
ATOM     25  N   UNL     1      -7.058  14.140  17.681  0.00  0.00    +0.000 N 
ATOM     26  C   UNL     1      -6.834  13.739  18.978  0.00  0.00    +0.000 A 
ATOM     27  C   UNL     1      -7.279  14.286  20.186  0.00  0.00    +0.000 A 
ATOM     28  C   UNL     1      -6.902  13.638  21.368  0.00  0.00    +0.000 A 
ATOM     29  C   UNL     1      -6.133  12.477  21.339  0.00  0.00    +0.000 A 
ATOM     30  C   UNL     1      -5.691  11.950  20.123  0.00  0.00    +0.000 A 
ATOM     31  C   UNL     1      -6.027  12.604  18.921  0.00  0.00    +0.000 A 
ATOM     32  H   UNL     1      -7.634  14.927  17.416  0.00  0.00    +0.000 HD
ENDBRANCH  22  23
ENDBRANCH  18  22
ENDBRANCH   1  18
BRANCH  11  33
ATOM     33  C   UNL     1      -2.395  13.077  20.734  0.00  0.00    +0.000 C 
BRANCH  33  34
ATOM     34  C   UNL     1      -1.558  12.853  22.028  0.00  0.00    +0.000 C 
ATOM     35  C   UNL     1      -1.072  14.121  22.758  0.00  0.00    +0.000 C 
ATOM     36  C   UNL     1      -2.184  14.894  23.464  0.00  0.00    +0.000 C 
ATOM     37  C   UNL     1      -2.957  14.009  24.434  0.00  0.00    +0.000 C 
ATOM     38  C   UNL     1      -3.467  12.744  23.755  0.00  0.00    +0.000 C 
ATOM     39  C   UNL     1      -2.349  11.985  23.038  0.00  0.00    +0.000 C 
ENDBRANCH  33  34
ENDBRANCH  11  33
TORSDOF 7
ENDMDL
