MODEL 1
REMARK VINA RESULT:      -8.8      0.000      0.000
REMARK  Name = 
REMARK  5 active torsions:
REMARK  status: ('A' for Active; 'I' for Inactive)
REMARK    1  A    between atoms: C_1  and  C_2
REMARK    2  A    between atoms: C_2  and  C_3
REMARK    3  A    between atoms: C_3  and  O_4
REMARK    4  A    between atoms: C_8  and  C_9
REMARK    5  A    between atoms: N_14  and  C_15
REMARK                            x       y       z     vdW  Elec       q    Type
REMARK                         _______ _______ _______ _____ _____    ______ ____
ROOT
ATOM      1  C   UNL     1       0.654  10.673  19.400  0.00  0.00    +0.000 C 
ATOM      2  C   UNL     1       1.436   9.419  19.034  0.00  0.00    +0.000 A 
ATOM      3  C   UNL     1       2.064   9.264  17.784  0.00  0.00    +0.000 A 
ATOM      4  C   UNL     1       2.639   8.042  17.415  0.00  0.00    +0.000 A 
ATOM      5  C   UNL     1       2.609   6.958  18.297  0.00  0.00    +0.000 A 
ATOM      6  C   UNL     1       2.103   7.140  19.582  0.00  0.00    +0.000 A 
ATOM      7  C   UNL     1       1.493   8.350  19.933  0.00  0.00    +0.000 A 
ATOM      8  O   UNL     1       0.952   8.371  21.192  0.00  0.00    +0.000 OA
ATOM      9  C   UNL     1       0.225   9.465  21.580  0.00  0.00    +0.000 A 
ATOM     10  C   UNL     1      -0.294   9.407  22.878  0.00  0.00    +0.000 A 
ATOM     11  C   UNL     1      -1.035  10.474  23.387  0.00  0.00    +0.000 A 
ATOM     12  C   UNL     1      -1.281  11.579  22.580  0.00  0.00    +0.000 A 
ATOM     13 CL   UNL     1      -2.170  12.913  23.205  0.00  0.00    +0.000 Cl
ATOM     14  C   UNL     1      -0.791  11.627  21.277  0.00  0.00    +0.000 A 
ATOM     15  C   UNL     1       0.007  10.581  20.768  0.00  0.00    +0.000 A 
ENDROOT
BRANCH   5  16
ATOM     16  C   UNL     1       3.154   5.643  17.858  0.00  0.00    +0.000 C 
ATOM     17  O   UNL     1       2.411   4.666  17.928  0.00  0.00    +0.000 OA
ATOM     18  N   UNL     1       4.471   5.562  17.380  0.00  0.00    +0.000 N 
ATOM     19  C   UNL     1       4.908   4.240  16.916  0.00  0.00    +0.000 C 
ATOM     20  C   UNL     1       6.182   4.292  16.047  0.00  0.00    +0.000 C 
ATOM     21  N   UNL     1       7.293   5.093  16.602  0.00  0.00    +0.000 NA
ATOM     22  C   UNL     1       7.927   4.426  17.740  0.00  0.00    +0.000 C 
ATOM     23  C   UNL     1       6.783   6.427  16.972  0.00  0.00    +0.000 C 
ATOM     24  C   UNL     1       5.558   6.403  17.905  0.00  0.00    +0.000 C 
ENDBRANCH   5  16
BRANCH   1  26
ATOM     25  C   UNL     1       0.884  13.046  18.357  0.00  0.00    +0.000 C 
ATOM     26  C   UNL     1       1.486  11.977  19.262  0.00  0.00    +0.000 C 
ENDBRANCH   1  26
BRANCH   1  27
ATOM     27  O   UNL     1      -0.440  10.810  18.472  0.00  0.00    +0.000 OA
ATOM     28  H   UNL     1      -0.982  10.006  18.513  0.00  0.00    +0.000 HD
ENDBRANCH   1  27
TORSDOF 3
ENDMDL
MODEL 2
REMARK VINA RESULT:      -8.6      2.078      2.965
REMARK  Name = 
REMARK  5 active torsions:
REMARK  status: ('A' for Active; 'I' for Inactive)
REMARK    1  A    between atoms: C_1  and  C_2
REMARK    2  A    between atoms: C_2  and  C_3
REMARK    3  A    between atoms: C_3  and  O_4
REMARK    4  A    between atoms: C_8  and  C_9
REMARK    5  A    between atoms: N_14  and  C_15
REMARK                            x       y       z     vdW  Elec       q    Type
REMARK                         _______ _______ _______ _____ _____    ______ ____
ROOT
ATOM      1  C   UNL     1      -0.059  10.948  19.206  0.00  0.00    +0.000 C 
ATOM      2  C   UNL     1       0.939   9.804  19.090  0.00  0.00    +0.000 A 
ATOM      3  C   UNL     1       1.582   9.488  17.879  0.00  0.00    +0.000 A 
ATOM      4  C   UNL     1       2.371   8.337  17.761  0.00  0.00    +0.000 A 
ATOM      5  C   UNL     1       2.542   7.490  18.859  0.00  0.00    +0.000 A 
ATOM      6  C   UNL     1       2.015   7.861  20.094  0.00  0.00    +0.000 A 
ATOM      7  C   UNL     1       1.194   8.990  20.198  0.00  0.00    +0.000 A 
ATOM      8  O   UNL     1       0.662   9.195  21.444  0.00  0.00    +0.000 OA
ATOM      9  C   UNL     1      -0.253  10.201  21.614  0.00  0.00    +0.000 A 
ATOM     10  C   UNL     1      -0.749  10.342  22.915  0.00  0.00    +0.000 A 
ATOM     11  C   UNL     1      -1.672  11.345  23.210  0.00  0.00    +0.000 A 
ATOM     12  C   UNL     1      -2.119  12.180  22.192  0.00  0.00    +0.000 A 
ATOM     13 CL   UNL     1      -3.236  13.440  22.548  0.00  0.00    +0.000 Cl
ATOM     14  C   UNL     1      -1.649  12.023  20.889  0.00  0.00    +0.000 A 
ATOM     15  C   UNL     1      -0.674  11.050  20.588  0.00  0.00    +0.000 A 
ENDROOT
BRANCH   5  16
ATOM     16  C   UNL     1       3.318   6.229  18.696  0.00  0.00    +0.000 C 
ATOM     17  O   UNL     1       4.356   6.281  18.039  0.00  0.00    +0.000 OA
ATOM     18  N   UNL     1       2.856   5.047  19.294  0.00  0.00    +0.000 N 
ATOM     19  C   UNL     1       3.712   3.865  19.130  0.00  0.00    +0.000 C 
ATOM     20  C   UNL     1       3.375   2.730  20.120  0.00  0.00    +0.000 C 
ATOM     21  N   UNL     1       1.942   2.383  20.218  0.00  0.00    +0.000 NA
ATOM     22  C   UNL     1       1.473   1.673  19.027  0.00  0.00    +0.000 C 
ATOM     23  C   UNL     1       1.166   3.614  20.455  0.00  0.00    +0.000 C 
ATOM     24  C   UNL     1       1.425   4.736  19.432  0.00  0.00    +0.000 C 
ENDBRANCH   5  16
BRANCH   1  26
ATOM     25  C   UNL     1       1.744  12.798  19.517  0.00  0.00    +0.000 C 
ATOM     26  C   UNL     1       0.520  12.315  18.750  0.00  0.00    +0.000 C 
ENDBRANCH   1  26
BRANCH   1  27
ATOM     27  O   UNL     1      -1.161  10.677  18.319  0.00  0.00    +0.000 OA
ATOM     28  H   UNL     1      -1.171  11.356  17.624  0.00  0.00    +0.000 HD
ENDBRANCH   1  27
TORSDOF 3
ENDMDL
MODEL 3
REMARK VINA RESULT:      -8.4      1.083      1.203
REMARK  Name = 
REMARK  5 active torsions:
REMARK  status: ('A' for Active; 'I' for Inactive)
REMARK    1  A    between atoms: C_1  and  C_2
REMARK    2  A    between atoms: C_2  and  C_3
REMARK    3  A    between atoms: C_3  and  O_4
REMARK    4  A    between atoms: C_8  and  C_9
REMARK    5  A    between atoms: N_14  and  C_15
REMARK                            x       y       z     vdW  Elec       q    Type
REMARK                         _______ _______ _______ _____ _____    ______ ____
ROOT
ATOM      1  C   UNL     1      -0.038  10.891  19.212  0.00  0.00    +0.000 C 
ATOM      2  C   UNL     1       0.880   9.677  19.187  0.00  0.00    +0.000 A 
ATOM      3  C   UNL     1       1.530   9.252  18.014  0.00  0.00    +0.000 A 
ATOM      4  C   UNL     1       2.239   8.044  17.982  0.00  0.00    +0.000 A 
ATOM      5  C   UNL     1       2.321   7.248  19.128  0.00  0.00    +0.000 A 
ATOM      6  C   UNL     1       1.788   7.723  20.325  0.00  0.00    +0.000 A 
ATOM      7  C   UNL     1       1.047   8.910  20.344  0.00  0.00    +0.000 A 
ATOM      8  O   UNL     1       0.497   9.218  21.561  0.00  0.00    +0.000 OA
ATOM      9  C   UNL     1      -0.348  10.293  21.649  0.00  0.00    +0.000 A 
ATOM     10  C   UNL     1      -0.868  10.539  22.925  0.00  0.00    +0.000 A 
ATOM     11  C   UNL     1      -1.725  11.619  23.138  0.00  0.00    +0.000 A 
ATOM     12  C   UNL     1      -2.085  12.425  22.064  0.00  0.00    +0.000 A 
ATOM     13 CL   UNL     1      -3.119  13.777  22.319  0.00  0.00    +0.000 Cl
ATOM     14  C   UNL     1      -1.593  12.165  20.787  0.00  0.00    +0.000 A 
ATOM     15  C   UNL     1      -0.681  11.112  20.567  0.00  0.00    +0.000 A 
ENDROOT
BRANCH   5  16
ATOM     16  C   UNL     1       3.011   5.931  19.055  0.00  0.00    +0.000 C 
ATOM     17  O   UNL     1       2.799   5.127  19.961  0.00  0.00    +0.000 OA
ATOM     18  N   UNL     1       3.857   5.648  17.972  0.00  0.00    +0.000 N 
ATOM     19  C   UNL     1       4.450   4.305  17.951  0.00  0.00    +0.000 C 
ATOM     20  C   UNL     1       5.025   3.917  16.572  0.00  0.00    +0.000 C 
ATOM     21  N   UNL     1       5.896   4.932  15.943  0.00  0.00    +0.000 NA
ATOM     22  C   UNL     1       7.193   5.025  16.614  0.00  0.00    +0.000 C 
ATOM     23  C   UNL     1       5.195   6.229  15.939  0.00  0.00    +0.000 C 
ATOM     24  C   UNL     1       4.680   6.678  17.320  0.00  0.00    +0.000 C 
ENDBRANCH   5  16
BRANCH   1  26
ATOM     25  C   UNL     1       1.858  12.650  19.504  0.00  0.00    +0.000 C 
ATOM     26  C   UNL     1       0.647  12.189  18.702  0.00  0.00    +0.000 C 
ENDBRANCH   1  26
BRANCH   1  27
ATOM     27  O   UNL     1      -1.132  10.649  18.307  0.00  0.00    +0.000 OA
ATOM     28  H   UNL     1      -1.850  10.219  18.799  0.00  0.00    +0.000 HD
ENDBRANCH   1  27
TORSDOF 3
ENDMDL
MODEL 4
REMARK VINA RESULT:      -8.1      1.217      2.850
REMARK  Name = 
REMARK  5 active torsions:
REMARK  status: ('A' for Active; 'I' for Inactive)
REMARK    1  A    between atoms: C_1  and  C_2
REMARK    2  A    between atoms: C_2  and  C_3
REMARK    3  A    between atoms: C_3  and  O_4
REMARK    4  A    between atoms: C_8  and  C_9
REMARK    5  A    between atoms: N_14  and  C_15
REMARK                            x       y       z     vdW  Elec       q    Type
REMARK                         _______ _______ _______ _____ _____    ______ ____
ROOT
ATOM      1  C   UNL     1       0.972   9.460  21.238  0.00  0.00    +0.000 C 
ATOM      2  C   UNL     1       1.395   8.326  20.316  0.00  0.00    +0.000 A 
ATOM      3  C   UNL     1       1.539   7.002  20.770  0.00  0.00    +0.000 A 
ATOM      4  C   UNL     1       2.081   6.012  19.942  0.00  0.00    +0.000 A 
ATOM      5  C   UNL     1       2.476   6.326  18.639  0.00  0.00    +0.000 A 
ATOM      6  C   UNL     1       2.219   7.601  18.140  0.00  0.00    +0.000 A 
ATOM      7  C   UNL     1       1.714   8.599  18.982  0.00  0.00    +0.000 A 
ATOM      8  O   UNL     1       1.596   9.833  18.397  0.00  0.00    +0.000 OA
ATOM      9  C   UNL     1       1.230  10.899  19.175  0.00  0.00    +0.000 A 
ATOM     10  C   UNL     1       1.134  12.122  18.503  0.00  0.00    +0.000 A 
ATOM     11  C   UNL     1       0.751  13.274  19.190  0.00  0.00    +0.000 A 
ATOM     12  C   UNL     1       0.500  13.201  20.556  0.00  0.00    +0.000 A 
ATOM     13 CL   UNL     1      -0.000  14.608  21.410  0.00  0.00    +0.000 Cl
ATOM     14  C   UNL     1       0.624  11.990  21.234  0.00  0.00    +0.000 A 
ATOM     15  C   UNL     1       0.955  10.807  20.542  0.00  0.00    +0.000 A 
ENDROOT
BRANCH   5  16
ATOM     16  C   UNL     1       3.123   5.281  17.798  0.00  0.00    +0.000 C 
ATOM     17  O   UNL     1       2.442   4.312  17.470  0.00  0.00    +0.000 OA
ATOM     18  N   UNL     1       4.461   5.436  17.406  0.00  0.00    +0.000 N 
ATOM     19  C   UNL     1       5.002   4.388  16.532  0.00  0.00    +0.000 C 
ATOM     20  C   UNL     1       6.306   4.805  15.819  0.00  0.00    +0.000 C 
ATOM     21  N   UNL     1       7.338   5.404  16.691  0.00  0.00    +0.000 NA
ATOM     22  C   UNL     1       7.965   4.404  17.555  0.00  0.00    +0.000 C 
ATOM     23  C   UNL     1       6.728   6.493  17.476  0.00  0.00    +0.000 C 
ATOM     24  C   UNL     1       5.469   6.082  18.262  0.00  0.00    +0.000 C 
ENDBRANCH   5  16
BRANCH   1  26
ATOM     25  C   UNL     1      -0.385   9.487  23.458  0.00  0.00    +0.000 C 
ATOM     26  C   UNL     1      -0.375   9.191  21.964  0.00  0.00    +0.000 C 
ENDBRANCH   1  26
BRANCH   1  27
ATOM     27  O   UNL     1       1.956   9.585  22.283  0.00  0.00    +0.000 OA
ATOM     28  H   UNL     1       1.979   8.755  22.786  0.00  0.00    +0.000 HD
ENDBRANCH   1  27
TORSDOF 3
ENDMDL
MODEL 5
REMARK VINA RESULT:      -7.8      4.133      8.541
REMARK  Name = 
REMARK  5 active torsions:
REMARK  status: ('A' for Active; 'I' for Inactive)
REMARK    1  A    between atoms: C_1  and  C_2
REMARK    2  A    between atoms: C_2  and  C_3
REMARK    3  A    between atoms: C_3  and  O_4
REMARK    4  A    between atoms: C_8  and  C_9
REMARK    5  A    between atoms: N_14  and  C_15
REMARK                            x       y       z     vdW  Elec       q    Type
REMARK                         _______ _______ _______ _____ _____    ______ ____
ROOT
ATOM      1  C   UNL     1       3.167   4.615  18.580  0.00  0.00    +0.000 C 
ATOM      2  C   UNL     1       2.580   5.757  19.399  0.00  0.00    +0.000 A 
ATOM      3  C   UNL     1       1.767   5.532  20.524  0.00  0.00    +0.000 A 
ATOM      4  C   UNL     1       1.112   6.593  21.162  0.00  0.00    +0.000 A 
ATOM      5  C   UNL     1       1.272   7.900  20.692  0.00  0.00    +0.000 A 
ATOM      6  C   UNL     1       2.175   8.145  19.659  0.00  0.00    +0.000 A 
ATOM      7  C   UNL     1       2.796   7.079  18.999  0.00  0.00    +0.000 A 
ATOM      8  O   UNL     1       3.586   7.446  17.941  0.00  0.00    +0.000 OA
ATOM      9  C   UNL     1       4.135   6.466  17.156  0.00  0.00    +0.000 A 
ATOM     10  C   UNL     1       4.926   6.925  16.097  0.00  0.00    +0.000 A 
ATOM     11  C   UNL     1       5.552   6.017  15.243  0.00  0.00    +0.000 A 
ATOM     12  C   UNL     1       5.352   4.654  15.434  0.00  0.00    +0.000 A 
ATOM     13 CL   UNL     1       6.141   3.522  14.405  0.00  0.00    +0.000 Cl
ATOM     14  C   UNL     1       4.541   4.195  16.470  0.00  0.00    +0.000 A 
ATOM     15  C   UNL     1       3.948   5.099  17.375  0.00  0.00    +0.000 A 
ENDROOT
BRANCH   5  16
ATOM     16  C   UNL     1       0.508   9.006  21.331  0.00  0.00    +0.000 C 
ATOM     17  O   UNL     1       0.333   8.949  22.547  0.00  0.00    +0.000 OA
ATOM     18  N   UNL     1       0.027  10.064  20.544  0.00  0.00    +0.000 N 
ATOM     19  C   UNL     1      -0.666  11.139  21.264  0.00  0.00    +0.000 C 
ATOM     20  C   UNL     1      -0.807  12.432  20.433  0.00  0.00    +0.000 C 
ATOM     21  N   UNL     1      -1.321  12.247  19.060  0.00  0.00    +0.000 NA
ATOM     22  C   UNL     1      -2.747  11.920  19.053  0.00  0.00    +0.000 C 
ATOM     23  C   UNL     1      -0.523  11.205  18.387  0.00  0.00    +0.000 C 
ATOM     24  C   UNL     1      -0.432   9.876  19.159  0.00  0.00    +0.000 C 
ENDBRANCH   5  16
BRANCH   1  26
ATOM     25  C   UNL     1       3.499   2.186  19.452  0.00  0.00    +0.000 C 
ATOM     26  C   UNL     1       4.008   3.621  19.428  0.00  0.00    +0.000 C 
ENDBRANCH   1  26
BRANCH   1  27
ATOM     27  O   UNL     1       2.079   3.840  18.041  0.00  0.00    +0.000 OA
ATOM     28  H   UNL     1       1.320   4.429  17.902  0.00  0.00    +0.000 HD
ENDBRANCH   1  27
TORSDOF 3
ENDMDL
MODEL 6
REMARK VINA RESULT:      -7.3      4.325      8.112
REMARK  Name = 
REMARK  5 active torsions:
REMARK  status: ('A' for Active; 'I' for Inactive)
REMARK    1  A    between atoms: C_1  and  C_2
REMARK    2  A    between atoms: C_2  and  C_3
REMARK    3  A    between atoms: C_3  and  O_4
REMARK    4  A    between atoms: C_8  and  C_9
REMARK    5  A    between atoms: N_14  and  C_15
REMARK                            x       y       z     vdW  Elec       q    Type
REMARK                         _______ _______ _______ _____ _____    ______ ____
ROOT
ATOM      1  C   UNL     1       3.945   5.413  18.436  0.00  0.00    +0.000 C 
ATOM      2  C   UNL     1       3.037   6.617  18.640  0.00  0.00    +0.000 A 
ATOM      3  C   UNL     1       3.100   7.754  17.813  0.00  0.00    +0.000 A 
ATOM      4  C   UNL     1       2.368   8.908  18.118  0.00  0.00    +0.000 A 
ATOM      5  C   UNL     1       1.548   8.939  19.250  0.00  0.00    +0.000 A 
ATOM      6  C   UNL     1       1.381   7.777  20.001  0.00  0.00    +0.000 A 
ATOM      7  C   UNL     1       2.145   6.639  19.716  0.00  0.00    +0.000 A 
ATOM      8  O   UNL     1       1.958   5.596  20.585  0.00  0.00    +0.000 OA
ATOM      9  C   UNL     1       2.752   4.486  20.463  0.00  0.00    +0.000 A 
ATOM     10  C   UNL     1       2.498   3.467  21.389  0.00  0.00    +0.000 A 
ATOM     11  C   UNL     1       3.233   2.282  21.348  0.00  0.00    +0.000 A 
ATOM     12  C   UNL     1       4.242   2.138  20.402  0.00  0.00    +0.000 A 
ATOM     13 CL   UNL     1       5.136   0.670  20.323  0.00  0.00    +0.000 Cl
ATOM     14  C   UNL     1       4.516   3.162  19.498  0.00  0.00    +0.000 A 
ATOM     15  C   UNL     1       3.744   4.343  19.490  0.00  0.00    +0.000 A 
ENDROOT
BRANCH   5  16
ATOM     16  C   UNL     1       0.838  10.199  19.604  0.00  0.00    +0.000 C 
ATOM     17  O   UNL     1       1.224  10.809  20.599  0.00  0.00    +0.000 OA
ATOM     18  N   UNL     1      -0.223  10.647  18.802  0.00  0.00    +0.000 N 
ATOM     19  C   UNL     1      -0.829  11.927  19.192  0.00  0.00    +0.000 C 
ATOM     20  C   UNL     1      -1.689  12.556  18.075  0.00  0.00    +0.000 C 
ATOM     21  N   UNL     1      -2.657  11.642  17.434  0.00  0.00    +0.000 NA
ATOM     22  C   UNL     1      -3.781  11.335  18.319  0.00  0.00    +0.000 C 
ATOM     23  C   UNL     1      -1.952  10.418  17.009  0.00  0.00    +0.000 C 
ATOM     24  C   UNL     1      -1.150   9.726  18.126  0.00  0.00    +0.000 C 
ENDBRANCH   5  16
BRANCH   1  26
ATOM     25  C   UNL     1       5.131   4.895  16.178  0.00  0.00    +0.000 C 
ATOM     26  C   UNL     1       3.854   4.811  17.006  0.00  0.00    +0.000 C 
ENDBRANCH   1  26
BRANCH   1  27
ATOM     27  O   UNL     1       5.311   5.845  18.589  0.00  0.00    +0.000 OA
ATOM     28  H   UNL     1       5.778   5.200  19.144  0.00  0.00    +0.000 HD
ENDBRANCH   1  27
TORSDOF 3
ENDMDL
MODEL 7
REMARK VINA RESULT:      -7.2      5.424      9.975
REMARK  Name = 
REMARK  5 active torsions:
REMARK  status: ('A' for Active; 'I' for Inactive)
REMARK    1  A    between atoms: C_1  and  C_2
REMARK    2  A    between atoms: C_2  and  C_3
REMARK    3  A    between atoms: C_3  and  O_4
REMARK    4  A    between atoms: C_8  and  C_9
REMARK    5  A    between atoms: N_14  and  C_15
REMARK                            x       y       z     vdW  Elec       q    Type
REMARK                         _______ _______ _______ _____ _____    ______ ____
ROOT
ATOM      1  C   UNL     1      -0.200  10.884  18.754  0.00  0.00    +0.000 C 
ATOM      2  C   UNL     1      -1.030  11.581  19.823  0.00  0.00    +0.000 A 
ATOM      3  C   UNL     1      -1.822  12.709  19.541  0.00  0.00    +0.000 A 
ATOM      4  C   UNL     1      -2.447  13.424  20.570  0.00  0.00    +0.000 A 
ATOM      5  C   UNL     1      -2.302  13.014  21.898  0.00  0.00    +0.000 A 
ATOM      6  C   UNL     1      -1.626  11.827  22.173  0.00  0.00    +0.000 A 
ATOM      7  C   UNL     1      -0.969  11.137  21.147  0.00  0.00    +0.000 A 
ATOM      8  O   UNL     1      -0.262  10.039  21.562  0.00  0.00    +0.000 OA
ATOM      9  C   UNL     1       0.515   9.373  20.651  0.00  0.00    +0.000 A 
ATOM     10  C   UNL     1       1.205   8.264  21.154  0.00  0.00    +0.000 A 
ATOM     11  C   UNL     1       2.013   7.499  20.313  0.00  0.00    +0.000 A 
ATOM     12  C   UNL     1       2.152   7.868  18.979  0.00  0.00    +0.000 A 
ATOM     13 CL   UNL     1       3.122   6.916  17.925  0.00  0.00    +0.000 Cl
ATOM     14  C   UNL     1       1.489   8.989  18.483  0.00  0.00    +0.000 A 
ATOM     15  C   UNL     1       0.626   9.739  19.307  0.00  0.00    +0.000 A 
ENDROOT
BRANCH   5  16
ATOM     16  C   UNL     1      -2.907  13.831  22.987  0.00  0.00    +0.000 C 
ATOM     17  O   UNL     1      -2.159  14.247  23.869  0.00  0.00    +0.000 OA
ATOM     18  N   UNL     1      -4.283  14.103  22.968  0.00  0.00    +0.000 N 
ATOM     19  C   UNL     1      -4.785  14.961  24.047  0.00  0.00    +0.000 C 
ATOM     20  C   UNL     1      -6.184  15.546  23.756  0.00  0.00    +0.000 C 
ATOM     21  N   UNL     1      -7.192  14.570  23.293  0.00  0.00    +0.000 NA
ATOM     22  C   UNL     1      -7.632  13.689  24.375  0.00  0.00    +0.000 C 
ATOM     23  C   UNL     1      -6.634  13.804  22.164  0.00  0.00    +0.000 C 
ATOM     24  C   UNL     1      -5.274  13.143  22.455  0.00  0.00    +0.000 C 
ENDBRANCH   5  16
BRANCH   1  26
ATOM     25  C   UNL     1      -2.399   9.823  17.853  0.00  0.00    +0.000 C 
ATOM     26  C   UNL     1      -1.038  10.426  17.528  0.00  0.00    +0.000 C 
ENDBRANCH   1  26
BRANCH   1  27
ATOM     27  O   UNL     1       0.758  11.828  18.238  0.00  0.00    +0.000 OA
ATOM     28  H   UNL     1       0.394  12.723  18.338  0.00  0.00    +0.000 HD
ENDBRANCH   1  27
TORSDOF 3
ENDMDL
MODEL 8
REMARK VINA RESULT:      -6.9      7.454     10.686
REMARK  Name = 
REMARK  5 active torsions:
REMARK  status: ('A' for Active; 'I' for Inactive)
REMARK    1  A    between atoms: C_1  and  C_2
REMARK    2  A    between atoms: C_2  and  C_3
REMARK    3  A    between atoms: C_3  and  O_4
REMARK    4  A    between atoms: C_8  and  C_9
REMARK    5  A    between atoms: N_14  and  C_15
REMARK                            x       y       z     vdW  Elec       q    Type
REMARK                         _______ _______ _______ _____ _____    ______ ____
ROOT
ATOM      1  C   UNL     1      -5.618  12.328  18.246  0.00  0.00    +0.000 C 
ATOM      2  C   UNL     1      -5.432  12.839  19.668  0.00  0.00    +0.000 A 
ATOM      3  C   UNL     1      -6.459  13.495  20.371  0.00  0.00    +0.000 A 
ATOM      4  C   UNL     1      -6.212  14.094  21.612  0.00  0.00    +0.000 A 
ATOM      5  C   UNL     1      -4.936  14.034  22.179  0.00  0.00    +0.000 A 
ATOM      6  C   UNL     1      -3.948  13.279  21.551  0.00  0.00    +0.000 A 
ATOM      7  C   UNL     1      -4.187  12.715  20.291  0.00  0.00    +0.000 A 
ATOM      8  O   UNL     1      -3.106  12.078  19.739  0.00  0.00    +0.000 OA
ATOM      9  C   UNL     1      -3.205  11.605  18.457  0.00  0.00    +0.000 A 
ATOM     10  C   UNL     1      -2.058  10.969  17.967  0.00  0.00    +0.000 A 
ATOM     11  C   UNL     1      -2.049  10.431  16.680  0.00  0.00    +0.000 A 
ATOM     12  C   UNL     1      -3.177  10.564  15.878  0.00  0.00    +0.000 A 
ATOM     13 CL   UNL     1      -3.189   9.880  14.299  0.00  0.00    +0.000 Cl
ATOM     14  C   UNL     1      -4.310  11.222  16.353  0.00  0.00    +0.000 A 
ATOM     15  C   UNL     1      -4.354  11.721  17.671  0.00  0.00    +0.000 A 
ENDROOT
BRANCH   5  16
ATOM     16  C   UNL     1      -4.671  14.744  23.461  0.00  0.00    +0.000 C 
ATOM     17  O   UNL     1      -5.641  15.146  24.100  0.00  0.00    +0.000 OA
ATOM     18  N   UNL     1      -3.349  14.919  23.897  0.00  0.00    +0.000 N 
ATOM     19  C   UNL     1      -3.181  15.578  25.198  0.00  0.00    +0.000 C 
ATOM     20  C   UNL     1      -1.774  15.383  25.800  0.00  0.00    +0.000 C 
ATOM     21  N   UNL     1      -0.650  15.654  24.879  0.00  0.00    +0.000 NA
ATOM     22  C   UNL     1      -0.494  17.085  24.620  0.00  0.00    +0.000 C 
ATOM     23  C   UNL     1      -0.861  14.897  23.631  0.00  0.00    +0.000 C 
ATOM     24  C   UNL     1      -2.230  15.136  22.966  0.00  0.00    +0.000 C 
ENDBRANCH   5  16
BRANCH   1  26
ATOM     25  C   UNL     1      -6.793  10.134  19.005  0.00  0.00    +0.000 C 
ATOM     26  C   UNL     1      -6.821  11.356  18.096  0.00  0.00    +0.000 C 
ENDBRANCH   1  26
BRANCH   1  27
ATOM     27  O   UNL     1      -5.920  13.452  17.398  0.00  0.00    +0.000 OA
ATOM     28  H   UNL     1      -6.873  13.630  17.449  0.00  0.00    +0.000 HD
ENDBRANCH   1  27
TORSDOF 3
ENDMDL
MODEL 9
REMARK VINA RESULT:      -6.8      5.186      9.468
REMARK  Name = 
REMARK  5 active torsions:
REMARK  status: ('A' for Active; 'I' for Inactive)
REMARK    1  A    between atoms: C_1  and  C_2
REMARK    2  A    between atoms: C_2  and  C_3
REMARK    3  A    between atoms: C_3  and  O_4
REMARK    4  A    between atoms: C_8  and  C_9
REMARK    5  A    between atoms: N_14  and  C_15
REMARK                            x       y       z     vdW  Elec       q    Type
REMARK                         _______ _______ _______ _____ _____    ______ ____
ROOT
ATOM      1  C   UNL     1      -0.251  10.967  18.862  0.00  0.00    +0.000 C 
ATOM      2  C   UNL     1      -1.008  11.536  20.054  0.00  0.00    +0.000 A 
ATOM      3  C   UNL     1      -1.847  12.660  19.944  0.00  0.00    +0.000 A 
ATOM      4  C   UNL     1      -2.403  13.257  21.082  0.00  0.00    +0.000 A 
ATOM      5  C   UNL     1      -2.140  12.731  22.349  0.00  0.00    +0.000 A 
ATOM      6  C   UNL     1      -1.416  11.545  22.456  0.00  0.00    +0.000 A 
ATOM      7  C   UNL     1      -0.828  10.974  21.321  0.00  0.00    +0.000 A 
ATOM      8  O   UNL     1      -0.064   9.865  21.573  0.00  0.00    +0.000 OA
ATOM      9  C   UNL     1       0.652   9.311  20.545  0.00  0.00    +0.000 A 
ATOM     10  C   UNL     1       1.407   8.183  20.885  0.00  0.00    +0.000 A 
ATOM     11  C   UNL     1       2.162   7.524  19.914  0.00  0.00    +0.000 A 
ATOM     12  C   UNL     1       2.183   8.019  18.615  0.00  0.00    +0.000 A 
ATOM     13 CL   UNL     1       3.087   7.199  17.402  0.00  0.00    +0.000 Cl
ATOM     14  C   UNL     1       1.455   9.159  18.280  0.00  0.00    +0.000 A 
ATOM     15  C   UNL     1       0.644   9.803  19.237  0.00  0.00    +0.000 A 
ENDROOT
BRANCH   5  16
ATOM     16  C   UNL     1      -2.674  13.424  23.554  0.00  0.00    +0.000 C 
ATOM     17  O   UNL     1      -3.723  13.000  24.037  0.00  0.00    +0.000 OA
ATOM     18  N   UNL     1      -1.974  14.512  24.098  0.00  0.00    +0.000 N 
ATOM     19  C   UNL     1      -2.541  15.099  25.317  0.00  0.00    +0.000 C 
ATOM     20  C   UNL     1      -1.543  15.997  26.079  0.00  0.00    +0.000 C 
ATOM     21  N   UNL     1      -0.829  16.991  25.251  0.00  0.00    +0.000 NA
ATOM     22  C   UNL     1      -1.709  18.083  24.834  0.00  0.00    +0.000 C 
ATOM     23  C   UNL     1      -0.230  16.305  24.091  0.00  0.00    +0.000 C 
ATOM     24  C   UNL     1      -1.222  15.465  23.266  0.00  0.00    +0.000 C 
ENDBRANCH   5  16
BRANCH   1  26
ATOM     25  C   UNL     1      -2.387   9.743  18.017  0.00  0.00    +0.000 C 
ATOM     26  C   UNL     1      -1.175  10.598  17.668  0.00  0.00    +0.000 C 
ENDBRANCH   1  26
BRANCH   1  27
ATOM     27  O   UNL     1       0.638  11.985  18.363  0.00  0.00    +0.000 OA
ATOM     28  H   UNL     1       1.237  11.580  17.714  0.00  0.00    +0.000 HD
ENDBRANCH   1  27
TORSDOF 3
ENDMDL
