MODEL 1
REMARK VINA RESULT:      -8.4      0.000      0.000
REMARK  Name = 
REMARK  5 active torsions:
REMARK  status: ('A' for Active; 'I' for Inactive)
REMARK    1  A    between atoms: C_4  and  C_5
REMARK    2  A    between atoms: C_5  and  N_6
REMARK    3  A    between atoms: C_9  and  C_10
REMARK    4  A    between atoms: C_10  and  O_11
REMARK    5  A    between atoms: O_11  and  C_12
REMARK                            x       y       z     vdW  Elec       q    Type
REMARK                         _______ _______ _______ _____ _____    ______ ____
ROOT
ATOM      1  N   UNL     1       4.768   5.310  17.787  0.00  0.00    +0.000 NA
ATOM      2  C   UNL     1       5.444   5.690  16.522  0.00  0.00    +0.000 C 
ATOM      3  C   UNL     1       6.947   5.383  16.574  0.00  0.00    +0.000 C 
ATOM      4  C   UNL     1       7.617   6.135  17.736  0.00  0.00    +0.000 C 
ATOM      5  C   UNL     1       6.926   5.668  19.031  0.00  0.00    +0.000 C 
ATOM      6  C   UNL     1       5.408   5.929  18.977  0.00  0.00    +0.000 C 
ENDROOT
BRANCH   1   7
ATOM      7  C   UNL     1       3.344   5.726  17.747  0.00  0.00    +0.000 C 
BRANCH   7  11
ATOM      8  C   UNL     1       0.779   2.971  19.867  0.00  0.00    +0.000 A 
ATOM      9  C   UNL     1       1.209   4.143  20.488  0.00  0.00    +0.000 A 
ATOM     10  C   UNL     1       2.042   5.037  19.806  0.00  0.00    +0.000 A 
ATOM     11  C   UNL     1       2.444   4.760  18.488  0.00  0.00    +0.000 A 
ATOM     12  C   UNL     1       2.001   3.578  17.867  0.00  0.00    +0.000 A 
ATOM     13  C   UNL     1       1.175   2.686  18.557  0.00  0.00    +0.000 A 
ENDBRANCH   7  11
ENDBRANCH   1   7
BRANCH   4  14
ATOM     14  C   UNL     1       7.615   7.678  17.499  0.00  0.00    +0.000 C 
BRANCH  14  15
ATOM     15  O   UNL     1       8.329   8.334  18.485  0.00  0.00    +0.000 OA
BRANCH  15  16
ATOM     16  C   UNL     1       8.711   9.639  18.522  0.00  0.00    +0.000 A 
ATOM     17  C   UNL     1       8.037  10.536  17.690  0.00  0.00    +0.000 A 
ATOM     18  C   UNL     1       8.405  11.878  17.659  0.00  0.00    +0.000 A 
ATOM     19  C   UNL     1       9.438  12.333  18.479  0.00  0.00    +0.000 A 
ATOM     20  C   UNL     1       9.832  13.680  18.452  0.00  0.00    +0.000 A 
ATOM     21  C   UNL     1      10.853  14.126  19.293  0.00  0.00    +0.000 A 
ATOM     22  C   UNL     1      11.478  13.235  20.171  0.00  0.00    +0.000 A 
ATOM     23  C   UNL     1      11.098  11.885  20.199  0.00  0.00    +0.000 A 
ATOM     24  C   UNL     1      10.081  11.419  19.344  0.00  0.00    +0.000 A 
ATOM     25  N   UNL     1       9.709  10.101  19.343  0.00  0.00    +0.000 NA
ENDBRANCH  15  16
ENDBRANCH  14  15
ENDBRANCH   4  14
TORSDOF 5
ENDMDL
MODEL 2
REMARK VINA RESULT:      -8.3      0.337      1.022
REMARK  Name = 
REMARK  5 active torsions:
REMARK  status: ('A' for Active; 'I' for Inactive)
REMARK    1  A    between atoms: C_4  and  C_5
REMARK    2  A    between atoms: C_5  and  N_6
REMARK    3  A    between atoms: C_9  and  C_10
REMARK    4  A    between atoms: C_10  and  O_11
REMARK    5  A    between atoms: O_11  and  C_12
REMARK                            x       y       z     vdW  Elec       q    Type
REMARK                         _______ _______ _______ _____ _____    ______ ____
ROOT
ATOM      1  N   UNL     1       4.822   4.986  17.817  0.00  0.00    +0.000 NA
ATOM      2  C   UNL     1       5.596   5.283  16.586  0.00  0.00    +0.000 C 
ATOM      3  C   UNL     1       7.088   4.977  16.774  0.00  0.00    +0.000 C 
ATOM      4  C   UNL     1       7.672   5.800  17.935  0.00  0.00    +0.000 C 
ATOM      5  C   UNL     1       6.880   5.416  19.199  0.00  0.00    +0.000 C 
ATOM      6  C   UNL     1       5.373   5.677  19.012  0.00  0.00    +0.000 C 
ENDROOT
BRANCH   1   7
ATOM      7  C   UNL     1       3.408   5.401  17.641  0.00  0.00    +0.000 C 
BRANCH   7  11
ATOM      8  C   UNL     1       0.688   2.985  19.970  0.00  0.00    +0.000 A 
ATOM      9  C   UNL     1       1.150   2.525  18.737  0.00  0.00    +0.000 A 
ATOM     10  C   UNL     1       2.029   3.305  17.979  0.00  0.00    +0.000 A 
ATOM     11  C   UNL     1       2.456   4.555  18.459  0.00  0.00    +0.000 A 
ATOM     12  C   UNL     1       1.989   5.009  19.706  0.00  0.00    +0.000 A 
ATOM     13  C   UNL     1       1.106   4.228  20.455  0.00  0.00    +0.000 A 
ENDBRANCH   7  11
ENDBRANCH   1   7
BRANCH   4  14
ATOM     14  C   UNL     1       7.699   7.324  17.603  0.00  0.00    +0.000 C 
BRANCH  14  15
ATOM     15  O   UNL     1       8.449   8.023  18.531  0.00  0.00    +0.000 OA
BRANCH  15  16
ATOM     16  C   UNL     1       8.726   9.355  18.561  0.00  0.00    +0.000 A 
ATOM     17  C   UNL     1       8.089  10.170  17.623  0.00  0.00    +0.000 A 
ATOM     18  C   UNL     1       8.358  11.535  17.583  0.00  0.00    +0.000 A 
ATOM     19  C   UNL     1       9.252  12.095  18.497  0.00  0.00    +0.000 A 
ATOM     20  C   UNL     1       9.545  13.467  18.462  0.00  0.00    +0.000 A 
ATOM     21  C   UNL     1      10.426  14.016  19.396  0.00  0.00    +0.000 A 
ATOM     22  C   UNL     1      11.009  13.203  20.373  0.00  0.00    +0.000 A 
ATOM     23  C   UNL     1      10.728  11.829  20.410  0.00  0.00    +0.000 A 
ATOM     24  C   UNL     1       9.855  11.260  19.464  0.00  0.00    +0.000 A 
ATOM     25  N   UNL     1       9.585   9.917  19.471  0.00  0.00    +0.000 NA
ENDBRANCH  15  16
ENDBRANCH  14  15
ENDBRANCH   4  14
TORSDOF 5
ENDMDL
MODEL 3
REMARK VINA RESULT:      -8.2      1.171      1.322
REMARK  Name = 
REMARK  5 active torsions:
REMARK  status: ('A' for Active; 'I' for Inactive)
REMARK    1  A    between atoms: C_4  and  C_5
REMARK    2  A    between atoms: C_5  and  N_6
REMARK    3  A    between atoms: C_9  and  C_10
REMARK    4  A    between atoms: C_10  and  O_11
REMARK    5  A    between atoms: O_11  and  C_12
REMARK                            x       y       z     vdW  Elec       q    Type
REMARK                         _______ _______ _______ _____ _____    ______ ____
ROOT
ATOM      1  N   UNL     1       5.228   5.341  18.558  0.00  0.00    +0.000 NA
ATOM      2  C   UNL     1       5.037   6.292  17.434  0.00  0.00    +0.000 C 
ATOM      3  C   UNL     1       6.269   6.335  16.521  0.00  0.00    +0.000 C 
ATOM      4  C   UNL     1       7.520   6.752  17.311  0.00  0.00    +0.000 C 
ATOM      5  C   UNL     1       7.713   5.708  18.427  0.00  0.00    +0.000 C 
ATOM      6  C   UNL     1       6.467   5.620  19.329  0.00  0.00    +0.000 C 
ENDROOT
BRANCH   1   7
ATOM      7  C   UNL     1       4.070   5.409  19.484  0.00  0.00    +0.000 C 
BRANCH   7  11
ATOM      8  C   UNL     1       1.169   2.303  18.716  0.00  0.00    +0.000 A 
ATOM      9  C   UNL     1       0.886   3.308  19.640  0.00  0.00    +0.000 A 
ATOM     10  C   UNL     1       1.824   4.315  19.894  0.00  0.00    +0.000 A 
ATOM     11  C   UNL     1       3.053   4.321  19.213  0.00  0.00    +0.000 A 
ATOM     12  C   UNL     1       3.328   3.306  18.278  0.00  0.00    +0.000 A 
ATOM     13  C   UNL     1       2.389   2.300  18.035  0.00  0.00    +0.000 A 
ENDBRANCH   7  11
ENDBRANCH   1   7
BRANCH   4  14
ATOM     14  C   UNL     1       7.429   8.233  17.794  0.00  0.00    +0.000 C 
BRANCH  14  15
ATOM     15  O   UNL     1       8.567   8.603  18.486  0.00  0.00    +0.000 OA
BRANCH  15  16
ATOM     16  C   UNL     1       9.003   9.857  18.785  0.00  0.00    +0.000 A 
ATOM     17  C   UNL     1       9.527  10.626  17.743  0.00  0.00    +0.000 A 
ATOM     18  C   UNL     1      10.019  11.903  17.992  0.00  0.00    +0.000 A 
ATOM     19  C   UNL     1       9.971  12.426  19.286  0.00  0.00    +0.000 A 
ATOM     20  C   UNL     1      10.475  13.707  19.559  0.00  0.00    +0.000 A 
ATOM     21  C   UNL     1      10.401  14.225  20.853  0.00  0.00    +0.000 A 
ATOM     22  C   UNL     1       9.815  13.474  21.877  0.00  0.00    +0.000 A 
ATOM     23  C   UNL     1       9.316  12.189  21.616  0.00  0.00    +0.000 A 
ATOM     24  C   UNL     1       9.400  11.648  20.318  0.00  0.00    +0.000 A 
ATOM     25  N   UNL     1       8.937  10.388  20.048  0.00  0.00    +0.000 NA
ENDBRANCH  15  16
ENDBRANCH  14  15
ENDBRANCH   4  14
TORSDOF 5
ENDMDL
MODEL 4
REMARK VINA RESULT:      -8.2      4.255      6.592
REMARK  Name = 
REMARK  5 active torsions:
REMARK  status: ('A' for Active; 'I' for Inactive)
REMARK    1  A    between atoms: C_4  and  C_5
REMARK    2  A    between atoms: C_5  and  N_6
REMARK    3  A    between atoms: C_9  and  C_10
REMARK    4  A    between atoms: C_10  and  O_11
REMARK    5  A    between atoms: O_11  and  C_12
REMARK                            x       y       z     vdW  Elec       q    Type
REMARK                         _______ _______ _______ _____ _____    ______ ____
ROOT
ATOM      1  N   UNL     1       1.931   5.055  20.243  0.00  0.00    +0.000 NA
ATOM      2  C   UNL     1       1.488   4.575  18.911  0.00  0.00    +0.000 C 
ATOM      3  C   UNL     1       0.657   3.290  19.026  0.00  0.00    +0.000 C 
ATOM      4  C   UNL     1       1.468   2.176  19.707  0.00  0.00    +0.000 C 
ATOM      5  C   UNL     1       1.856   2.693  21.105  0.00  0.00    +0.000 C 
ATOM      6  C   UNL     1       2.654   4.008  21.010  0.00  0.00    +0.000 C 
ENDROOT
BRANCH   1   7
ATOM      7  C   UNL     1       2.827   6.230  20.088  0.00  0.00    +0.000 C 
BRANCH   7  11
ATOM      8  C   UNL     1       0.633   9.856  19.258  0.00  0.00    +0.000 A 
ATOM      9  C   UNL     1       0.558   9.269  20.521  0.00  0.00    +0.000 A 
ATOM     10  C   UNL     1       1.265   8.093  20.793  0.00  0.00    +0.000 A 
ATOM     11  C   UNL     1       2.060   7.501  19.796  0.00  0.00    +0.000 A 
ATOM     12  C   UNL     1       2.134   8.104  18.527  0.00  0.00    +0.000 A 
ATOM     13  C   UNL     1       1.420   9.274  18.260  0.00  0.00    +0.000 A 
ENDBRANCH   7  11
ENDBRANCH   1   7
BRANCH   4  14
ATOM     14  C   UNL     1       2.660   1.705  18.818  0.00  0.00    +0.000 C 
BRANCH  14  15
ATOM     15  O   UNL     1       3.846   2.283  19.227  0.00  0.00    +0.000 OA
BRANCH  15  16
ATOM     16  C   UNL     1       4.539   3.295  18.638  0.00  0.00    +0.000 A 
ATOM     17  C   UNL     1       4.190   3.644  17.332  0.00  0.00    +0.000 A 
ATOM     18  C   UNL     1       4.884   4.649  16.664  0.00  0.00    +0.000 A 
ATOM     19  C   UNL     1       5.921   5.325  17.311  0.00  0.00    +0.000 A 
ATOM     20  C   UNL     1       6.641   6.331  16.649  0.00  0.00    +0.000 A 
ATOM     21  C   UNL     1       7.661   7.013  17.315  0.00  0.00    +0.000 A 
ATOM     22  C   UNL     1       7.960   6.702  18.646  0.00  0.00    +0.000 A 
ATOM     23  C   UNL     1       7.251   5.691  19.312  0.00  0.00    +0.000 A 
ATOM     24  C   UNL     1       6.232   4.984  18.646  0.00  0.00    +0.000 A 
ATOM     25  N   UNL     1       5.543   3.981  19.274  0.00  0.00    +0.000 NA
ENDBRANCH  15  16
ENDBRANCH  14  15
ENDBRANCH   4  14
TORSDOF 5
ENDMDL
MODEL 5
REMARK VINA RESULT:      -8.1      0.867      1.396
REMARK  Name = 
REMARK  5 active torsions:
REMARK  status: ('A' for Active; 'I' for Inactive)
REMARK    1  A    between atoms: C_4  and  C_5
REMARK    2  A    between atoms: C_5  and  N_6
REMARK    3  A    between atoms: C_9  and  C_10
REMARK    4  A    between atoms: C_10  and  O_11
REMARK    5  A    between atoms: O_11  and  C_12
REMARK                            x       y       z     vdW  Elec       q    Type
REMARK                         _______ _______ _______ _____ _____    ______ ____
ROOT
ATOM      1  N   UNL     1       4.785   5.809  17.685  0.00  0.00    +0.000 NA
ATOM      2  C   UNL     1       5.328   6.498  16.488  0.00  0.00    +0.000 C 
ATOM      3  C   UNL     1       6.816   6.181  16.287  0.00  0.00    +0.000 C 
ATOM      4  C   UNL     1       7.636   6.606  17.516  0.00  0.00    +0.000 C 
ATOM      5  C   UNL     1       7.077   5.825  18.720  0.00  0.00    +0.000 C 
ATOM      6  C   UNL     1       5.573   6.098  18.911  0.00  0.00    +0.000 C 
ENDROOT
BRANCH   1   7
ATOM      7  C   UNL     1       3.379   6.227  17.918  0.00  0.00    +0.000 C 
BRANCH   7  11
ATOM      8  C   UNL     1       0.999   3.067  19.651  0.00  0.00    +0.000 A 
ATOM      9  C   UNL     1       1.289   4.211  20.395  0.00  0.00    +0.000 A 
ATOM     10  C   UNL     1       2.061   5.236  19.838  0.00  0.00    +0.000 A 
ATOM     11  C   UNL     1       2.544   5.119  18.523  0.00  0.00    +0.000 A 
ATOM     12  C   UNL     1       2.243   3.965  17.778  0.00  0.00    +0.000 A 
ATOM     13  C   UNL     1       1.477   2.942  18.343  0.00  0.00    +0.000 A 
ENDBRANCH   7  11
ENDBRANCH   1   7
BRANCH   4  14
ATOM     14  C   UNL     1       7.661   8.158  17.682  0.00  0.00    +0.000 C 
BRANCH  14  15
ATOM     15  O   UNL     1       8.577   8.541  18.645  0.00  0.00    +0.000 OA
BRANCH  15  16
ATOM     16  C   UNL     1       9.074   9.784  18.889  0.00  0.00    +0.000 A 
ATOM     17  C   UNL     1       9.171  10.193  20.220  0.00  0.00    +0.000 A 
ATOM     18  C   UNL     1       9.641  11.465  20.532  0.00  0.00    +0.000 A 
ATOM     19  C   UNL     1      10.036  12.329  19.509  0.00  0.00    +0.000 A 
ATOM     20  C   UNL     1      10.499  13.621  19.803  0.00  0.00    +0.000 A 
ATOM     21  C   UNL     1      10.911  14.467  18.772  0.00  0.00    +0.000 A 
ATOM     22  C   UNL     1      10.873  14.025  17.445  0.00  0.00    +0.000 A 
ATOM     23  C   UNL     1      10.403  12.739  17.141  0.00  0.00    +0.000 A 
ATOM     24  C   UNL     1       9.968  11.882  18.170  0.00  0.00    +0.000 A 
ATOM     25  N   UNL     1       9.488  10.631  17.891  0.00  0.00    +0.000 NA
ENDBRANCH  15  16
ENDBRANCH  14  15
ENDBRANCH   4  14
TORSDOF 5
ENDMDL
MODEL 6
REMARK VINA RESULT:      -8.1      1.067      1.893
REMARK  Name = 
REMARK  5 active torsions:
REMARK  status: ('A' for Active; 'I' for Inactive)
REMARK    1  A    between atoms: C_4  and  C_5
REMARK    2  A    between atoms: C_5  and  N_6
REMARK    3  A    between atoms: C_9  and  C_10
REMARK    4  A    between atoms: C_10  and  O_11
REMARK    5  A    between atoms: O_11  and  C_12
REMARK                            x       y       z     vdW  Elec       q    Type
REMARK                         _______ _______ _______ _____ _____    ______ ____
ROOT
ATOM      1  N   UNL     1       4.701   5.579  18.234  0.00  0.00    +0.000 NA
ATOM      2  C   UNL     1       4.944   6.909  17.622  0.00  0.00    +0.000 C 
ATOM      3  C   UNL     1       6.078   6.852  16.590  0.00  0.00    +0.000 C 
ATOM      4  C   UNL     1       7.383   6.363  17.239  0.00  0.00    +0.000 C 
ATOM      5  C   UNL     1       7.102   4.959  17.808  0.00  0.00    +0.000 C 
ATOM      6  C   UNL     1       5.936   4.990  18.815  0.00  0.00    +0.000 C 
ENDROOT
BRANCH   1   7
ATOM      7  C   UNL     1       3.682   5.692  19.308  0.00  0.00    +0.000 C 
BRANCH   7  11
ATOM      8  C   UNL     1       0.763   2.513  19.128  0.00  0.00    +0.000 A 
ATOM      9  C   UNL     1       1.638   2.718  18.062  0.00  0.00    +0.000 A 
ATOM     10  C   UNL     1       2.584   3.748  18.115  0.00  0.00    +0.000 A 
ATOM     11  C   UNL     1       2.659   4.577  19.247  0.00  0.00    +0.000 A 
ATOM     12  C   UNL     1       1.776   4.360  20.321  0.00  0.00    +0.000 A 
ATOM     13  C   UNL     1       0.830   3.334  20.258  0.00  0.00    +0.000 A 
ENDBRANCH   7  11
ENDBRANCH   1   7
BRANCH   4  14
ATOM     14  C   UNL     1       7.938   7.398  18.266  0.00  0.00    +0.000 C 
BRANCH  14  15
ATOM     15  O   UNL     1       7.925   8.677  17.742  0.00  0.00    +0.000 OA
BRANCH  15  16
ATOM     16  C   UNL     1       8.504   9.802  18.244  0.00  0.00    +0.000 A 
ATOM     17  C   UNL     1       9.258   9.675  19.413  0.00  0.00    +0.000 A 
ATOM     18  C   UNL     1       9.847  10.794  19.994  0.00  0.00    +0.000 A 
ATOM     19  C   UNL     1       9.701  12.046  19.394  0.00  0.00    +0.000 A 
ATOM     20  C   UNL     1      10.276  13.188  19.972  0.00  0.00    +0.000 A 
ATOM     21  C   UNL     1      10.139  14.430  19.349  0.00  0.00    +0.000 A 
ATOM     22  C   UNL     1       9.438  14.537  18.144  0.00  0.00    +0.000 A 
ATOM     23  C   UNL     1       8.852  13.402  17.563  0.00  0.00    +0.000 A 
ATOM     24  C   UNL     1       8.968  12.147  18.189  0.00  0.00    +0.000 A 
ATOM     25  N   UNL     1       8.386  11.032  17.648  0.00  0.00    +0.000 NA
ENDBRANCH  15  16
ENDBRANCH  14  15
ENDBRANCH   4  14
TORSDOF 5
ENDMDL
MODEL 7
REMARK VINA RESULT:      -8.0      1.144      1.859
REMARK  Name = 
REMARK  5 active torsions:
REMARK  status: ('A' for Active; 'I' for Inactive)
REMARK    1  A    between atoms: C_4  and  C_5
REMARK    2  A    between atoms: C_5  and  N_6
REMARK    3  A    between atoms: C_9  and  C_10
REMARK    4  A    between atoms: C_10  and  O_11
REMARK    5  A    between atoms: O_11  and  C_12
REMARK                            x       y       z     vdW  Elec       q    Type
REMARK                         _______ _______ _______ _____ _____    ______ ____
ROOT
ATOM      1  N   UNL     1       5.198   4.641  18.099  0.00  0.00    +0.000 NA
ATOM      2  C   UNL     1       4.839   6.081  18.081  0.00  0.00    +0.000 C 
ATOM      3  C   UNL     1       5.305   6.759  16.786  0.00  0.00    +0.000 C 
ATOM      4  C   UNL     1       6.828   6.629  16.621  0.00  0.00    +0.000 C 
ATOM      5  C   UNL     1       7.149   5.123  16.586  0.00  0.00    +0.000 C 
ATOM      6  C   UNL     1       6.648   4.417  17.860  0.00  0.00    +0.000 C 
ENDROOT
BRANCH   1   7
ATOM      7  C   UNL     1       4.838   4.044  19.410  0.00  0.00    +0.000 C 
BRANCH   7  11
ATOM      8  C   UNL     1       0.658   2.979  19.635  0.00  0.00    +0.000 A 
ATOM      9  C   UNL     1       1.163   3.997  20.444  0.00  0.00    +0.000 A 
ATOM     10  C   UNL     1       2.517   4.343  20.375  0.00  0.00    +0.000 A 
ATOM     11  C   UNL     1       3.373   3.670  19.487  0.00  0.00    +0.000 A 
ATOM     12  C   UNL     1       2.853   2.649  18.671  0.00  0.00    +0.000 A 
ATOM     13  C   UNL     1       1.502   2.303  18.749  0.00  0.00    +0.000 A 
ENDBRANCH   7  11
ENDBRANCH   1   7
BRANCH   4  14
ATOM     14  C   UNL     1       7.597   7.448  17.703  0.00  0.00    +0.000 C 
BRANCH  14  15
ATOM     15  O   UNL     1       7.602   8.796  17.398  0.00  0.00    +0.000 OA
BRANCH  15  16
ATOM     16  C   UNL     1       8.296   9.797  18.007  0.00  0.00    +0.000 A 
ATOM     17  C   UNL     1       9.035   9.472  19.146  0.00  0.00    +0.000 A 
ATOM     18  C   UNL     1       9.739  10.458  19.831  0.00  0.00    +0.000 A 
ATOM     19  C   UNL     1       9.723  11.774  19.365  0.00  0.00    +0.000 A 
ATOM     20  C   UNL     1      10.415  12.784  20.050  0.00  0.00    +0.000 A 
ATOM     21  C   UNL     1      10.408  14.091  19.560  0.00  0.00    +0.000 A 
ATOM     22  C   UNL     1       9.720  14.394  18.381  0.00  0.00    +0.000 A 
ATOM     23  C   UNL     1       9.017  13.393  17.694  0.00  0.00    +0.000 A 
ATOM     24  C   UNL     1       9.003  12.074  18.187  0.00  0.00    +0.000 A 
ATOM     25  N   UNL     1       8.306  11.087  17.541  0.00  0.00    +0.000 NA
ENDBRANCH  15  16
ENDBRANCH  14  15
ENDBRANCH   4  14
TORSDOF 5
ENDMDL
MODEL 8
REMARK VINA RESULT:      -7.9      1.203      1.798
REMARK  Name = 
REMARK  5 active torsions:
REMARK  status: ('A' for Active; 'I' for Inactive)
REMARK    1  A    between atoms: C_4  and  C_5
REMARK    2  A    between atoms: C_5  and  N_6
REMARK    3  A    between atoms: C_9  and  C_10
REMARK    4  A    between atoms: C_10  and  O_11
REMARK    5  A    between atoms: O_11  and  C_12
REMARK                            x       y       z     vdW  Elec       q    Type
REMARK                         _______ _______ _______ _____ _____    ______ ____
ROOT
ATOM      1  N   UNL     1       5.354   5.621  18.182  0.00  0.00    +0.000 NA
ATOM      2  C   UNL     1       5.399   6.534  17.013  0.00  0.00    +0.000 C 
ATOM      3  C   UNL     1       6.796   6.567  16.381  0.00  0.00    +0.000 C 
ATOM      4  C   UNL     1       7.848   7.023  17.405  0.00  0.00    +0.000 C 
ATOM      5  C   UNL     1       7.807   6.016  18.569  0.00  0.00    +0.000 C 
ATOM      6  C   UNL     1       6.399   5.939  19.189  0.00  0.00    +0.000 C 
ENDROOT
BRANCH   1   7
ATOM      7  C   UNL     1       4.025   5.701  18.839  0.00  0.00    +0.000 C 
BRANCH   7  11
ATOM      8  C   UNL     1       1.804   2.011  18.509  0.00  0.00    +0.000 A 
ATOM      9  C   UNL     1       1.130   3.232  18.526  0.00  0.00    +0.000 A 
ATOM     10  C   UNL     1       1.846   4.430  18.634  0.00  0.00    +0.000 A 
ATOM     11  C   UNL     1       3.248   4.407  18.722  0.00  0.00    +0.000 A 
ATOM     12  C   UNL     1       3.920   3.171  18.700  0.00  0.00    +0.000 A 
ATOM     13  C   UNL     1       3.198   1.979  18.598  0.00  0.00    +0.000 A 
ENDBRANCH   7  11
ENDBRANCH   1   7
BRANCH   4  14
ATOM     14  C   UNL     1       7.648   8.517  17.809  0.00  0.00    +0.000 C 
BRANCH  14  15
ATOM     15  O   UNL     1       8.513   8.880  18.823  0.00  0.00    +0.000 OA
BRANCH  15  16
ATOM     16  C   UNL     1       9.178  10.056  18.985  0.00  0.00    +0.000 A 
ATOM     17  C   UNL     1       9.472  10.460  20.289  0.00  0.00    +0.000 A 
ATOM     18  C   UNL     1      10.120  11.670  20.521  0.00  0.00    +0.000 A 
ATOM     19  C   UNL     1      10.497  12.473  19.443  0.00  0.00    +0.000 A 
ATOM     20  C   UNL     1      11.139  13.702  19.658  0.00  0.00    +0.000 A 
ATOM     21  C   UNL     1      11.529  14.485  18.569  0.00  0.00    +0.000 A 
ATOM     22  C   UNL     1      11.290  14.042  17.264  0.00  0.00    +0.000 A 
ATOM     23  C   UNL     1      10.640  12.819  17.040  0.00  0.00    +0.000 A 
ATOM     24  C   UNL     1      10.227  12.028  18.129  0.00  0.00    +0.000 A 
ATOM     25  N   UNL     1       9.574  10.840  17.931  0.00  0.00    +0.000 NA
ENDBRANCH  15  16
ENDBRANCH  14  15
ENDBRANCH   4  14
TORSDOF 5
ENDMDL
MODEL 9
REMARK VINA RESULT:      -7.9      5.087      6.436
REMARK  Name = 
REMARK  5 active torsions:
REMARK  status: ('A' for Active; 'I' for Inactive)
REMARK    1  A    between atoms: C_4  and  C_5
REMARK    2  A    between atoms: C_5  and  N_6
REMARK    3  A    between atoms: C_9  and  C_10
REMARK    4  A    between atoms: C_10  and  O_11
REMARK    5  A    between atoms: O_11  and  C_12
REMARK                            x       y       z     vdW  Elec       q    Type
REMARK                         _______ _______ _______ _____ _____    ______ ____
ROOT
ATOM      1  N   UNL     1       4.823   3.593  17.692  0.00  0.00    +0.000 NA
ATOM      2  C   UNL     1       4.613   4.213  16.360  0.00  0.00    +0.000 C 
ATOM      3  C   UNL     1       5.532   5.424  16.154  0.00  0.00    +0.000 C 
ATOM      4  C   UNL     1       5.286   6.487  17.238  0.00  0.00    +0.000 C 
ATOM      5  C   UNL     1       5.572   5.818  18.595  0.00  0.00    +0.000 C 
ATOM      6  C   UNL     1       4.687   4.573  18.800  0.00  0.00    +0.000 C 
ENDROOT
BRANCH   1   7
ATOM      7  C   UNL     1       3.840   2.500  17.904  0.00  0.00    +0.000 C 
BRANCH   7  11
ATOM      8  C   UNL     1       1.263   3.258  21.287  0.00  0.00    +0.000 A 
ATOM      9  C   UNL     1       0.833   3.570  19.998  0.00  0.00    +0.000 A 
ATOM     10  C   UNL     1       1.665   3.328  18.900  0.00  0.00    +0.000 A 
ATOM     11  C   UNL     1       2.938   2.764  19.091  0.00  0.00    +0.000 A 
ATOM     12  C   UNL     1       3.362   2.447  20.394  0.00  0.00    +0.000 A 
ATOM     13  C   UNL     1       2.528   2.697  21.487  0.00  0.00    +0.000 A 
ENDBRANCH   7  11
ENDBRANCH   1   7
BRANCH   4  14
ATOM     14  C   UNL     1       3.872   7.134  17.099  0.00  0.00    +0.000 C 
BRANCH  14  15
ATOM     15  O   UNL     1       3.164   7.042  18.282  0.00  0.00    +0.000 OA
BRANCH  15  16
ATOM     16  C   UNL     1       2.286   7.937  18.811  0.00  0.00    +0.000 A 
ATOM     17  C   UNL     1       1.728   8.884  17.950  0.00  0.00    +0.000 A 
ATOM     18  C   UNL     1       0.849   9.847  18.438  0.00  0.00    +0.000 A 
ATOM     19  C   UNL     1       0.509   9.853  19.792  0.00  0.00    +0.000 A 
ATOM     20  C   UNL     1      -0.364  10.824  20.305  0.00  0.00    +0.000 A 
ATOM     21  C   UNL     1      -0.712  10.805  21.657  0.00  0.00    +0.000 A 
ATOM     22  C   UNL     1      -0.200   9.813  22.500  0.00  0.00    +0.000 A 
ATOM     23  C   UNL     1       0.680   8.843  21.998  0.00  0.00    +0.000 A 
ATOM     24  C   UNL     1       1.053   8.861  20.640  0.00  0.00    +0.000 A 
ATOM     25  N   UNL     1       1.927   7.935  20.136  0.00  0.00    +0.000 NA
ENDBRANCH  15  16
ENDBRANCH  14  15
ENDBRANCH   4  14
TORSDOF 5
ENDMDL
