MODEL 1
REMARK VINA RESULT:      -8.1      0.000      0.000
REMARK  Name = 
REMARK  4 active torsions:
REMARK  status: ('A' for Active; 'I' for Inactive)
REMARK    1  A    between atoms: C_8  and  S_9
REMARK    2  A    between atoms: S_9  and  C_10
REMARK    3  A    between atoms: C_10  and  C_11
REMARK    4  A    between atoms: N_13  and  C_14
REMARK                            x       y       z     vdW  Elec       q    Type
REMARK                         _______ _______ _______ _____ _____    ______ ____
ROOT
ATOM      1  C   UNL     1       2.325   3.673  21.592  0.00  0.00    +0.000 C 
ENDROOT
BRANCH   1   2
ATOM      2  C   UNL     1       1.719   4.749  20.703  0.00  0.00    +0.000 C 
ATOM      3  O   UNL     1       0.635   4.555  20.157  0.00  0.00    +0.000 OA
ATOM      4  N   UNL     1       2.457   5.917  20.623  0.00  0.00    +0.000 N 
ATOM      5  H   UNL     1       3.400   5.902  21.005  0.00  0.00    +0.000 HD
BRANCH   4   6
ATOM      6  C   UNL     1       2.121   7.075  19.880  0.00  0.00    +0.000 A 
ATOM      7  C   UNL     1       2.428   7.250  18.528  0.00  0.00    +0.000 A 
ATOM      8  C   UNL     1       2.116   8.451  17.884  0.00  0.00    +0.000 A 
ATOM      9  C   UNL     1       1.491   9.474  18.589  0.00  0.00    +0.000 A 
ATOM     10  F   UNL     1       1.221  10.630  17.971  0.00  0.00    +0.000 F 
ATOM     11  C   UNL     1       1.143   9.311  19.921  0.00  0.00    +0.000 A 
ATOM     12  C   UNL     1       1.450   8.109  20.551  0.00  0.00    +0.000 A 
ATOM     13  F   UNL     1       1.123   7.952  21.844  0.00  0.00    +0.000 F 
ENDBRANCH   4   6
ENDBRANCH   1   2
BRANCH   1  14
ATOM     14  S   UNL     1       3.232   2.409  20.667  0.00  0.00    +0.000 S 
BRANCH  14  22
ATOM     15  O   UNL     1       6.161   5.699  14.785  0.00  0.00    +0.000 OA
ATOM     16  C   UNL     1       6.109   4.834  15.652  0.00  0.00    +0.000 C 
ATOM     17  C   UNL     1       7.333   4.474  16.479  0.00  0.00    +0.000 C 
ATOM     18  C   UNL     1       7.477   5.435  17.655  0.00  0.00    +0.000 C 
ATOM     19  C   UNL     1       6.144   5.865  18.274  0.00  0.00    +0.000 C 
ATOM     20  N   UNL     1       5.209   4.753  18.345  0.00  0.00    +0.000 N 
ATOM     21  N   UNL     1       4.840   4.280  19.582  0.00  0.00    +0.000 NA
ATOM     22  C   UNL     1       3.930   3.370  19.404  0.00  0.00    +0.000 C 
ATOM     23  S   UNL     1       3.375   3.074  17.771  0.00  0.00    +0.000 S 
ATOM     24  C   UNL     1       4.661   4.143  17.234  0.00  0.00    +0.000 C 
ATOM     25  N   UNL     1       4.965   4.156  15.984  0.00  0.00    +0.000 NA
ENDBRANCH  14  22
ENDBRANCH   1  14
TORSDOF 4
ENDMDL
MODEL 2
REMARK VINA RESULT:      -7.9      0.943      1.361
REMARK  Name = 
REMARK  4 active torsions:
REMARK  status: ('A' for Active; 'I' for Inactive)
REMARK    1  A    between atoms: C_8  and  S_9
REMARK    2  A    between atoms: S_9  and  C_10
REMARK    3  A    between atoms: C_10  and  C_11
REMARK    4  A    between atoms: N_13  and  C_14
REMARK                            x       y       z     vdW  Elec       q    Type
REMARK                         _______ _______ _______ _____ _____    ______ ____
ROOT
ATOM      1  C   UNL     1       2.268   3.684  21.468  0.00  0.00    +0.000 C 
ENDROOT
BRANCH   1   2
ATOM      2  C   UNL     1       1.601   4.855  20.762  0.00  0.00    +0.000 C 
ATOM      3  O   UNL     1       0.535   4.690  20.173  0.00  0.00    +0.000 OA
ATOM      4  N   UNL     1       2.265   6.063  20.892  0.00  0.00    +0.000 N 
ATOM      5  H   UNL     1       3.205   6.042  21.282  0.00  0.00    +0.000 HD
BRANCH   4   6
ATOM      6  C   UNL     1       1.861   7.306  20.348  0.00  0.00    +0.000 A 
ATOM      7  C   UNL     1       1.105   8.254  21.044  0.00  0.00    +0.000 A 
ATOM      8  C   UNL     1       0.694   9.431  20.411  0.00  0.00    +0.000 A 
ATOM      9  C   UNL     1       1.043   9.664  19.086  0.00  0.00    +0.000 A 
ATOM     10  F   UNL     1       0.621  10.780  18.480  0.00  0.00    +0.000 F 
ATOM     11  C   UNL     1       1.822   8.756  18.385  0.00  0.00    +0.000 A 
ATOM     12  C   UNL     1       2.234   7.592  19.026  0.00  0.00    +0.000 A 
ATOM     13  F   UNL     1       2.981   6.707  18.346  0.00  0.00    +0.000 F 
ENDBRANCH   4   6
ENDBRANCH   1   2
BRANCH   1  14
ATOM     14  S   UNL     1       2.861   2.407  20.331  0.00  0.00    +0.000 S 
BRANCH  14  22
ATOM     15  O   UNL     1       6.410   5.764  14.841  0.00  0.00    +0.000 OA
ATOM     16  C   UNL     1       6.235   4.860  15.651  0.00  0.00    +0.000 C 
ATOM     17  C   UNL     1       7.371   4.356  16.526  0.00  0.00    +0.000 C 
ATOM     18  C   UNL     1       7.515   5.236  17.764  0.00  0.00    +0.000 C 
ATOM     19  C   UNL     1       6.183   5.739  18.327  0.00  0.00    +0.000 C 
ATOM     20  N   UNL     1       5.161   4.706  18.275  0.00  0.00    +0.000 N 
ATOM     21  N   UNL     1       4.677   4.196  19.458  0.00  0.00    +0.000 NA
ATOM     22  C   UNL     1       3.712   3.376  19.172  0.00  0.00    +0.000 C 
ATOM     23  S   UNL     1       3.242   3.217  17.494  0.00  0.00    +0.000 S 
ATOM     24  C   UNL     1       4.639   4.205  17.099  0.00  0.00    +0.000 C 
ATOM     25  N   UNL     1       5.022   4.262  15.873  0.00  0.00    +0.000 NA
ENDBRANCH  14  22
ENDBRANCH   1  14
TORSDOF 4
ENDMDL
MODEL 3
REMARK VINA RESULT:      -7.9      4.086      7.252
REMARK  Name = 
REMARK  4 active torsions:
REMARK  status: ('A' for Active; 'I' for Inactive)
REMARK    1  A    between atoms: C_8  and  S_9
REMARK    2  A    between atoms: S_9  and  C_10
REMARK    3  A    between atoms: C_10  and  C_11
REMARK    4  A    between atoms: N_13  and  C_14
REMARK                            x       y       z     vdW  Elec       q    Type
REMARK                         _______ _______ _______ _____ _____    ______ ____
ROOT
ATOM      1  C   UNL     1       7.447   6.517  17.459  0.00  0.00    +0.000 C 
ENDROOT
BRANCH   1   2
ATOM      2  C   UNL     1       7.366   5.408  16.420  0.00  0.00    +0.000 C 
ATOM      3  O   UNL     1       7.906   4.324  16.635  0.00  0.00    +0.000 OA
ATOM      4  N   UNL     1       6.619   5.720  15.297  0.00  0.00    +0.000 N 
ATOM      5  H   UNL     1       6.343   6.692  15.174  0.00  0.00    +0.000 HD
BRANCH   4   6
ATOM      6  C   UNL     1       6.373   4.874  14.189  0.00  0.00    +0.000 A 
ATOM      7  C   UNL     1       5.235   4.072  14.058  0.00  0.00    +0.000 A 
ATOM      8  C   UNL     1       5.099   3.215  12.961  0.00  0.00    +0.000 A 
ATOM      9  C   UNL     1       6.096   3.165  11.993  0.00  0.00    +0.000 A 
ATOM     10  F   UNL     1       5.970   2.321  10.961  0.00  0.00    +0.000 F 
ATOM     11  C   UNL     1       7.217   3.977  12.082  0.00  0.00    +0.000 A 
ATOM     12  C   UNL     1       7.339   4.832  13.173  0.00  0.00    +0.000 A 
ATOM     13  F   UNL     1       8.428   5.612  13.266  0.00  0.00    +0.000 F 
ENDBRANCH   4   6
ENDBRANCH   1   2
BRANCH   1  14
ATOM     14  S   UNL     1       7.390   5.907  19.162  0.00  0.00    +0.000 S 
BRANCH  14  22
ATOM     15  O   UNL     1       0.466   3.455  19.395  0.00  0.00    +0.000 OA
ATOM     16  C   UNL     1       1.448   4.030  19.852  0.00  0.00    +0.000 C 
ATOM     17  C   UNL     1       1.960   3.724  21.251  0.00  0.00    +0.000 C 
ATOM     18  C   UNL     1       2.873   2.502  21.224  0.00  0.00    +0.000 C 
ATOM     19  C   UNL     1       3.749   2.408  19.972  0.00  0.00    +0.000 C 
ATOM     20  N   UNL     1       4.258   3.714  19.581  0.00  0.00    +0.000 N 
ATOM     21  N   UNL     1       5.610   3.948  19.668  0.00  0.00    +0.000 NA
ATOM     22  C   UNL     1       5.842   5.126  19.174  0.00  0.00    +0.000 C 
ATOM     23  S   UNL     1       4.495   6.005  18.484  0.00  0.00    +0.000 S 
ATOM     24  C   UNL     1       3.456   4.739  19.119  0.00  0.00    +0.000 C 
ATOM     25  N   UNL     1       2.188   4.947  19.152  0.00  0.00    +0.000 NA
ENDBRANCH  14  22
ENDBRANCH   1  14
TORSDOF 4
ENDMDL
MODEL 4
REMARK VINA RESULT:      -7.9      3.693      6.872
REMARK  Name = 
REMARK  4 active torsions:
REMARK  status: ('A' for Active; 'I' for Inactive)
REMARK    1  A    between atoms: C_8  and  S_9
REMARK    2  A    between atoms: S_9  and  C_10
REMARK    3  A    between atoms: C_10  and  C_11
REMARK    4  A    between atoms: N_13  and  C_14
REMARK                            x       y       z     vdW  Elec       q    Type
REMARK                         _______ _______ _______ _____ _____    ______ ____
ROOT
ATOM      1  C   UNL     1       7.674   6.409  17.772  0.00  0.00    +0.000 C 
ENDROOT
BRANCH   1   2
ATOM      2  C   UNL     1       7.588   5.333  16.700  0.00  0.00    +0.000 C 
ATOM      3  O   UNL     1       8.041   4.211  16.918  0.00  0.00    +0.000 OA
ATOM      4  N   UNL     1       6.938   5.722  15.541  0.00  0.00    +0.000 N 
ATOM      5  H   UNL     1       6.734   6.712  15.428  0.00  0.00    +0.000 HD
BRANCH   4   6
ATOM      6  C   UNL     1       6.709   4.920  14.396  0.00  0.00    +0.000 A 
ATOM      7  C   UNL     1       7.543   4.907  13.275  0.00  0.00    +0.000 A 
ATOM      8  C   UNL     1       7.212   4.132  12.158  0.00  0.00    +0.000 A 
ATOM      9  C   UNL     1       6.051   3.367  12.166  0.00  0.00    +0.000 A 
ATOM     10  F   UNL     1       5.727   2.650  11.083  0.00  0.00    +0.000 F 
ATOM     11  C   UNL     1       5.226   3.335  13.281  0.00  0.00    +0.000 A 
ATOM     12  C   UNL     1       5.569   4.102  14.389  0.00  0.00    +0.000 A 
ATOM     13  F   UNL     1       4.768   4.080  15.466  0.00  0.00    +0.000 F 
ENDBRANCH   4   6
ENDBRANCH   1   2
BRANCH   1  14
ATOM     14  S   UNL     1       7.182   5.824  19.412  0.00  0.00    +0.000 S 
BRANCH  14  22
ATOM     15  O   UNL     1       0.420   3.277  18.075  0.00  0.00    +0.000 OA
ATOM     16  C   UNL     1       1.288   3.783  18.778  0.00  0.00    +0.000 C 
ATOM     17  C   UNL     1       1.573   3.260  20.177  0.00  0.00    +0.000 C 
ATOM     18  C   UNL     1       2.526   2.070  20.112  0.00  0.00    +0.000 C 
ATOM     19  C   UNL     1       3.601   2.193  19.028  0.00  0.00    +0.000 C 
ATOM     20  N   UNL     1       4.114   3.552  18.941  0.00  0.00    +0.000 N 
ATOM     21  N   UNL     1       5.423   3.786  19.293  0.00  0.00    +0.000 NA
ATOM     22  C   UNL     1       5.686   5.032  19.038  0.00  0.00    +0.000 C 
ATOM     23  S   UNL     1       4.437   5.994  18.277  0.00  0.00    +0.000 S 
ATOM     24  C   UNL     1       3.360   4.628  18.518  0.00  0.00    +0.000 C 
ATOM     25  N   UNL     1       2.096   4.811  18.367  0.00  0.00    +0.000 NA
ENDBRANCH  14  22
ENDBRANCH   1  14
TORSDOF 4
ENDMDL
MODEL 5
REMARK VINA RESULT:      -7.3      4.181      6.929
REMARK  Name = 
REMARK  4 active torsions:
REMARK  status: ('A' for Active; 'I' for Inactive)
REMARK    1  A    between atoms: C_8  and  S_9
REMARK    2  A    between atoms: S_9  and  C_10
REMARK    3  A    between atoms: C_10  and  C_11
REMARK    4  A    between atoms: N_13  and  C_14
REMARK                            x       y       z     vdW  Elec       q    Type
REMARK                         _______ _______ _______ _____ _____    ______ ____
ROOT
ATOM      1  C   UNL     1       7.656   6.906  17.816  0.00  0.00    +0.000 C 
ENDROOT
BRANCH   1   2
ATOM      2  C   UNL     1       6.877   6.495  16.575  0.00  0.00    +0.000 C 
ATOM      3  O   UNL     1       5.898   7.149  16.221  0.00  0.00    +0.000 OA
ATOM      4  N   UNL     1       7.393   5.399  15.905  0.00  0.00    +0.000 N 
ATOM      5  H   UNL     1       8.119   4.862  16.374  0.00  0.00    +0.000 HD
BRANCH   4   6
ATOM      6  C   UNL     1       6.874   4.816  14.723  0.00  0.00    +0.000 A 
ATOM      7  C   UNL     1       5.707   4.048  14.680  0.00  0.00    +0.000 A 
ATOM      8  C   UNL     1       5.296   3.456  13.481  0.00  0.00    +0.000 A 
ATOM      9  C   UNL     1       6.049   3.635  12.326  0.00  0.00    +0.000 A 
ATOM     10  F   UNL     1       5.664   3.041  11.190  0.00  0.00    +0.000 F 
ATOM     11  C   UNL     1       7.191   4.422  12.336  0.00  0.00    +0.000 A 
ATOM     12  C   UNL     1       7.586   5.015  13.530  0.00  0.00    +0.000 A 
ATOM     13  F   UNL     1       8.697   5.769  13.544  0.00  0.00    +0.000 F 
ENDBRANCH   4   6
ENDBRANCH   1   2
BRANCH   1  14
ATOM     14  S   UNL     1       7.425   5.777  19.211  0.00  0.00    +0.000 S 
BRANCH  14  22
ATOM     15  O   UNL     1       0.608   3.188  18.304  0.00  0.00    +0.000 OA
ATOM     16  C   UNL     1       1.655   3.342  18.923  0.00  0.00    +0.000 C 
ATOM     17  C   UNL     1       2.381   2.162  19.548  0.00  0.00    +0.000 C 
ATOM     18  C   UNL     1       3.268   1.478  18.512  0.00  0.00    +0.000 C 
ATOM     19  C   UNL     1       3.931   2.444  17.526  0.00  0.00    +0.000 C 
ATOM     20  N   UNL     1       4.382   3.656  18.193  0.00  0.00    +0.000 N 
ATOM     21  N   UNL     1       5.733   3.901  18.273  0.00  0.00    +0.000 NA
ATOM     22  C   UNL     1       5.893   5.074  18.808  0.00  0.00    +0.000 C 
ATOM     23  S   UNL     1       4.460   6.012  19.169  0.00  0.00    +0.000 S 
ATOM     24  C   UNL     1       3.526   4.585  18.751  0.00  0.00    +0.000 C 
ATOM     25  N   UNL     1       2.281   4.552  19.070  0.00  0.00    +0.000 NA
ENDBRANCH  14  22
ENDBRANCH   1  14
TORSDOF 4
ENDMDL
MODEL 6
REMARK VINA RESULT:      -7.3      5.266      7.137
REMARK  Name = 
REMARK  4 active torsions:
REMARK  status: ('A' for Active; 'I' for Inactive)
REMARK    1  A    between atoms: C_8  and  S_9
REMARK    2  A    between atoms: S_9  and  C_10
REMARK    3  A    between atoms: C_10  and  C_11
REMARK    4  A    between atoms: N_13  and  C_14
REMARK                            x       y       z     vdW  Elec       q    Type
REMARK                         _______ _______ _______ _____ _____    ______ ____
ROOT
ATOM      1  C   UNL     1       7.781   7.663  17.535  0.00  0.00    +0.000 C 
ENDROOT
BRANCH   1   2
ATOM      2  C   UNL     1       8.062   9.089  17.985  0.00  0.00    +0.000 C 
ATOM      3  O   UNL     1       7.396  10.018  17.532  0.00  0.00    +0.000 OA
ATOM      4  N   UNL     1       9.057   9.209  18.940  0.00  0.00    +0.000 N 
ATOM      5  H   UNL     1       9.627   8.387  19.128  0.00  0.00    +0.000 HD
BRANCH   4   6
ATOM      6  C   UNL     1       9.508  10.411  19.536  0.00  0.00    +0.000 A 
ATOM      7  C   UNL     1       9.204  10.794  20.846  0.00  0.00    +0.000 A 
ATOM      8  C   UNL     1       9.638  12.029  21.338  0.00  0.00    +0.000 A 
ATOM      9  C   UNL     1      10.380  12.878  20.524  0.00  0.00    +0.000 A 
ATOM     10  F   UNL     1      10.766  14.070  20.994  0.00  0.00    +0.000 F 
ATOM     11  C   UNL     1      10.725  12.505  19.233  0.00  0.00    +0.000 A 
ATOM     12  C   UNL     1      10.296  11.271  18.756  0.00  0.00    +0.000 A 
ATOM     13  F   UNL     1      10.621  10.912  17.504  0.00  0.00    +0.000 F 
ENDBRANCH   4   6
ENDBRANCH   1   2
BRANCH   1  14
ATOM     14  S   UNL     1       7.868   6.458  18.882  0.00  0.00    +0.000 S 
BRANCH  14  22
ATOM     15  O   UNL     1       1.178   3.636  17.747  0.00  0.00    +0.000 OA
ATOM     16  C   UNL     1       1.989   4.350  18.326  0.00  0.00    +0.000 C 
ATOM     17  C   UNL     1       2.103   4.344  19.842  0.00  0.00    +0.000 C 
ATOM     18  C   UNL     1       3.005   3.201  20.300  0.00  0.00    +0.000 C 
ATOM     19  C   UNL     1       4.192   2.935  19.369  0.00  0.00    +0.000 C 
ATOM     20  N   UNL     1       4.770   4.177  18.878  0.00  0.00    +0.000 N 
ATOM     21  N   UNL     1       6.044   4.512  19.273  0.00  0.00    +0.000 NA
ATOM     22  C   UNL     1       6.386   5.591  18.636  0.00  0.00    +0.000 C 
ATOM     23  S   UNL     1       5.267   6.235  17.455  0.00  0.00    +0.000 S 
ATOM     24  C   UNL     1       4.111   5.043  18.028  0.00  0.00    +0.000 C 
ATOM     25  N   UNL     1       2.879   5.168  17.681  0.00  0.00    +0.000 NA
ENDBRANCH  14  22
ENDBRANCH   1  14
TORSDOF 4
ENDMDL
MODEL 7
REMARK VINA RESULT:      -7.1      2.091      4.361
REMARK  Name = 
REMARK  4 active torsions:
REMARK  status: ('A' for Active; 'I' for Inactive)
REMARK    1  A    between atoms: C_8  and  S_9
REMARK    2  A    between atoms: S_9  and  C_10
REMARK    3  A    between atoms: C_10  and  C_11
REMARK    4  A    between atoms: N_13  and  C_14
REMARK                            x       y       z     vdW  Elec       q    Type
REMARK                         _______ _______ _______ _____ _____    ______ ____
ROOT
ATOM      1  C   UNL     1       6.243   5.923  16.621  0.00  0.00    +0.000 C 
ENDROOT
BRANCH   1   2
ATOM      2  C   UNL     1       5.426   6.986  17.339  0.00  0.00    +0.000 C 
ATOM      3  O   UNL     1       5.966   8.022  17.721  0.00  0.00    +0.000 OA
ATOM      4  N   UNL     1       4.078   6.695  17.462  0.00  0.00    +0.000 N 
ATOM      5  H   UNL     1       3.780   5.749  17.233  0.00  0.00    +0.000 HD
BRANCH   4   6
ATOM      6  C   UNL     1       3.094   7.510  18.072  0.00  0.00    +0.000 A 
ATOM      7  C   UNL     1       2.505   8.616  17.454  0.00  0.00    +0.000 A 
ATOM      8  C   UNL     1       1.586   9.408  18.151  0.00  0.00    +0.000 A 
ATOM      9  C   UNL     1       1.253   9.090  19.463  0.00  0.00    +0.000 A 
ATOM     10  F   UNL     1       0.394   9.869  20.132  0.00  0.00    +0.000 F 
ATOM     11  C   UNL     1       1.797   7.977  20.086  0.00  0.00    +0.000 A 
ATOM     12  C   UNL     1       2.703   7.191  19.382  0.00  0.00    +0.000 A 
ATOM     13  F   UNL     1       3.239   6.119  19.986  0.00  0.00    +0.000 F 
ENDBRANCH   4   6
ENDBRANCH   1   2
BRANCH   1  14
ATOM     14  S   UNL     1       6.855   4.626  17.726  0.00  0.00    +0.000 S 
BRANCH  14  22
ATOM     15  O   UNL     1       0.156   1.836  18.884  0.00  0.00    +0.000 OA
ATOM     16  C   UNL     1       0.969   2.749  18.791  0.00  0.00    +0.000 C 
ATOM     17  C   UNL     1       1.077   3.819  19.866  0.00  0.00    +0.000 C 
ATOM     18  C   UNL     1       1.972   3.336  21.004  0.00  0.00    +0.000 C 
ATOM     19  C   UNL     1       3.160   2.488  20.542  0.00  0.00    +0.000 C 
ATOM     20  N   UNL     1       3.747   3.016  19.320  0.00  0.00    +0.000 N 
ATOM     21  N   UNL     1       5.021   3.532  19.369  0.00  0.00    +0.000 NA
ATOM     22  C   UNL     1       5.371   3.841  18.157  0.00  0.00    +0.000 C 
ATOM     23  S   UNL     1       4.259   3.460  16.860  0.00  0.00    +0.000 S 
ATOM     24  C   UNL     1       3.095   3.025  18.102  0.00  0.00    +0.000 C 
ATOM     25  N   UNL     1       1.865   2.869  17.762  0.00  0.00    +0.000 NA
ENDBRANCH  14  22
ENDBRANCH   1  14
TORSDOF 4
ENDMDL
MODEL 8
REMARK VINA RESULT:      -7.1      4.757      6.667
REMARK  Name = 
REMARK  4 active torsions:
REMARK  status: ('A' for Active; 'I' for Inactive)
REMARK    1  A    between atoms: C_8  and  S_9
REMARK    2  A    between atoms: S_9  and  C_10
REMARK    3  A    between atoms: C_10  and  C_11
REMARK    4  A    between atoms: N_13  and  C_14
REMARK                            x       y       z     vdW  Elec       q    Type
REMARK                         _______ _______ _______ _____ _____    ______ ____
ROOT
ATOM      1  C   UNL     1       7.646   6.566  18.647  0.00  0.00    +0.000 C 
ENDROOT
BRANCH   1   2
ATOM      2  C   UNL     1       8.036   7.964  18.191  0.00  0.00    +0.000 C 
ATOM      3  O   UNL     1       7.711   8.358  17.073  0.00  0.00    +0.000 OA
ATOM      4  N   UNL     1       8.714   8.713  19.137  0.00  0.00    +0.000 N 
ATOM      5  H   UNL     1       9.046   8.228  19.969  0.00  0.00    +0.000 HD
BRANCH   4   6
ATOM      6  C   UNL     1       9.182  10.040  18.980  0.00  0.00    +0.000 A 
ATOM      7  C   UNL     1       9.452  10.630  17.742  0.00  0.00    +0.000 A 
ATOM      8  C   UNL     1       9.972  11.927  17.678  0.00  0.00    +0.000 A 
ATOM      9  C   UNL     1      10.217  12.635  18.849  0.00  0.00    +0.000 A 
ATOM     10  F   UNL     1      10.741  13.864  18.779  0.00  0.00    +0.000 F 
ATOM     11  C   UNL     1       9.923  12.084  20.088  0.00  0.00    +0.000 A 
ATOM     12  C   UNL     1       9.398  10.798  20.142  0.00  0.00    +0.000 A 
ATOM     13  F   UNL     1       9.122  10.259  21.340  0.00  0.00    +0.000 F 
ENDBRANCH   4   6
ENDBRANCH   1   2
BRANCH   1  14
ATOM     14  S   UNL     1       7.534   5.375  17.288  0.00  0.00    +0.000 S 
BRANCH  14  22
ATOM     15  O   UNL     1       0.812   2.587  18.310  0.00  0.00    +0.000 OA
ATOM     16  C   UNL     1       1.634   3.495  18.274  0.00  0.00    +0.000 C 
ATOM     17  C   UNL     1       1.764   4.487  19.418  0.00  0.00    +0.000 C 
ATOM     18  C   UNL     1       2.662   3.917  20.512  0.00  0.00    +0.000 C 
ATOM     19  C   UNL     1       3.837   3.090  19.983  0.00  0.00    +0.000 C 
ATOM     20  N   UNL     1       4.419   3.694  18.795  0.00  0.00    +0.000 N 
ATOM     21  N   UNL     1       5.700   4.191  18.868  0.00  0.00    +0.000 NA
ATOM     22  C   UNL     1       6.043   4.580  17.677  0.00  0.00    +0.000 C 
ATOM     23  S   UNL     1       4.917   4.300  16.367  0.00  0.00    +0.000 S 
ATOM     24  C   UNL     1       3.759   3.795  17.587  0.00  0.00    +0.000 C 
ATOM     25  N   UNL     1       2.524   3.675  17.247  0.00  0.00    +0.000 NA
ENDBRANCH  14  22
ENDBRANCH   1  14
TORSDOF 4
ENDMDL
MODEL 9
REMARK VINA RESULT:      -7.0      3.961      6.956
REMARK  Name = 
REMARK  4 active torsions:
REMARK  status: ('A' for Active; 'I' for Inactive)
REMARK    1  A    between atoms: C_8  and  S_9
REMARK    2  A    between atoms: S_9  and  C_10
REMARK    3  A    between atoms: C_10  and  C_11
REMARK    4  A    between atoms: N_13  and  C_14
REMARK                            x       y       z     vdW  Elec       q    Type
REMARK                         _______ _______ _______ _____ _____    ______ ____
ROOT
ATOM      1  C   UNL     1       7.261   7.258  17.389  0.00  0.00    +0.000 C 
ENDROOT
BRANCH   1   2
ATOM      2  C   UNL     1       6.504   6.587  16.253  0.00  0.00    +0.000 C 
ATOM      3  O   UNL     1       5.335   6.893  16.028  0.00  0.00    +0.000 OA
ATOM      4  N   UNL     1       7.250   5.684  15.514  0.00  0.00    +0.000 N 
ATOM      5  H   UNL     1       8.159   5.414  15.885  0.00  0.00    +0.000 HD
BRANCH   4   6
ATOM      6  C   UNL     1       6.799   4.932  14.403  0.00  0.00    +0.000 A 
ATOM      7  C   UNL     1       5.639   4.152  14.408  0.00  0.00    +0.000 A 
ATOM      8  C   UNL     1       5.298   3.389  13.287  0.00  0.00    +0.000 A 
ATOM      9  C   UNL     1       6.112   3.409  12.160  0.00  0.00    +0.000 A 
ATOM     10  F   UNL     1       5.793   2.654  11.103  0.00  0.00    +0.000 F 
ATOM     11  C   UNL     1       7.249   4.203  12.118  0.00  0.00    +0.000 A 
ATOM     12  C   UNL     1       7.575   4.965  13.234  0.00  0.00    +0.000 A 
ATOM     13  F   UNL     1       8.680   5.727  13.199  0.00  0.00    +0.000 F 
ENDBRANCH   4   6
ENDBRANCH   1   2
BRANCH   1  14
ATOM     14  S   UNL     1       7.663   6.129  18.746  0.00  0.00    +0.000 S 
BRANCH  14  22
ATOM     15  O   UNL     1       1.446   2.220  18.483  0.00  0.00    +0.000 OA
ATOM     16  C   UNL     1       2.210   3.102  18.107  0.00  0.00    +0.000 C 
ATOM     17  C   UNL     1       1.721   4.524  17.883  0.00  0.00    +0.000 C 
ATOM     18  C   UNL     1       1.717   5.295  19.200  0.00  0.00    +0.000 C 
ATOM     19  C   UNL     1       2.883   4.946  20.128  0.00  0.00    +0.000 C 
ATOM     20  N   UNL     1       4.121   4.771  19.384  0.00  0.00    +0.000 N 
ATOM     21  N   UNL     1       5.140   5.674  19.578  0.00  0.00    +0.000 NA
ATOM     22  C   UNL     1       6.168   5.263  18.898  0.00  0.00    +0.000 C 
ATOM     23  S   UNL     1       6.038   3.734  18.057  0.00  0.00    +0.000 S 
ATOM     24  C   UNL     1       4.336   3.741  18.489  0.00  0.00    +0.000 C 
ATOM     25  N   UNL     1       3.551   2.910  17.900  0.00  0.00    +0.000 NA
ENDBRANCH  14  22
ENDBRANCH   1  14
TORSDOF 4
ENDMDL
