MODEL 1
REMARK VINA RESULT:      -6.3      0.000      0.000
REMARK  Name = 
REMARK  6 active torsions:
REMARK  status: ('A' for Active; 'I' for Inactive)
REMARK    1  A    between atoms: C_1  and  S_2
REMARK    2  A    between atoms: S_2  and  C_3
REMARK    3  A    between atoms: C_3  and  C_4
REMARK    4  A    between atoms: N_6  and  C_7
REMARK    5  A    between atoms: C_10  and  N_11
REMARK    6  A    between atoms: C_16  and  C_17
REMARK                            x       y       z     vdW  Elec       q    Type
REMARK                         _______ _______ _______ _____ _____    ______ ____
ROOT
ATOM      1  N   UNL     1      -5.248  12.193  17.726  0.00  0.00    +0.000 N 
ATOM      2  C   UNL     1      -4.043  11.518  17.531  0.00  0.00    +0.000 A 
ATOM      3  N   UNL     1      -3.982  10.718  16.463  0.00  0.00    +0.000 NA
ATOM      4  C   UNL     1      -2.850  10.011  16.299  0.00  0.00    +0.000 A 
ATOM      5  C   UNL     1      -1.789  10.066  17.169  0.00  0.00    +0.000 A 
ATOM      6  C   UNL     1      -1.929  10.919  18.242  0.00  0.00    +0.000 A 
ATOM      7  N   UNL     1      -3.047  11.646  18.420  0.00  0.00    +0.000 NA
ATOM      8  H   UNL     1      -5.929  11.662  17.194  0.00  0.00    +0.000 HD
ENDROOT
BRANCH   6   9
ATOM      9  C   UNL     1      -0.905  11.057  19.295  0.00  0.00    +0.000 A 
ATOM     10  C   UNL     1      -0.203  12.255  19.494  0.00  0.00    +0.000 A 
ATOM     11  C   UNL     1       0.785  12.310  20.466  0.00  0.00    +0.000 A 
ATOM     12  N   UNL     1       1.118  11.270  21.256  0.00  0.00    +0.000 NA
ATOM     13  C   UNL     1       0.421  10.130  21.077  0.00  0.00    +0.000 A 
ATOM     14  C   UNL     1      -0.583   9.981  20.133  0.00  0.00    +0.000 A 
ENDBRANCH   6   9
BRANCH   1  18
ATOM     15  C   UNL     1      -7.170  12.008  20.859  0.00  0.00    +0.000 C 
ATOM     16  C   UNL     1      -7.585  13.325  20.200  0.00  0.00    +0.000 C 
ATOM     17  C   UNL     1      -6.387  13.709  19.320  0.00  0.00    +0.000 C 
ATOM     18  C   UNL     1      -5.565  12.421  19.128  0.00  0.00    +0.000 C 
ATOM     19  C   UNL     1      -6.465  11.322  19.687  0.00  0.00    +0.000 C 
BRANCH  15  22
ATOM     20  C   UNL     1      -6.793  12.371  23.347  0.00  0.00    +0.000 C 
ATOM     21  O   UNL     1      -7.914  12.039  23.715  0.00  0.00    +0.000 OA
ATOM     22  N   UNL     1      -6.360  12.328  22.042  0.00  0.00    +0.000 N 
ATOM     23  H   UNL     1      -5.557  12.927  21.865  0.00  0.00    +0.000 HD
BRANCH  20  24
ATOM     24  C   UNL     1      -5.722  12.801  24.337  0.00  0.00    +0.000 C 
BRANCH  24  26
ATOM     25  C   UNL     1      -3.977  14.882  23.829  0.00  0.00    +0.000 C 
ATOM     26  S   UNL     1      -4.127  13.107  23.500  0.00  0.00    +0.000 S 
ENDBRANCH  24  26
ENDBRANCH  20  24
ENDBRANCH  15  22
ENDBRANCH   1  18
TORSDOF 5
ENDMDL
MODEL 2
REMARK VINA RESULT:      -6.2      1.116      1.137
REMARK  Name = 
REMARK  6 active torsions:
REMARK  status: ('A' for Active; 'I' for Inactive)
REMARK    1  A    between atoms: C_1  and  S_2
REMARK    2  A    between atoms: S_2  and  C_3
REMARK    3  A    between atoms: C_3  and  C_4
REMARK    4  A    between atoms: N_6  and  C_7
REMARK    5  A    between atoms: C_10  and  N_11
REMARK    6  A    between atoms: C_16  and  C_17
REMARK                            x       y       z     vdW  Elec       q    Type
REMARK                         _______ _______ _______ _____ _____    ______ ____
ROOT
ATOM      1  N   UNL     1      -4.993  12.196  16.813  0.00  0.00    +0.000 N 
ATOM      2  C   UNL     1      -3.818  11.462  16.974  0.00  0.00    +0.000 A 
ATOM      3  N   UNL     1      -3.579  10.524  16.054  0.00  0.00    +0.000 NA
ATOM      4  C   UNL     1      -2.484   9.764  16.233  0.00  0.00    +0.000 A 
ATOM      5  C   UNL     1      -1.633   9.900  17.302  0.00  0.00    +0.000 A 
ATOM      6  C   UNL     1      -1.947  10.894  18.204  0.00  0.00    +0.000 A 
ATOM      7  N   UNL     1      -3.031  11.675  18.038  0.00  0.00    +0.000 NA
ATOM      8  H   UNL     1      -5.575  11.622  16.213  0.00  0.00    +0.000 HD
ENDROOT
BRANCH   6   9
ATOM      9  C   UNL     1      -1.167  11.138  19.431  0.00  0.00    +0.000 A 
ATOM     10  C   UNL     1      -1.231  12.358  20.121  0.00  0.00    +0.000 A 
ATOM     11  C   UNL     1      -0.435  12.548  21.240  0.00  0.00    +0.000 A 
ATOM     12  N   UNL     1       0.408  11.617  21.728  0.00  0.00    +0.000 NA
ATOM     13  C   UNL     1       0.446  10.438  21.076  0.00  0.00    +0.000 A 
ATOM     14  C   UNL     1      -0.312  10.155  19.950  0.00  0.00    +0.000 A 
ENDBRANCH   6   9
BRANCH   1  18
ATOM     15  C   UNL     1      -7.398  12.250  19.598  0.00  0.00    +0.000 C 
ATOM     16  C   UNL     1      -7.883  13.318  18.615  0.00  0.00    +0.000 C 
ATOM     17  C   UNL     1      -6.619  13.746  17.857  0.00  0.00    +0.000 C 
ATOM     18  C   UNL     1      -5.589  12.621  18.070  0.00  0.00    +0.000 C 
ATOM     19  C   UNL     1      -6.397  11.500  18.717  0.00  0.00    +0.000 C 
BRANCH  15  22
ATOM     20  C   UNL     1      -7.014  12.529  22.095  0.00  0.00    +0.000 C 
ATOM     21  O   UNL     1      -7.518  11.466  22.440  0.00  0.00    +0.000 OA
ATOM     22  N   UNL     1      -6.874  12.933  20.787  0.00  0.00    +0.000 N 
ATOM     23  H   UNL     1      -6.750  13.937  20.688  0.00  0.00    +0.000 HD
BRANCH  20  24
ATOM     24  C   UNL     1      -6.411  13.492  23.105  0.00  0.00    +0.000 C 
BRANCH  24  26
ATOM     25  C   UNL     1      -3.771  12.722  22.834  0.00  0.00    +0.000 C 
ATOM     26  S   UNL     1      -5.087  12.691  24.078  0.00  0.00    +0.000 S 
ENDBRANCH  24  26
ENDBRANCH  20  24
ENDBRANCH  15  22
ENDBRANCH   1  18
TORSDOF 5
ENDMDL
MODEL 3
REMARK VINA RESULT:      -6.2      5.887      8.543
REMARK  Name = 
REMARK  6 active torsions:
REMARK  status: ('A' for Active; 'I' for Inactive)
REMARK    1  A    between atoms: C_1  and  S_2
REMARK    2  A    between atoms: S_2  and  C_3
REMARK    3  A    between atoms: C_3  and  C_4
REMARK    4  A    between atoms: N_6  and  C_7
REMARK    5  A    between atoms: C_10  and  N_11
REMARK    6  A    between atoms: C_16  and  C_17
REMARK                            x       y       z     vdW  Elec       q    Type
REMARK                         _______ _______ _______ _____ _____    ______ ____
ROOT
ATOM      1  N   UNL     1       3.599   8.592  17.570  0.00  0.00    +0.000 N 
ATOM      2  C   UNL     1       3.850   7.226  17.436  0.00  0.00    +0.000 A 
ATOM      3  N   UNL     1       4.856   6.890  16.623  0.00  0.00    +0.000 NA
ATOM      4  C   UNL     1       5.067   5.575  16.433  0.00  0.00    +0.000 A 
ATOM      5  C   UNL     1       4.303   4.592  17.013  0.00  0.00    +0.000 A 
ATOM      6  C   UNL     1       3.289   5.023  17.840  0.00  0.00    +0.000 A 
ATOM      7  N   UNL     1       3.067   6.333  18.056  0.00  0.00    +0.000 NA
ATOM      8  H   UNL     1       4.026   9.014  16.752  0.00  0.00    +0.000 HD
ENDROOT
BRANCH   6   9
ATOM      9  C   UNL     1       2.346   4.100  18.500  0.00  0.00    +0.000 A 
ATOM     10  C   UNL     1       1.677   4.443  19.683  0.00  0.00    +0.000 A 
ATOM     11  C   UNL     1       0.841   3.515  20.286  0.00  0.00    +0.000 A 
ATOM     12  N   UNL     1       0.616   2.279  19.795  0.00  0.00    +0.000 NA
ATOM     13  C   UNL     1       1.242   1.965  18.643  0.00  0.00    +0.000 A 
ATOM     14  C   UNL     1       2.094   2.827  17.970  0.00  0.00    +0.000 A 
ENDBRANCH   6   9
BRANCH   1  18
ATOM     15  C   UNL     1       0.672  10.549  18.642  0.00  0.00    +0.000 C 
ATOM     16  C   UNL     1       1.007   9.630  19.820  0.00  0.00    +0.000 C 
ATOM     17  C   UNL     1       1.725   8.433  19.183  0.00  0.00    +0.000 C 
ATOM     18  C   UNL     1       2.196   8.905  17.794  0.00  0.00    +0.000 C 
ATOM     19  C   UNL     1       1.951  10.411  17.813  0.00  0.00    +0.000 C 
BRANCH  15  22
ATOM     20  C   UNL     1      -1.832  10.615  18.214  0.00  0.00    +0.000 C 
ATOM     21  O   UNL     1      -2.059  11.651  18.829  0.00  0.00    +0.000 OA
ATOM     22  N   UNL     1      -0.579  10.074  18.039  0.00  0.00    +0.000 N 
ATOM     23  H   UNL     1      -0.598   9.084  17.807  0.00  0.00    +0.000 HD
BRANCH  20  24
ATOM     24  C   UNL     1      -2.938   9.851  17.502  0.00  0.00    +0.000 C 
BRANCH  24  26
ATOM     25  C   UNL     1      -3.084  10.360  14.791  0.00  0.00    +0.000 C 
ATOM     26  S   UNL     1      -3.843  10.926  16.335  0.00  0.00    +0.000 S 
ENDBRANCH  24  26
ENDBRANCH  20  24
ENDBRANCH  15  22
ENDBRANCH   1  18
TORSDOF 5
ENDMDL
MODEL 4
REMARK VINA RESULT:      -6.1      2.575      5.176
REMARK  Name = 
REMARK  6 active torsions:
REMARK  status: ('A' for Active; 'I' for Inactive)
REMARK    1  A    between atoms: C_1  and  S_2
REMARK    2  A    between atoms: S_2  and  C_3
REMARK    3  A    between atoms: C_3  and  C_4
REMARK    4  A    between atoms: N_6  and  C_7
REMARK    5  A    between atoms: C_10  and  N_11
REMARK    6  A    between atoms: C_16  and  C_17
REMARK                            x       y       z     vdW  Elec       q    Type
REMARK                         _______ _______ _______ _____ _____    ______ ____
ROOT
ATOM      1  N   UNL     1      -0.735  10.183  18.911  0.00  0.00    +0.000 N 
ATOM      2  C   UNL     1      -0.607  10.229  20.300  0.00  0.00    +0.000 A 
ATOM      3  N   UNL     1       0.021   9.196  20.868  0.00  0.00    +0.000 NA
ATOM      4  C   UNL     1       0.093   9.195  22.211  0.00  0.00    +0.000 A 
ATOM      5  C   UNL     1      -0.450  10.178  23.001  0.00  0.00    +0.000 A 
ATOM      6  C   UNL     1      -1.077  11.210  22.337  0.00  0.00    +0.000 A 
ATOM      7  N   UNL     1      -1.150  11.240  20.993  0.00  0.00    +0.000 NA
ATOM      8  H   UNL     1      -0.614   9.204  18.674  0.00  0.00    +0.000 HD
ENDROOT
BRANCH   6   9
ATOM      9  C   UNL     1      -1.756  12.317  23.036  0.00  0.00    +0.000 A 
ATOM     10  C   UNL     1      -1.117  13.541  23.284  0.00  0.00    +0.000 A 
ATOM     11  C   UNL     1      -1.788  14.527  23.992  0.00  0.00    +0.000 A 
ATOM     12  N   UNL     1      -3.045  14.390  24.459  0.00  0.00    +0.000 NA
ATOM     13  C   UNL     1      -3.663  13.222  24.194  0.00  0.00    +0.000 A 
ATOM     14  C   UNL     1      -3.074  12.180  23.495  0.00  0.00    +0.000 A 
ENDBRANCH   6   9
BRANCH   1  18
ATOM     15  C   UNL     1      -3.844  10.554  16.977  0.00  0.00    +0.000 C 
ATOM     16  C   UNL     1      -2.750  11.206  16.127  0.00  0.00    +0.000 C 
ATOM     17  C   UNL     1      -1.680  11.634  17.140  0.00  0.00    +0.000 C 
ATOM     18  C   UNL     1      -1.948  10.818  18.418  0.00  0.00    +0.000 C 
ATOM     19  C   UNL     1      -2.987   9.788  17.987  0.00  0.00    +0.000 C 
BRANCH  15  22
ATOM     20  C   UNL     1      -5.937  11.461  18.097  0.00  0.00    +0.000 C 
ATOM     21  O   UNL     1      -6.434  10.376  18.379  0.00  0.00    +0.000 OA
ATOM     22  N   UNL     1      -4.711  11.620  17.495  0.00  0.00    +0.000 N 
ATOM     23  H   UNL     1      -4.599  12.524  17.044  0.00  0.00    +0.000 HD
BRANCH  20  24
ATOM     24  C   UNL     1      -6.617  12.770  18.465  0.00  0.00    +0.000 C 
BRANCH  24  26
ATOM     25  C   UNL     1      -5.911  12.646  21.134  0.00  0.00    +0.000 C 
ATOM     26  S   UNL     1      -7.406  12.670  20.110  0.00  0.00    +0.000 S 
ENDBRANCH  24  26
ENDBRANCH  20  24
ENDBRANCH  15  22
ENDBRANCH   1  18
TORSDOF 5
ENDMDL
MODEL 5
REMARK VINA RESULT:      -6.0      2.721      6.144
REMARK  Name = 
REMARK  6 active torsions:
REMARK  status: ('A' for Active; 'I' for Inactive)
REMARK    1  A    between atoms: C_1  and  S_2
REMARK    2  A    between atoms: S_2  and  C_3
REMARK    3  A    between atoms: C_3  and  C_4
REMARK    4  A    between atoms: N_6  and  C_7
REMARK    5  A    between atoms: C_10  and  N_11
REMARK    6  A    between atoms: C_16  and  C_17
REMARK                            x       y       z     vdW  Elec       q    Type
REMARK                         _______ _______ _______ _____ _____    ______ ____
ROOT
ATOM      1  N   UNL     1      -4.784  11.228  17.089  0.00  0.00    +0.000 N 
ATOM      2  C   UNL     1      -5.597  12.110  17.801  0.00  0.00    +0.000 A 
ATOM      3  N   UNL     1      -6.148  13.102  17.096  0.00  0.00    +0.000 NA
ATOM      4  C   UNL     1      -6.880  13.999  17.781  0.00  0.00    +0.000 A 
ATOM      5  C   UNL     1      -7.067  13.946  19.140  0.00  0.00    +0.000 A 
ATOM      6  C   UNL     1      -6.469  12.889  19.792  0.00  0.00    +0.000 A 
ATOM      7  N   UNL     1      -5.742  11.973  19.127  0.00  0.00    +0.000 NA
ATOM      8  H   UNL     1      -4.524  11.736  16.251  0.00  0.00    +0.000 HD
ENDROOT
BRANCH   6   9
ATOM      9  C   UNL     1      -6.528  12.714  21.256  0.00  0.00    +0.000 A 
ATOM     10  C   UNL     1      -5.459  13.069  22.090  0.00  0.00    +0.000 A 
ATOM     11  C   UNL     1      -5.553  12.833  23.454  0.00  0.00    +0.000 A 
ATOM     12  N   UNL     1      -6.630  12.282  24.046  0.00  0.00    +0.000 NA
ATOM     13  C   UNL     1      -7.665  11.966  23.242  0.00  0.00    +0.000 A 
ATOM     14  C   UNL     1      -7.663  12.165  21.870  0.00  0.00    +0.000 A 
ENDBRANCH   6   9
BRANCH   1  18
ATOM     15  C   UNL     1      -1.369  10.933  18.428  0.00  0.00    +0.000 C 
ATOM     16  C   UNL     1      -1.421   9.989  17.224  0.00  0.00    +0.000 C 
ATOM     17  C   UNL     1      -2.904   9.615  17.093  0.00  0.00    +0.000 C 
ATOM     18  C   UNL     1      -3.688  10.685  17.877  0.00  0.00    +0.000 C 
ATOM     19  C   UNL     1      -2.642  11.749  18.194  0.00  0.00    +0.000 C 
BRANCH  15  22
ATOM     20  C   UNL     1      -0.172   9.762  20.340  0.00  0.00    +0.000 C 
ATOM     21  O   UNL     1       0.952  10.183  20.089  0.00  0.00    +0.000 OA
ATOM     22  N   UNL     1      -1.305  10.113  19.645  0.00  0.00    +0.000 N 
ATOM     23  H   UNL     1      -2.067   9.449  19.757  0.00  0.00    +0.000 HD
BRANCH  20  24
ATOM     24  C   UNL     1      -0.435   8.846  21.525  0.00  0.00    +0.000 C 
BRANCH  24  26
ATOM     25  C   UNL     1      -1.266  10.986  23.064  0.00  0.00    +0.000 C 
ATOM     26  S   UNL     1      -0.023   9.668  23.104  0.00  0.00    +0.000 S 
ENDBRANCH  24  26
ENDBRANCH  20  24
ENDBRANCH  15  22
ENDBRANCH   1  18
TORSDOF 5
ENDMDL
MODEL 6
REMARK VINA RESULT:      -5.9      2.493      5.140
REMARK  Name = 
REMARK  6 active torsions:
REMARK  status: ('A' for Active; 'I' for Inactive)
REMARK    1  A    between atoms: C_1  and  S_2
REMARK    2  A    between atoms: S_2  and  C_3
REMARK    3  A    between atoms: C_3  and  C_4
REMARK    4  A    between atoms: N_6  and  C_7
REMARK    5  A    between atoms: C_10  and  N_11
REMARK    6  A    between atoms: C_16  and  C_17
REMARK                            x       y       z     vdW  Elec       q    Type
REMARK                         _______ _______ _______ _____ _____    ______ ____
ROOT
ATOM      1  N   UNL     1      -0.785  10.249  18.803  0.00  0.00    +0.000 N 
ATOM      2  C   UNL     1      -0.609  10.285  20.187  0.00  0.00    +0.000 A 
ATOM      3  N   UNL     1       0.076   9.269  20.720  0.00  0.00    +0.000 NA
ATOM      4  C   UNL     1       0.196   9.256  22.059  0.00  0.00    +0.000 A 
ATOM      5  C   UNL     1      -0.353  10.211  22.879  0.00  0.00    +0.000 A 
ATOM      6  C   UNL     1      -1.040  11.227  22.251  0.00  0.00    +0.000 A 
ATOM      7  N   UNL     1      -1.162  11.268  20.911  0.00  0.00    +0.000 NA
ATOM      8  H   UNL     1      -0.639   9.278  18.550  0.00  0.00    +0.000 HD
ENDROOT
BRANCH   6   9
ATOM      9  C   UNL     1      -1.732  12.301  22.987  0.00  0.00    +0.000 A 
ATOM     10  C   UNL     1      -3.063  12.174  23.409  0.00  0.00    +0.000 A 
ATOM     11  C   UNL     1      -3.677  13.238  24.052  0.00  0.00    +0.000 A 
ATOM     12  N   UNL     1      -3.065  14.411  24.313  0.00  0.00    +0.000 NA
ATOM     13  C   UNL     1      -1.778  14.517  23.927  0.00  0.00    +0.000 A 
ATOM     14  C   UNL     1      -1.081  13.509  23.280  0.00  0.00    +0.000 A 
ENDBRANCH   6   9
BRANCH   1  18
ATOM     15  C   UNL     1      -3.982  10.520  17.002  0.00  0.00    +0.000 C 
ATOM     16  C   UNL     1      -2.947  11.204  16.105  0.00  0.00    +0.000 C 
ATOM     17  C   UNL     1      -1.848  11.667  17.072  0.00  0.00    +0.000 C 
ATOM     18  C   UNL     1      -2.036  10.846  18.362  0.00  0.00    +0.000 C 
ATOM     19  C   UNL     1      -3.061   9.783  17.976  0.00  0.00    +0.000 C 
BRANCH  15  22
ATOM     20  C   UNL     1      -6.059  11.366  18.200  0.00  0.00    +0.000 C 
ATOM     21  O   UNL     1      -6.515  10.267  18.496  0.00  0.00    +0.000 OA
ATOM     22  N   UNL     1      -4.859  11.560  17.555  0.00  0.00    +0.000 N 
ATOM     23  H   UNL     1      -4.788  12.469  17.104  0.00  0.00    +0.000 HD
BRANCH  20  24
ATOM     24  C   UNL     1      -6.760  12.655  18.598  0.00  0.00    +0.000 C 
BRANCH  24  26
ATOM     25  C   UNL     1      -6.273  12.504  21.313  0.00  0.00    +0.000 C 
ATOM     26  S   UNL     1      -5.832  13.543  19.897  0.00  0.00    +0.000 S 
ENDBRANCH  24  26
ENDBRANCH  20  24
ENDBRANCH  15  22
ENDBRANCH   1  18
TORSDOF 5
ENDMDL
MODEL 7
REMARK VINA RESULT:      -5.9      5.773      8.331
REMARK  Name = 
REMARK  6 active torsions:
REMARK  status: ('A' for Active; 'I' for Inactive)
REMARK    1  A    between atoms: C_1  and  S_2
REMARK    2  A    between atoms: S_2  and  C_3
REMARK    3  A    between atoms: C_3  and  C_4
REMARK    4  A    between atoms: N_6  and  C_7
REMARK    5  A    between atoms: C_10  and  N_11
REMARK    6  A    between atoms: C_16  and  C_17
REMARK                            x       y       z     vdW  Elec       q    Type
REMARK                         _______ _______ _______ _____ _____    ______ ____
ROOT
ATOM      1  N   UNL     1       3.403   8.693  17.590  0.00  0.00    +0.000 N 
ATOM      2  C   UNL     1       3.698   7.332  17.508  0.00  0.00    +0.000 A 
ATOM      3  N   UNL     1       4.645   6.987  16.631  0.00  0.00    +0.000 NA
ATOM      4  C   UNL     1       4.893   5.672  16.493  0.00  0.00    +0.000 A 
ATOM      5  C   UNL     1       4.222   4.697  17.189  0.00  0.00    +0.000 A 
ATOM      6  C   UNL     1       3.264   5.137  18.077  0.00  0.00    +0.000 A 
ATOM      7  N   UNL     1       3.007   6.447  18.241  0.00  0.00    +0.000 NA
ATOM      8  H   UNL     1       3.742   9.083  16.717  0.00  0.00    +0.000 HD
ENDROOT
BRANCH   6   9
ATOM      9  C   UNL     1       2.420   4.219  18.864  0.00  0.00    +0.000 A 
ATOM     10  C   UNL     1       1.601   3.258  18.254  0.00  0.00    +0.000 A 
ATOM     11  C   UNL     1       0.789   2.457  19.044  0.00  0.00    +0.000 A 
ATOM     12  N   UNL     1       0.739   2.534  20.389  0.00  0.00    +0.000 NA
ATOM     13  C   UNL     1       1.548   3.443  20.970  0.00  0.00    +0.000 A 
ATOM     14  C   UNL     1       2.393   4.285  20.264  0.00  0.00    +0.000 A 
ENDBRANCH   6   9
BRANCH   1  18
ATOM     15  C   UNL     1       0.517  10.546  18.923  0.00  0.00    +0.000 C 
ATOM     16  C   UNL     1       0.947   9.595  20.043  0.00  0.00    +0.000 C 
ATOM     17  C   UNL     1       1.645   8.437  19.317  0.00  0.00    +0.000 C 
ATOM     18  C   UNL     1       2.012   8.967  17.918  0.00  0.00    +0.000 C 
ATOM     19  C   UNL     1       1.739  10.465  18.007  0.00  0.00    +0.000 C 
BRANCH  15  22
ATOM     20  C   UNL     1      -1.768  10.833  17.847  0.00  0.00    +0.000 C 
ATOM     21  O   UNL     1      -1.683  12.039  17.642  0.00  0.00    +0.000 OA
ATOM     22  N   UNL     1      -0.763  10.065  18.388  0.00  0.00    +0.000 N 
ATOM     23  H   UNL     1      -1.096   9.191  18.787  0.00  0.00    +0.000 HD
BRANCH  20  24
ATOM     24  C   UNL     1      -2.999  10.039  17.441  0.00  0.00    +0.000 C 
BRANCH  24  26
ATOM     25  C   UNL     1      -5.369  11.440  17.681  0.00  0.00    +0.000 C 
ATOM     26  S   UNL     1      -4.132  11.045  16.419  0.00  0.00    +0.000 S 
ENDBRANCH  24  26
ENDBRANCH  20  24
ENDBRANCH  15  22
ENDBRANCH   1  18
TORSDOF 5
ENDMDL
MODEL 8
REMARK VINA RESULT:      -5.9      5.892      8.635
REMARK  Name = 
REMARK  6 active torsions:
REMARK  status: ('A' for Active; 'I' for Inactive)
REMARK    1  A    between atoms: C_1  and  S_2
REMARK    2  A    between atoms: S_2  and  C_3
REMARK    3  A    between atoms: C_3  and  C_4
REMARK    4  A    between atoms: N_6  and  C_7
REMARK    5  A    between atoms: C_10  and  N_11
REMARK    6  A    between atoms: C_16  and  C_17
REMARK                            x       y       z     vdW  Elec       q    Type
REMARK                         _______ _______ _______ _____ _____    ______ ____
ROOT
ATOM      1  N   UNL     1       3.542   8.342  17.355  0.00  0.00    +0.000 N 
ATOM      2  C   UNL     1       3.853   6.987  17.473  0.00  0.00    +0.000 A 
ATOM      3  N   UNL     1       4.736   6.507  16.593  0.00  0.00    +0.000 NA
ATOM      4  C   UNL     1       4.995   5.188  16.653  0.00  0.00    +0.000 A 
ATOM      5  C   UNL     1       4.395   4.337  17.548  0.00  0.00    +0.000 A 
ATOM      6  C   UNL     1       3.500   4.912  18.424  0.00  0.00    +0.000 A 
ATOM      7  N   UNL     1       3.234   6.231  18.391  0.00  0.00    +0.000 NA
ATOM      8  H   UNL     1       3.808   8.585  16.407  0.00  0.00    +0.000 HD
ENDROOT
BRANCH   6   9
ATOM      9  C   UNL     1       2.732   4.132  19.412  0.00  0.00    +0.000 A 
ATOM     10  C   UNL     1       3.360   3.419  20.444  0.00  0.00    +0.000 A 
ATOM     11  C   UNL     1       2.589   2.662  21.314  0.00  0.00    +0.000 A 
ATOM     12  N   UNL     1       1.246   2.569  21.238  0.00  0.00    +0.000 NA
ATOM     13  C   UNL     1       0.647   3.278  20.260  0.00  0.00    +0.000 A 
ATOM     14  C   UNL     1       1.333   4.062  19.346  0.00  0.00    +0.000 A 
ENDBRANCH   6   9
BRANCH   1  18
ATOM     15  C   UNL     1       0.782  10.260  18.853  0.00  0.00    +0.000 C 
ATOM     16  C   UNL     1       1.209   9.250  19.922  0.00  0.00    +0.000 C 
ATOM     17  C   UNL     1       1.833   8.093  19.130  0.00  0.00    +0.000 C 
ATOM     18  C   UNL     1       2.175   8.659  17.740  0.00  0.00    +0.000 C 
ATOM     19  C   UNL     1       1.969  10.163  17.893  0.00  0.00    +0.000 C 
BRANCH  15  22
ATOM     20  C   UNL     1      -1.590  10.679  18.040  0.00  0.00    +0.000 C 
ATOM     21  O   UNL     1      -1.535  11.905  18.056  0.00  0.00    +0.000 OA
ATOM     22  N   UNL     1      -0.534   9.852  18.345  0.00  0.00    +0.000 N 
ATOM     23  H   UNL     1      -0.822   8.911  18.601  0.00  0.00    +0.000 HD
BRANCH  20  24
ATOM     24  C   UNL     1      -2.843   9.942  17.596  0.00  0.00    +0.000 C 
BRANCH  24  26
ATOM     25  C   UNL     1      -3.245  10.298  14.886  0.00  0.00    +0.000 C 
ATOM     26  S   UNL     1      -3.847  10.962  16.461  0.00  0.00    +0.000 S 
ENDBRANCH  24  26
ENDBRANCH  20  24
ENDBRANCH  15  22
ENDBRANCH   1  18
TORSDOF 5
ENDMDL
MODEL 9
REMARK VINA RESULT:      -5.8      9.108     12.851
REMARK  Name = 
REMARK  6 active torsions:
REMARK  status: ('A' for Active; 'I' for Inactive)
REMARK    1  A    between atoms: C_1  and  S_2
REMARK    2  A    between atoms: S_2  and  C_3
REMARK    3  A    between atoms: C_3  and  C_4
REMARK    4  A    between atoms: N_6  and  C_7
REMARK    5  A    between atoms: C_10  and  N_11
REMARK    6  A    between atoms: C_16  and  C_17
REMARK                            x       y       z     vdW  Elec       q    Type
REMARK                         _______ _______ _______ _____ _____    ______ ____
ROOT
ATOM      1  N   UNL     1       4.833   2.618  19.181  0.00  0.00    +0.000 N 
ATOM      2  C   UNL     1       3.862   3.304  19.911  0.00  0.00    +0.000 A 
ATOM      3  N   UNL     1       3.233   2.602  20.858  0.00  0.00    +0.000 NA
ATOM      4  C   UNL     1       2.248   3.231  21.524  0.00  0.00    +0.000 A 
ATOM      5  C   UNL     1       1.865   4.525  21.269  0.00  0.00    +0.000 A 
ATOM      6  C   UNL     1       2.568   5.180  20.281  0.00  0.00    +0.000 A 
ATOM      7  N   UNL     1       3.565   4.576  19.609  0.00  0.00    +0.000 NA
ATOM      8  H   UNL     1       4.608   1.637  19.310  0.00  0.00    +0.000 HD
ENDROOT
BRANCH   6   9
ATOM      9  C   UNL     1       2.251   6.554  19.849  0.00  0.00    +0.000 A 
ATOM     10  C   UNL     1       1.599   7.466  20.692  0.00  0.00    +0.000 A 
ATOM     11  C   UNL     1       1.281   8.728  20.213  0.00  0.00    +0.000 A 
ATOM     12  N   UNL     1       1.570   9.151  18.966  0.00  0.00    +0.000 NA
ATOM     13  C   UNL     1       2.219   8.279  18.169  0.00  0.00    +0.000 A 
ATOM     14  C   UNL     1       2.578   6.999  18.560  0.00  0.00    +0.000 A 
ENDBRANCH   6   9
BRANCH   1  18
ATOM     15  C   UNL     1       5.202   4.998  16.399  0.00  0.00    +0.000 C 
ATOM     16  C   UNL     1       3.696   4.773  16.550  0.00  0.00    +0.000 C 
ATOM     17  C   UNL     1       3.576   3.382  17.188  0.00  0.00    +0.000 C 
ATOM     18  C   UNL     1       4.954   3.073  17.805  0.00  0.00    +0.000 C 
ATOM     19  C   UNL     1       5.704   4.399  17.714  0.00  0.00    +0.000 C 
BRANCH  15  22
ATOM     20  C   UNL     1       6.717   4.699  14.380  0.00  0.00    +0.000 C 
ATOM     21  O   UNL     1       7.545   5.548  14.691  0.00  0.00    +0.000 OA
ATOM     22  N   UNL     1       5.633   4.352  15.153  0.00  0.00    +0.000 N 
ATOM     23  H   UNL     1       4.893   3.896  14.625  0.00  0.00    +0.000 HD
BRANCH  20  24
ATOM     24  C   UNL     1       6.858   3.874  13.111  0.00  0.00    +0.000 C 
BRANCH  24  26
ATOM     25  C   UNL     1       5.680   2.012  11.443  0.00  0.00    +0.000 C 
ATOM     26  S   UNL     1       5.227   3.496  12.378  0.00  0.00    +0.000 S 
ENDBRANCH  24  26
ENDBRANCH  20  24
ENDBRANCH  15  22
ENDBRANCH   1  18
TORSDOF 5
ENDMDL
