MODEL 1
REMARK VINA RESULT:      -6.1      0.000      0.000
REMARK  Name = 
REMARK  5 active torsions:
REMARK  status: ('A' for Active; 'I' for Inactive)
REMARK    1  A    between atoms: C_2  and  C_3
REMARK    2  A    between atoms: C_3  and  C_4
REMARK    3  A    between atoms: C_4  and  S_5
REMARK    4  A    between atoms: S_5  and  C_6
REMARK    5  A    between atoms: C_6  and  C_7
REMARK                            x       y       z     vdW  Elec       q    Type
REMARK                         _______ _______ _______ _____ _____    ______ ____
ROOT
ATOM      1  N   UNL     1       5.056   2.952  19.500  0.00  0.00    +0.000 NA
ATOM      2  C   UNL     1       3.982   3.093  18.799  0.00  0.00    +0.000 C 
ATOM      3  N   UNL     1       2.826   3.064  19.514  0.00  0.00    +0.000 N 
ATOM      4  C   UNL     1       1.524   3.185  19.091  0.00  0.00    +0.000 C 
ATOM      5  N   UNL     1       0.627   3.174  20.112  0.00  0.00    +0.000 N 
ATOM      6  O   UNL     1       1.137   3.268  17.934  0.00  0.00    +0.000 OA
ATOM      7  H   UNL     1       5.889   3.008  18.903  0.00  0.00    +0.000 HD
ATOM      8  H   UNL     1       2.987   2.986  20.503  0.00  0.00    +0.000 HD
ATOM      9  H   UNL     1       0.883   3.288  21.081  0.00  0.00    +0.000 HD
ATOM     10  H   UNL     1      -0.340   3.326  19.856  0.00  0.00    +0.000 HD
ENDROOT
BRANCH   2  11
ATOM     11  C   UNL     1       4.021   3.300  17.300  0.00  0.00    +0.000 C 
BRANCH  11  12
ATOM     12  C   UNL     1       4.199   4.759  16.880  0.00  0.00    +0.000 C 
BRANCH  12  13
ATOM     13  S   UNL     1       5.351   4.754  15.450  0.00  0.00    +0.000 S 
BRANCH  13  14
ATOM     14  C   UNL     1       6.914   4.255  16.241  0.00  0.00    +0.000 C 
BRANCH  14  15
ATOM     15  C   UNL     1       7.333   5.140  17.361  0.00  0.00    +0.000 A 
ATOM     16  N   UNL     1       7.504   4.670  18.642  0.00  0.00    +0.000 NA
ATOM     17  C   UNL     1       7.865   5.743  19.305  0.00  0.00    +0.000 A 
ATOM     18  N   UNL     1       7.893   6.807  18.470  0.00  0.00    +0.000 N 
ATOM     19  N   UNL     1       7.529   6.461  17.224  0.00  0.00    +0.000 NA
ATOM     20  H   UNL     1       8.131   7.774  18.662  0.00  0.00    +0.000 HD
ENDBRANCH  14  15
ENDBRANCH  13  14
ENDBRANCH  12  13
ENDBRANCH  11  12
ENDBRANCH   2  11
TORSDOF 5
ENDMDL
MODEL 2
REMARK VINA RESULT:      -5.9      1.719      2.038
REMARK  Name = 
REMARK  5 active torsions:
REMARK  status: ('A' for Active; 'I' for Inactive)
REMARK    1  A    between atoms: C_2  and  C_3
REMARK    2  A    between atoms: C_3  and  C_4
REMARK    3  A    between atoms: C_4  and  S_5
REMARK    4  A    between atoms: S_5  and  C_6
REMARK    5  A    between atoms: C_6  and  C_7
REMARK                            x       y       z     vdW  Elec       q    Type
REMARK                         _______ _______ _______ _____ _____    ______ ____
ROOT
ATOM      1  N   UNL     1       4.870   2.015  19.456  0.00  0.00    +0.000 NA
ATOM      2  C   UNL     1       3.615   2.302  19.370  0.00  0.00    +0.000 C 
ATOM      3  N   UNL     1       2.972   2.415  20.563  0.00  0.00    +0.000 N 
ATOM      4  C   UNL     1       1.658   2.709  20.832  0.00  0.00    +0.000 C 
ATOM      5  N   UNL     1       1.392   2.801  22.162  0.00  0.00    +0.000 N 
ATOM      6  O   UNL     1       0.760   2.855  20.015  0.00  0.00    +0.000 OA
ATOM      7  H   UNL     1       5.296   1.970  18.523  0.00  0.00    +0.000 HD
ATOM      8  H   UNL     1       3.593   2.303  21.346  0.00  0.00    +0.000 HD
ATOM      9  H   UNL     1       2.107   2.869  22.870  0.00  0.00    +0.000 HD
ATOM     10  H   UNL     1       0.452   3.081  22.410  0.00  0.00    +0.000 HD
ENDROOT
BRANCH   2  11
ATOM     11  C   UNL     1       2.929   2.521  18.039  0.00  0.00    +0.000 C 
BRANCH  11  12
ATOM     12  C   UNL     1       3.536   3.650  17.207  0.00  0.00    +0.000 C 
BRANCH  12  13
ATOM     13  S   UNL     1       3.003   5.223  17.992  0.00  0.00    +0.000 S 
BRANCH  13  14
ATOM     14  C   UNL     1       4.495   5.686  18.929  0.00  0.00    +0.000 C 
BRANCH  14  15
ATOM     15  C   UNL     1       5.767   5.442  18.199  0.00  0.00    +0.000 A 
ATOM     16  N   UNL     1       6.708   4.544  18.646  0.00  0.00    +0.000 NA
ATOM     17  C   UNL     1       7.653   4.630  17.740  0.00  0.00    +0.000 A 
ATOM     18  N   UNL     1       7.306   5.545  16.805  0.00  0.00    +0.000 N 
ATOM     19  N   UNL     1       6.118   6.106  17.086  0.00  0.00    +0.000 NA
ATOM     20  H   UNL     1       7.809   5.846  15.977  0.00  0.00    +0.000 HD
ENDBRANCH  14  15
ENDBRANCH  13  14
ENDBRANCH  12  13
ENDBRANCH  11  12
ENDBRANCH   2  11
TORSDOF 5
ENDMDL
MODEL 3
REMARK VINA RESULT:      -5.9      2.004      2.526
REMARK  Name = 
REMARK  5 active torsions:
REMARK  status: ('A' for Active; 'I' for Inactive)
REMARK    1  A    between atoms: C_2  and  C_3
REMARK    2  A    between atoms: C_3  and  C_4
REMARK    3  A    between atoms: C_4  and  S_5
REMARK    4  A    between atoms: S_5  and  C_6
REMARK    5  A    between atoms: C_6  and  C_7
REMARK                            x       y       z     vdW  Elec       q    Type
REMARK                         _______ _______ _______ _____ _____    ______ ____
ROOT
ATOM      1  N   UNL     1       3.818   1.371  18.364  0.00  0.00    +0.000 NA
ATOM      2  C   UNL     1       2.865   2.162  18.723  0.00  0.00    +0.000 C 
ATOM      3  N   UNL     1       2.565   2.132  20.048  0.00  0.00    +0.000 N 
ATOM      4  C   UNL     1       1.622   2.837  20.755  0.00  0.00    +0.000 C 
ATOM      5  N   UNL     1       1.660   2.588  22.092  0.00  0.00    +0.000 N 
ATOM      6  O   UNL     1       0.786   3.601  20.296  0.00  0.00    +0.000 OA
ATOM      7  H   UNL     1       4.008   1.462  17.360  0.00  0.00    +0.000 HD
ATOM      8  H   UNL     1       3.175   1.523  20.566  0.00  0.00    +0.000 HD
ATOM      9  H   UNL     1       2.425   2.117  22.550  0.00  0.00    +0.000 HD
ATOM     10  H   UNL     1       1.028   3.133  22.664  0.00  0.00    +0.000 HD
ENDROOT
BRANCH   2  11
ATOM     11  C   UNL     1       2.159   3.069  17.737  0.00  0.00    +0.000 C 
BRANCH  11  12
ATOM     12  C   UNL     1       3.041   4.187  17.183  0.00  0.00    +0.000 C 
BRANCH  12  13
ATOM     13  S   UNL     1       2.708   5.674  18.209  0.00  0.00    +0.000 S 
BRANCH  13  14
ATOM     14  C   UNL     1       4.050   5.577  19.437  0.00  0.00    +0.000 C 
BRANCH  14  15
ATOM     15  C   UNL     1       5.382   5.268  18.853  0.00  0.00    +0.000 A 
ATOM     16  N   UNL     1       6.014   6.120  17.978  0.00  0.00    +0.000 NA
ATOM     17  C   UNL     1       7.133   5.490  17.706  0.00  0.00    +0.000 A 
ATOM     18  N   UNL     1       7.164   4.311  18.370  0.00  0.00    +0.000 N 
ATOM     19  N   UNL     1       6.044   4.124  19.089  0.00  0.00    +0.000 NA
ATOM     20  H   UNL     1       7.880   3.593  18.379  0.00  0.00    +0.000 HD
ENDBRANCH  14  15
ENDBRANCH  13  14
ENDBRANCH  12  13
ENDBRANCH  11  12
ENDBRANCH   2  11
TORSDOF 5
ENDMDL
MODEL 4
REMARK VINA RESULT:      -5.7      2.842      5.416
REMARK  Name = 
REMARK  5 active torsions:
REMARK  status: ('A' for Active; 'I' for Inactive)
REMARK    1  A    between atoms: C_2  and  C_3
REMARK    2  A    between atoms: C_3  and  C_4
REMARK    3  A    between atoms: C_4  and  S_5
REMARK    4  A    between atoms: S_5  and  C_6
REMARK    5  A    between atoms: C_6  and  C_7
REMARK                            x       y       z     vdW  Elec       q    Type
REMARK                         _______ _______ _______ _____ _____    ______ ____
ROOT
ATOM      1  N   UNL     1       5.674   3.616  18.766  0.00  0.00    +0.000 NA
ATOM      2  C   UNL     1       5.594   4.435  17.774  0.00  0.00    +0.000 C 
ATOM      3  N   UNL     1       5.950   3.912  16.571  0.00  0.00    +0.000 N 
ATOM      4  C   UNL     1       5.979   4.496  15.328  0.00  0.00    +0.000 C 
ATOM      5  N   UNL     1       6.329   3.632  14.338  0.00  0.00    +0.000 N 
ATOM      6  O   UNL     1       5.754   5.669  15.067  0.00  0.00    +0.000 OA
ATOM      7  H   UNL     1       5.369   4.068  19.636  0.00  0.00    +0.000 HD
ATOM      8  H   UNL     1       6.178   2.934  16.629  0.00  0.00    +0.000 HD
ATOM      9  H   UNL     1       6.351   2.630  14.455  0.00  0.00    +0.000 HD
ATOM     10  H   UNL     1       6.300   3.999  13.396  0.00  0.00    +0.000 HD
ENDROOT
BRANCH   2  11
ATOM     11  C   UNL     1       5.114   5.861  17.944  0.00  0.00    +0.000 C 
BRANCH  11  12
ATOM     12  C   UNL     1       3.599   6.024  17.821  0.00  0.00    +0.000 C 
BRANCH  12  13
ATOM     13  S   UNL     1       2.941   6.095  19.534  0.00  0.00    +0.000 S 
BRANCH  13  14
ATOM     14  C   UNL     1       1.705   4.758  19.507  0.00  0.00    +0.000 C 
BRANCH  14  15
ATOM     15  C   UNL     1       2.200   3.491  18.904  0.00  0.00    +0.000 A 
ATOM     16  N   UNL     1       1.980   3.172  17.585  0.00  0.00    +0.000 NA
ATOM     17  C   UNL     1       2.562   2.002  17.462  0.00  0.00    +0.000 A 
ATOM     18  N   UNL     1       3.091   1.629  18.650  0.00  0.00    +0.000 N 
ATOM     19  N   UNL     1       2.850   2.546  19.603  0.00  0.00    +0.000 NA
ATOM     20  H   UNL     1       3.604   0.789  18.894  0.00  0.00    +0.000 HD
ENDBRANCH  14  15
ENDBRANCH  13  14
ENDBRANCH  12  13
ENDBRANCH  11  12
ENDBRANCH   2  11
TORSDOF 5
ENDMDL
MODEL 5
REMARK VINA RESULT:      -5.7      2.141      5.488
REMARK  Name = 
REMARK  5 active torsions:
REMARK  status: ('A' for Active; 'I' for Inactive)
REMARK    1  A    between atoms: C_2  and  C_3
REMARK    2  A    between atoms: C_3  and  C_4
REMARK    3  A    between atoms: C_4  and  S_5
REMARK    4  A    between atoms: S_5  and  C_6
REMARK    5  A    between atoms: C_6  and  C_7
REMARK                            x       y       z     vdW  Elec       q    Type
REMARK                         _______ _______ _______ _____ _____    ______ ____
ROOT
ATOM      1  N   UNL     1       7.791   8.285  17.238  0.00  0.00    +0.000 NA
ATOM      2  C   UNL     1       7.334   7.135  17.601  0.00  0.00    +0.000 C 
ATOM      3  N   UNL     1       7.933   6.603  18.699  0.00  0.00    +0.000 N 
ATOM      4  C   UNL     1       7.694   5.415  19.346  0.00  0.00    +0.000 C 
ATOM      5  N   UNL     1       8.454   5.250  20.461  0.00  0.00    +0.000 N 
ATOM      6  O   UNL     1       6.917   4.537  18.998  0.00  0.00    +0.000 OA
ATOM      7  H   UNL     1       7.279   8.637  16.421  0.00  0.00    +0.000 HD
ATOM      8  H   UNL     1       8.620   7.219  19.099  0.00  0.00    +0.000 HD
ATOM      9  H   UNL     1       8.973   5.997  20.897  0.00  0.00    +0.000 HD
ATOM     10  H   UNL     1       8.267   4.420  21.009  0.00  0.00    +0.000 HD
ENDROOT
BRANCH   2  11
ATOM     11  C   UNL     1       6.199   6.452  16.868  0.00  0.00    +0.000 C 
BRANCH  11  12
ATOM     12  C   UNL     1       6.660   5.491  15.771  0.00  0.00    +0.000 C 
BRANCH  12  13
ATOM     13  S   UNL     1       5.331   4.238  15.582  0.00  0.00    +0.000 S 
BRANCH  13  14
ATOM     14  C   UNL     1       4.237   4.652  16.979  0.00  0.00    +0.000 C 
BRANCH  14  15
ATOM     15  C   UNL     1       3.521   3.481  17.552  0.00  0.00    +0.000 A 
ATOM     16  N   UNL     1       4.037   2.743  18.591  0.00  0.00    +0.000 NA
ATOM     17  C   UNL     1       3.120   1.825  18.787  0.00  0.00    +0.000 A 
ATOM     18  N   UNL     1       2.111   1.993  17.901  0.00  0.00    +0.000 N 
ATOM     19  N   UNL     1       2.351   3.026  17.075  0.00  0.00    +0.000 NA
ATOM     20  H   UNL     1       1.256   1.460  17.786  0.00  0.00    +0.000 HD
ENDBRANCH  14  15
ENDBRANCH  13  14
ENDBRANCH  12  13
ENDBRANCH  11  12
ENDBRANCH   2  11
TORSDOF 5
ENDMDL
MODEL 6
REMARK VINA RESULT:      -5.7      1.543      1.833
REMARK  Name = 
REMARK  5 active torsions:
REMARK  status: ('A' for Active; 'I' for Inactive)
REMARK    1  A    between atoms: C_2  and  C_3
REMARK    2  A    between atoms: C_3  and  C_4
REMARK    3  A    between atoms: C_4  and  S_5
REMARK    4  A    between atoms: S_5  and  C_6
REMARK    5  A    between atoms: C_6  and  C_7
REMARK                            x       y       z     vdW  Elec       q    Type
REMARK                         _______ _______ _______ _____ _____    ______ ____
ROOT
ATOM      1  N   UNL     1       5.167   2.605  19.692  0.00  0.00    +0.000 NA
ATOM      2  C   UNL     1       3.895   2.508  19.501  0.00  0.00    +0.000 C 
ATOM      3  N   UNL     1       3.140   2.609  20.626  0.00  0.00    +0.000 N 
ATOM      4  C   UNL     1       1.776   2.554  20.781  0.00  0.00    +0.000 C 
ATOM      5  N   UNL     1       1.374   2.765  22.062  0.00  0.00    +0.000 N 
ATOM      6  O   UNL     1       0.951   2.317  19.910  0.00  0.00    +0.000 OA
ATOM      7  H   UNL     1       5.674   2.544  18.801  0.00  0.00    +0.000 HD
ATOM      8  H   UNL     1       3.692   2.797  21.445  0.00  0.00    +0.000 HD
ATOM      9  H   UNL     1       1.975   3.137  22.781  0.00  0.00    +0.000 HD
ATOM     10  H   UNL     1       0.374   2.799  22.215  0.00  0.00    +0.000 HD
ENDROOT
BRANCH   2  11
ATOM     11  C   UNL     1       3.300   2.321  18.121  0.00  0.00    +0.000 C 
BRANCH  11  12
ATOM     12  C   UNL     1       3.012   3.632  17.389  0.00  0.00    +0.000 C 
BRANCH  12  13
ATOM     13  S   UNL     1       4.618   4.218  16.715  0.00  0.00    +0.000 S 
BRANCH  13  14
ATOM     14  C   UNL     1       4.837   5.789  17.610  0.00  0.00    +0.000 C 
BRANCH  14  15
ATOM     15  C   UNL     1       6.155   5.918  18.288  0.00  0.00    +0.000 A 
ATOM     16  N   UNL     1       7.125   6.786  17.844  0.00  0.00    +0.000 NA
ATOM     17  C   UNL     1       8.106   6.595  18.695  0.00  0.00    +0.000 A 
ATOM     18  N   UNL     1       7.750   5.649  19.594  0.00  0.00    +0.000 N 
ATOM     19  N   UNL     1       6.519   5.172  19.343  0.00  0.00    +0.000 NA
ATOM     20  H   UNL     1       8.273   5.272  20.377  0.00  0.00    +0.000 HD
ENDBRANCH  14  15
ENDBRANCH  13  14
ENDBRANCH  12  13
ENDBRANCH  11  12
ENDBRANCH   2  11
TORSDOF 5
ENDMDL
MODEL 7
REMARK VINA RESULT:      -5.6      2.189      2.789
REMARK  Name = 
REMARK  5 active torsions:
REMARK  status: ('A' for Active; 'I' for Inactive)
REMARK    1  A    between atoms: C_2  and  C_3
REMARK    2  A    between atoms: C_3  and  C_4
REMARK    3  A    between atoms: C_4  and  S_5
REMARK    4  A    between atoms: S_5  and  C_6
REMARK    5  A    between atoms: C_6  and  C_7
REMARK                            x       y       z     vdW  Elec       q    Type
REMARK                         _______ _______ _______ _____ _____    ______ ____
ROOT
ATOM      1  N   UNL     1       2.168   1.972  17.641  0.00  0.00    +0.000 NA
ATOM      2  C   UNL     1       2.019   2.932  18.489  0.00  0.00    +0.000 C 
ATOM      3  N   UNL     1       1.885   2.536  19.783  0.00  0.00    +0.000 N 
ATOM      4  C   UNL     1       1.715   3.285  20.922  0.00  0.00    +0.000 C 
ATOM      5  N   UNL     1       1.686   2.536  22.056  0.00  0.00    +0.000 N 
ATOM      6  O   UNL     1       1.568   4.497  20.983  0.00  0.00    +0.000 OA
ATOM      7  H   UNL     1       2.287   2.342  16.692  0.00  0.00    +0.000 HD
ATOM      8  H   UNL     1       1.973   1.540  19.891  0.00  0.00    +0.000 HD
ATOM      9  H   UNL     1       1.976   1.570  22.094  0.00  0.00    +0.000 HD
ATOM     10  H   UNL     1       1.629   3.048  22.926  0.00  0.00    +0.000 HD
ENDROOT
BRANCH   2  11
ATOM     11  C   UNL     1       2.020   4.386  18.067  0.00  0.00    +0.000 C 
BRANCH  11  12
ATOM     12  C   UNL     1       3.331   4.844  17.428  0.00  0.00    +0.000 C 
BRANCH  12  13
ATOM     13  S   UNL     1       4.490   5.198  18.808  0.00  0.00    +0.000 S 
BRANCH  13  14
ATOM     14  C   UNL     1       6.045   4.498  18.168  0.00  0.00    +0.000 C 
BRANCH  14  15
ATOM     15  C   UNL     1       6.269   4.751  16.719  0.00  0.00    +0.000 A 
ATOM     16  N   UNL     1       6.175   3.753  15.778  0.00  0.00    +0.000 NA
ATOM     17  C   UNL     1       6.439   4.379  14.655  0.00  0.00    +0.000 A 
ATOM     18  N   UNL     1       6.696   5.683  14.910  0.00  0.00    +0.000 N 
ATOM     19  N   UNL     1       6.626   5.948  16.225  0.00  0.00    +0.000 NA
ATOM     20  H   UNL     1       6.931   6.433  14.269  0.00  0.00    +0.000 HD
ENDBRANCH  14  15
ENDBRANCH  13  14
ENDBRANCH  12  13
ENDBRANCH  11  12
ENDBRANCH   2  11
TORSDOF 5
ENDMDL
MODEL 8
REMARK VINA RESULT:      -5.6      2.413      5.545
REMARK  Name = 
REMARK  5 active torsions:
REMARK  status: ('A' for Active; 'I' for Inactive)
REMARK    1  A    between atoms: C_2  and  C_3
REMARK    2  A    between atoms: C_3  and  C_4
REMARK    3  A    between atoms: C_4  and  S_5
REMARK    4  A    between atoms: S_5  and  C_6
REMARK    5  A    between atoms: C_6  and  C_7
REMARK                            x       y       z     vdW  Elec       q    Type
REMARK                         _______ _______ _______ _____ _____    ______ ____
ROOT
ATOM      1  N   UNL     1       5.597   3.559  19.261  0.00  0.00    +0.000 NA
ATOM      2  C   UNL     1       5.496   4.489  18.374  0.00  0.00    +0.000 C 
ATOM      3  N   UNL     1       6.423   4.436  17.381  0.00  0.00    +0.000 N 
ATOM      4  C   UNL     1       6.599   5.256  16.294  0.00  0.00    +0.000 C 
ATOM      5  N   UNL     1       7.602   4.847  15.472  0.00  0.00    +0.000 N 
ATOM      6  O   UNL     1       5.978   6.278  16.042  0.00  0.00    +0.000 OA
ATOM      7  H   UNL     1       4.854   3.645  19.964  0.00  0.00    +0.000 HD
ATOM      8  H   UNL     1       7.028   3.637  17.463  0.00  0.00    +0.000 HD
ATOM      9  H   UNL     1       8.027   3.933  15.523  0.00  0.00    +0.000 HD
ATOM     10  H   UNL     1       7.728   5.381  14.622  0.00  0.00    +0.000 HD
ENDROOT
BRANCH   2  11
ATOM     11  C   UNL     1       4.407   5.540  18.430  0.00  0.00    +0.000 C 
BRANCH  11  12
ATOM     12  C   UNL     1       3.000   4.987  18.203  0.00  0.00    +0.000 C 
BRANCH  12  13
ATOM     13  S   UNL     1       3.179   3.555  17.067  0.00  0.00    +0.000 S 
BRANCH  13  14
ATOM     14  C   UNL     1       2.280   2.255  17.974  0.00  0.00    +0.000 C 
BRANCH  14  15
ATOM     15  C   UNL     1       2.000   2.595  19.395  0.00  0.00    +0.000 A 
ATOM     16  N   UNL     1       2.968   2.523  20.369  0.00  0.00    +0.000 NA
ATOM     17  C   UNL     1       2.326   2.892  21.453  0.00  0.00    +0.000 A 
ATOM     18  N   UNL     1       1.034   3.155  21.148  0.00  0.00    +0.000 N 
ATOM     19  N   UNL     1       0.785   2.945  19.845  0.00  0.00    +0.000 NA
ATOM     20  H   UNL     1       0.277   3.461  21.750  0.00  0.00    +0.000 HD
ENDBRANCH  14  15
ENDBRANCH  13  14
ENDBRANCH  12  13
ENDBRANCH  11  12
ENDBRANCH   2  11
TORSDOF 5
ENDMDL
MODEL 9
REMARK VINA RESULT:      -5.6      2.388      3.043
REMARK  Name = 
REMARK  5 active torsions:
REMARK  status: ('A' for Active; 'I' for Inactive)
REMARK    1  A    between atoms: C_2  and  C_3
REMARK    2  A    between atoms: C_3  and  C_4
REMARK    3  A    between atoms: C_4  and  S_5
REMARK    4  A    between atoms: S_5  and  C_6
REMARK    5  A    between atoms: C_6  and  C_7
REMARK                            x       y       z     vdW  Elec       q    Type
REMARK                         _______ _______ _______ _____ _____    ______ ____
ROOT
ATOM      1  N   UNL     1       5.173   3.194  19.321  0.00  0.00    +0.000 NA
ATOM      2  C   UNL     1       4.108   3.807  19.711  0.00  0.00    +0.000 C 
ATOM      3  N   UNL     1       3.312   3.092  20.550  0.00  0.00    +0.000 N 
ATOM      4  C   UNL     1       2.124   3.437  21.146  0.00  0.00    +0.000 C 
ATOM      5  N   UNL     1       1.647   2.477  21.983  0.00  0.00    +0.000 N 
ATOM      6  O   UNL     1       1.490   4.467  20.969  0.00  0.00    +0.000 OA
ATOM      7  H   UNL     1       5.738   3.798  18.713  0.00  0.00    +0.000 HD
ATOM      8  H   UNL     1       3.705   2.196  20.781  0.00  0.00    +0.000 HD
ATOM      9  H   UNL     1       2.197   1.696  22.307  0.00  0.00    +0.000 HD
ATOM     10  H   UNL     1       0.807   2.711  22.497  0.00  0.00    +0.000 HD
ENDROOT
BRANCH   2  11
ATOM     11  C   UNL     1       3.792   5.224  19.283  0.00  0.00    +0.000 C 
BRANCH  11  12
ATOM     12  C   UNL     1       3.274   5.337  17.849  0.00  0.00    +0.000 C 
BRANCH  12  13
ATOM     13  S   UNL     1       4.657   6.009  16.844  0.00  0.00    +0.000 S 
BRANCH  13  14
ATOM     14  C   UNL     1       5.243   4.514  15.984  0.00  0.00    +0.000 C 
BRANCH  14  15
ATOM     15  C   UNL     1       6.288   4.778  14.959  0.00  0.00    +0.000 A 
ATOM     16  N   UNL     1       6.295   4.144  13.739  0.00  0.00    +0.000 NA
ATOM     17  C   UNL     1       7.355   4.645  13.150  0.00  0.00    +0.000 A 
ATOM     18  N   UNL     1       7.964   5.523  13.980  0.00  0.00    +0.000 N 
ATOM     19  N   UNL     1       7.324   5.609  15.158  0.00  0.00    +0.000 NA
ATOM     20  H   UNL     1       8.799   6.080  13.832  0.00  0.00    +0.000 HD
ENDBRANCH  14  15
ENDBRANCH  13  14
ENDBRANCH  12  13
ENDBRANCH  11  12
ENDBRANCH   2  11
TORSDOF 5
ENDMDL
