MODEL 1
REMARK VINA RESULT:      -8.1      0.000      0.000
REMARK  Name = 
REMARK  8 active torsions:
REMARK  status: ('A' for Active; 'I' for Inactive)
REMARK    1  A    between atoms: C_1  and  C_2
REMARK    2  A    between atoms: C_2  and  C_3
REMARK    3  A    between atoms: C_2  and  N_4
REMARK    4  A    between atoms: N_4  and  C_5
REMARK    5  A    between atoms: C_7  and  C_8
REMARK    6  A    between atoms: C_11  and  C_12
REMARK    7  A    between atoms: C_12  and  N_13
REMARK    8  A    between atoms: N_22  and  C_23
REMARK                            x       y       z     vdW  Elec       q    Type
REMARK                         _______ _______ _______ _____ _____    ______ ____
ROOT
ATOM      1  C   UNL     1       2.789   5.316  19.320  0.00  0.00    +0.000 A 
ATOM      2  N   UNL     1       2.063   6.347  19.814  0.00  0.00    +0.000 NA
ATOM      3  C   UNL     1       2.157   7.582  19.259  0.00  0.00    +0.000 A 
ATOM      4  C   UNL     1       2.960   7.816  18.154  0.00  0.00    +0.000 A 
ATOM      5  C   UNL     1       3.704   6.772  17.627  0.00  0.00    +0.000 A 
ATOM      6  N   UNL     1       4.510   7.047  16.509  0.00  0.00    +0.000 NA
ATOM      7  C   UNL     1       5.204   6.079  16.017  0.00  0.00    +0.000 A 
ATOM      8  N   UNL     1       5.210   4.799  16.508  0.00  0.00    +0.000 N 
ATOM      9  C   UNL     1       5.992   3.772  15.850  0.00  0.00    +0.000 C 
ATOM     10  C   UNL     1       4.414   4.432  17.586  0.00  0.00    +0.000 A 
ATOM     11  O   UNL     1       4.313   3.270  17.978  0.00  0.00    +0.000 OA
ATOM     12  C   UNL     1       3.632   5.514  18.219  0.00  0.00    +0.000 A 
ENDROOT
BRANCH   3  13
ATOM     13  C   UNL     1       1.402   8.644  19.941  0.00  0.00    +0.000 A 
ATOM     14  C   UNL     1       0.941   8.529  21.257  0.00  0.00    +0.000 A 
ATOM     15  C   UNL     1       0.154   9.534  21.826  0.00  0.00    +0.000 A 
ATOM     16  C   UNL     1      -0.181  10.661  21.078  0.00  0.00    +0.000 A 
ATOM     17  N   UNL     1       0.285  10.812  19.812  0.00  0.00    +0.000 NA
ATOM     18  C   UNL     1       1.048   9.820  19.285  0.00  0.00    +0.000 A 
BRANCH  16  19
ATOM     19  C   UNL     1      -1.202  11.670  21.595  0.00  0.00    +0.000 C 
ATOM     20  C   UNL     1      -1.728  11.585  23.008  0.00  0.00    +0.000 C 
ATOM     21  C   UNL     1      -0.760  12.669  22.640  0.00  0.00    +0.000 C 
BRANCH  19  22
ATOM     22  N   UNL     1      -2.126  12.168  20.552  0.00  0.00    +0.000 NA
ATOM     23  H   UNL     1      -1.948  13.159  20.391  0.00  0.00    +0.000 HD
ATOM     24  H   UNL     1      -3.069  12.141  20.947  0.00  0.00    +0.000 HD
ENDBRANCH  19  22
ENDBRANCH  16  19
ENDBRANCH   3  13
BRANCH   1  25
ATOM     25  N   UNL     1       2.765   4.097  20.016  0.00  0.00    +0.000 N 
ATOM     26  H   UNL     1       3.368   3.421  19.536  0.00  0.00    +0.000 HD
BRANCH  25  28
ATOM     27  C   UNL     1       0.942   2.719  19.181  0.00  0.00    +0.000 C 
ATOM     28  C   UNL     1       1.451   3.549  20.365  0.00  0.00    +0.000 C 
ATOM     29  C   UNL     1       1.543   2.660  21.604  0.00  0.00    +0.000 C 
ENDBRANCH  25  28
ENDBRANCH   1  25
TORSDOF 5
ENDMDL
MODEL 2
REMARK VINA RESULT:      -7.8      0.868      1.185
REMARK  Name = 
REMARK  8 active torsions:
REMARK  status: ('A' for Active; 'I' for Inactive)
REMARK    1  A    between atoms: C_1  and  C_2
REMARK    2  A    between atoms: C_2  and  C_3
REMARK    3  A    between atoms: C_2  and  N_4
REMARK    4  A    between atoms: N_4  and  C_5
REMARK    5  A    between atoms: C_7  and  C_8
REMARK    6  A    between atoms: C_11  and  C_12
REMARK    7  A    between atoms: C_12  and  N_13
REMARK    8  A    between atoms: N_22  and  C_23
REMARK                            x       y       z     vdW  Elec       q    Type
REMARK                         _______ _______ _______ _____ _____    ______ ____
ROOT
ATOM      1  C   UNL     1       2.869   5.415  19.331  0.00  0.00    +0.000 A 
ATOM      2  N   UNL     1       2.105   6.444  19.766  0.00  0.00    +0.000 NA
ATOM      3  C   UNL     1       2.162   7.651  19.148  0.00  0.00    +0.000 A 
ATOM      4  C   UNL     1       2.966   7.855  18.039  0.00  0.00    +0.000 A 
ATOM      5  C   UNL     1       3.751   6.812  17.572  0.00  0.00    +0.000 A 
ATOM      6  N   UNL     1       4.557   7.056  16.448  0.00  0.00    +0.000 NA
ATOM      7  C   UNL     1       5.288   6.088  16.012  0.00  0.00    +0.000 A 
ATOM      8  N   UNL     1       5.333   4.836  16.569  0.00  0.00    +0.000 N 
ATOM      9  C   UNL     1       6.155   3.804  15.971  0.00  0.00    +0.000 C 
ATOM     10  C   UNL     1       4.540   4.498  17.659  0.00  0.00    +0.000 A 
ATOM     11  O   UNL     1       4.474   3.355  18.110  0.00  0.00    +0.000 OA
ATOM     12  C   UNL     1       3.715   5.585  18.228  0.00  0.00    +0.000 A 
ENDROOT
BRANCH   3  13
ATOM     13  C   UNL     1       1.366   8.721  19.768  0.00  0.00    +0.000 A 
ATOM     14  C   UNL     1       0.709   9.712  19.029  0.00  0.00    +0.000 A 
ATOM     15  C   UNL     1       0.039  10.754  19.673  0.00  0.00    +0.000 A 
ATOM     16  C   UNL     1       0.024  10.815  21.066  0.00  0.00    +0.000 A 
ATOM     17  N   UNL     1       0.622   9.847  21.805  0.00  0.00    +0.000 NA
ATOM     18  C   UNL     1       1.267   8.845  21.151  0.00  0.00    +0.000 A 
BRANCH  16  19
ATOM     19  C   UNL     1      -0.517  12.044  21.792  0.00  0.00    +0.000 C 
ATOM     20  C   UNL     1      -1.975  12.423  21.690  0.00  0.00    +0.000 C 
ATOM     21  C   UNL     1      -1.449  11.833  22.963  0.00  0.00    +0.000 C 
BRANCH  19  22
ATOM     22  N   UNL     1       0.467  13.142  21.916  0.00  0.00    +0.000 NA
ATOM     23  H   UNL     1       0.882  13.116  22.846  0.00  0.00    +0.000 HD
ATOM     24  H   UNL     1      -0.058  14.020  21.896  0.00  0.00    +0.000 HD
ENDBRANCH  19  22
ENDBRANCH  16  19
ENDBRANCH   3  13
BRANCH   1  25
ATOM     25  N   UNL     1       2.880   4.234  20.090  0.00  0.00    +0.000 N 
ATOM     26  H   UNL     1       3.513   3.556  19.653  0.00  0.00    +0.000 HD
BRANCH  25  28
ATOM     27  C   UNL     1       1.015   2.931  19.228  0.00  0.00    +0.000 C 
ATOM     28  C   UNL     1       1.582   3.657  20.453  0.00  0.00    +0.000 C 
ATOM     29  C   UNL     1       1.730   2.665  21.606  0.00  0.00    +0.000 C 
ENDBRANCH  25  28
ENDBRANCH   1  25
TORSDOF 5
ENDMDL
MODEL 3
REMARK VINA RESULT:      -7.6      3.048      8.482
REMARK  Name = 
REMARK  8 active torsions:
REMARK  status: ('A' for Active; 'I' for Inactive)
REMARK    1  A    between atoms: C_1  and  C_2
REMARK    2  A    between atoms: C_2  and  C_3
REMARK    3  A    between atoms: C_2  and  N_4
REMARK    4  A    between atoms: N_4  and  C_5
REMARK    5  A    between atoms: C_7  and  C_8
REMARK    6  A    between atoms: C_11  and  C_12
REMARK    7  A    between atoms: C_12  and  N_13
REMARK    8  A    between atoms: N_22  and  C_23
REMARK                            x       y       z     vdW  Elec       q    Type
REMARK                         _______ _______ _______ _____ _____    ______ ____
ROOT
ATOM      1  C   UNL     1      -0.512  10.389  18.612  0.00  0.00    +0.000 A 
ATOM      2  N   UNL     1       0.378   9.393  18.393  0.00  0.00    +0.000 NA
ATOM      3  C   UNL     1       1.163   8.938  19.403  0.00  0.00    +0.000 A 
ATOM      4  C   UNL     1       1.051   9.446  20.687  0.00  0.00    +0.000 A 
ATOM      5  C   UNL     1       0.139  10.460  20.935  0.00  0.00    +0.000 A 
ATOM      6  N   UNL     1       0.055  10.953  22.248  0.00  0.00    +0.000 NA
ATOM      7  C   UNL     1      -0.791  11.896  22.482  0.00  0.00    +0.000 A 
ATOM      8  N   UNL     1      -1.617  12.452  21.539  0.00  0.00    +0.000 N 
ATOM      9  C   UNL     1      -2.567  13.477  21.918  0.00  0.00    +0.000 C 
ATOM     10  C   UNL     1      -1.625  11.998  20.225  0.00  0.00    +0.000 A 
ATOM     11  O   UNL     1      -2.431  12.398  19.385  0.00  0.00    +0.000 OA
ATOM     12  C   UNL     1      -0.642  10.947  19.890  0.00  0.00    +0.000 A 
ENDROOT
BRANCH   3  13
ATOM     13  C   UNL     1       2.162   7.927  19.025  0.00  0.00    +0.000 A 
ATOM     14  C   UNL     1       2.921   8.004  17.851  0.00  0.00    +0.000 A 
ATOM     15  C   UNL     1       3.793   6.971  17.499  0.00  0.00    +0.000 A 
ATOM     16  C   UNL     1       3.910   5.850  18.318  0.00  0.00    +0.000 A 
ATOM     17  N   UNL     1       3.212   5.769  19.480  0.00  0.00    +0.000 NA
ATOM     18  C   UNL     1       2.371   6.788  19.797  0.00  0.00    +0.000 A 
BRANCH  16  19
ATOM     19  C   UNL     1       4.691   4.621  17.860  0.00  0.00    +0.000 C 
ATOM     20  C   UNL     1       4.048   3.581  16.975  0.00  0.00    +0.000 C 
ATOM     21  C   UNL     1       5.071   4.515  16.401  0.00  0.00    +0.000 C 
BRANCH  19  22
ATOM     22  N   UNL     1       5.695   4.156  18.843  0.00  0.00    +0.000 NA
ATOM     23  H   UNL     1       6.567   3.947  18.358  0.00  0.00    +0.000 HD
ATOM     24  H   UNL     1       5.375   3.249  19.192  0.00  0.00    +0.000 HD
ENDBRANCH  19  22
ENDBRANCH  16  19
ENDBRANCH   3  13
BRANCH   1  25
ATOM     25  N   UNL     1      -1.196  10.919  17.507  0.00  0.00    +0.000 N 
ATOM     26  H   UNL     1      -1.654  11.795  17.780  0.00  0.00    +0.000 HD
BRANCH  25  28
ATOM     27  C   UNL     1      -3.204   9.560  17.706  0.00  0.00    +0.000 C 
ATOM     28  C   UNL     1      -2.082  10.014  16.768  0.00  0.00    +0.000 C 
ATOM     29  C   UNL     1      -2.689  10.716  15.554  0.00  0.00    +0.000 C 
ENDBRANCH  25  28
ENDBRANCH   1  25
TORSDOF 5
ENDMDL
MODEL 4
REMARK VINA RESULT:      -7.5      1.130      1.320
REMARK  Name = 
REMARK  8 active torsions:
REMARK  status: ('A' for Active; 'I' for Inactive)
REMARK    1  A    between atoms: C_1  and  C_2
REMARK    2  A    between atoms: C_2  and  C_3
REMARK    3  A    between atoms: C_2  and  N_4
REMARK    4  A    between atoms: N_4  and  C_5
REMARK    5  A    between atoms: C_7  and  C_8
REMARK    6  A    between atoms: C_11  and  C_12
REMARK    7  A    between atoms: C_12  and  N_13
REMARK    8  A    between atoms: N_22  and  C_23
REMARK                            x       y       z     vdW  Elec       q    Type
REMARK                         _______ _______ _______ _____ _____    ______ ____
ROOT
ATOM      1  C   UNL     1       2.805   4.932  18.689  0.00  0.00    +0.000 A 
ATOM      2  N   UNL     1       2.178   5.944  19.334  0.00  0.00    +0.000 NA
ATOM      3  C   UNL     1       2.437   7.235  19.002  0.00  0.00    +0.000 A 
ATOM      4  C   UNL     1       3.312   7.553  17.976  0.00  0.00    +0.000 A 
ATOM      5  C   UNL     1       3.958   6.531  17.298  0.00  0.00    +0.000 A 
ATOM      6  N   UNL     1       4.842   6.892  16.267  0.00  0.00    +0.000 NA
ATOM      7  C   UNL     1       5.445   5.944  15.635  0.00  0.00    +0.000 A 
ATOM      8  N   UNL     1       5.284   4.608  15.897  0.00  0.00    +0.000 N 
ATOM      9  C   UNL     1       5.975   3.621  15.094  0.00  0.00    +0.000 C 
ATOM     10  C   UNL     1       4.401   4.164  16.875  0.00  0.00    +0.000 A 
ATOM     11  O   UNL     1       4.151   2.973  17.057  0.00  0.00    +0.000 OA
ATOM     12  C   UNL     1       3.716   5.210  17.662  0.00  0.00    +0.000 A 
ENDROOT
BRANCH   3  13
ATOM     13  C   UNL     1       1.776   8.250  19.836  0.00  0.00    +0.000 A 
ATOM     14  C   UNL     1       1.451   8.041  21.181  0.00  0.00    +0.000 A 
ATOM     15  C   UNL     1       0.745   9.007  21.901  0.00  0.00    +0.000 A 
ATOM     16  C   UNL     1       0.354  10.191  21.278  0.00  0.00    +0.000 A 
ATOM     17  N   UNL     1       0.689  10.432  19.985  0.00  0.00    +0.000 NA
ATOM     18  C   UNL     1       1.376   9.475  19.308  0.00  0.00    +0.000 A 
BRANCH  16  19
ATOM     19  C   UNL     1      -0.591  11.168  21.972  0.00  0.00    +0.000 C 
ATOM     20  C   UNL     1      -0.471  12.655  21.744  0.00  0.00    +0.000 C 
ATOM     21  C   UNL     1      -1.612  11.900  21.132  0.00  0.00    +0.000 C 
BRANCH  19  22
ATOM     22  N   UNL     1      -1.034  10.716  23.309  0.00  0.00    +0.000 NA
ATOM     23  H   UNL     1      -1.409  11.511  23.825  0.00  0.00    +0.000 HD
ATOM     24  H   UNL     1      -0.195  10.450  23.830  0.00  0.00    +0.000 HD
ENDBRANCH  19  22
ENDBRANCH  16  19
ENDBRANCH   3  13
BRANCH   1  25
ATOM     25  N   UNL     1       2.611   3.626  19.164  0.00  0.00    +0.000 N 
ATOM     26  H   UNL     1       1.630   3.357  19.029  0.00  0.00    +0.000 HD
BRANCH  25  28
ATOM     27  C   UNL     1       1.941   2.803  21.354  0.00  0.00    +0.000 C 
ATOM     28  C   UNL     1       3.110   3.319  20.509  0.00  0.00    +0.000 C 
ATOM     29  C   UNL     1       4.205   2.255  20.454  0.00  0.00    +0.000 C 
ENDBRANCH  25  28
ENDBRANCH   1  25
TORSDOF 5
ENDMDL
MODEL 5
REMARK VINA RESULT:      -7.5      3.082      8.407
REMARK  Name = 
REMARK  8 active torsions:
REMARK  status: ('A' for Active; 'I' for Inactive)
REMARK    1  A    between atoms: C_1  and  C_2
REMARK    2  A    between atoms: C_2  and  C_3
REMARK    3  A    between atoms: C_2  and  N_4
REMARK    4  A    between atoms: N_4  and  C_5
REMARK    5  A    between atoms: C_7  and  C_8
REMARK    6  A    between atoms: C_11  and  C_12
REMARK    7  A    between atoms: C_12  and  N_13
REMARK    8  A    between atoms: N_22  and  C_23
REMARK                            x       y       z     vdW  Elec       q    Type
REMARK                         _______ _______ _______ _____ _____    ______ ____
ROOT
ATOM      1  C   UNL     1      -0.533  10.380  18.650  0.00  0.00    +0.000 A 
ATOM      2  N   UNL     1       0.354   9.391  18.388  0.00  0.00    +0.000 NA
ATOM      3  C   UNL     1       1.139   8.893  19.377  0.00  0.00    +0.000 A 
ATOM      4  C   UNL     1       1.031   9.348  20.680  0.00  0.00    +0.000 A 
ATOM      5  C   UNL     1       0.123  10.354  20.972  0.00  0.00    +0.000 A 
ATOM      6  N   UNL     1       0.043  10.794  22.304  0.00  0.00    +0.000 NA
ATOM      7  C   UNL     1      -0.799  11.730  22.578  0.00  0.00    +0.000 A 
ATOM      8  N   UNL     1      -1.625  12.326  21.660  0.00  0.00    +0.000 N 
ATOM      9  C   UNL     1      -2.571  13.338  22.083  0.00  0.00    +0.000 C 
ATOM     10  C   UNL     1      -1.637  11.926  20.329  0.00  0.00    +0.000 A 
ATOM     11  O   UNL     1      -2.443  12.362  19.507  0.00  0.00    +0.000 OA
ATOM     12  C   UNL     1      -0.658  10.887  19.950  0.00  0.00    +0.000 A 
ENDROOT
BRANCH   3  13
ATOM     13  C   UNL     1       2.134   7.895  18.956  0.00  0.00    +0.000 A 
ATOM     14  C   UNL     1       2.426   6.746  19.700  0.00  0.00    +0.000 A 
ATOM     15  C   UNL     1       3.442   5.877  19.297  0.00  0.00    +0.000 A 
ATOM     16  C   UNL     1       4.178   6.153  18.146  0.00  0.00    +0.000 A 
ATOM     17  N   UNL     1       3.889   7.241  17.388  0.00  0.00    +0.000 NA
ATOM     18  C   UNL     1       2.896   8.070  17.804  0.00  0.00    +0.000 A 
BRANCH  16  19
ATOM     19  C   UNL     1       5.422   5.341  17.795  0.00  0.00    +0.000 C 
ATOM     20  C   UNL     1       6.453   5.879  16.833  0.00  0.00    +0.000 C 
ATOM     21  C   UNL     1       6.762   5.826  18.299  0.00  0.00    +0.000 C 
BRANCH  19  22
ATOM     22  N   UNL     1       5.198   3.878  17.808  0.00  0.00    +0.000 NA
ATOM     23  H   UNL     1       6.046   3.412  18.128  0.00  0.00    +0.000 HD
ATOM     24  H   UNL     1       5.097   3.581  16.835  0.00  0.00    +0.000 HD
ENDBRANCH  19  22
ENDBRANCH  16  19
ENDBRANCH   3  13
BRANCH   1  25
ATOM     25  N   UNL     1      -1.217  10.958  17.568  0.00  0.00    +0.000 N 
ATOM     26  H   UNL     1      -1.680  11.818  17.880  0.00  0.00    +0.000 HD
BRANCH  25  28
ATOM     27  C   UNL     1      -3.200   9.555  17.707  0.00  0.00    +0.000 C 
ATOM     28  C   UNL     1      -2.096  10.083  16.785  0.00  0.00    +0.000 C 
ATOM     29  C   UNL     1      -2.728  10.846  15.622  0.00  0.00    +0.000 C 
ENDBRANCH  25  28
ENDBRANCH   1  25
TORSDOF 5
ENDMDL
MODEL 6
REMARK VINA RESULT:      -7.2      3.288      8.764
REMARK  Name = 
REMARK  8 active torsions:
REMARK  status: ('A' for Active; 'I' for Inactive)
REMARK    1  A    between atoms: C_1  and  C_2
REMARK    2  A    between atoms: C_2  and  C_3
REMARK    3  A    between atoms: C_2  and  N_4
REMARK    4  A    between atoms: N_4  and  C_5
REMARK    5  A    between atoms: C_7  and  C_8
REMARK    6  A    between atoms: C_11  and  C_12
REMARK    7  A    between atoms: C_12  and  N_13
REMARK    8  A    between atoms: N_22  and  C_23
REMARK                            x       y       z     vdW  Elec       q    Type
REMARK                         _______ _______ _______ _____ _____    ______ ____
ROOT
ATOM      1  C   UNL     1      -1.303  11.084  19.126  0.00  0.00    +0.000 A 
ATOM      2  N   UNL     1      -0.388  10.145  18.790  0.00  0.00    +0.000 NA
ATOM      3  C   UNL     1       0.518   9.710  19.703  0.00  0.00    +0.000 A 
ATOM      4  C   UNL     1       0.509  10.180  21.006  0.00  0.00    +0.000 A 
ATOM      5  C   UNL     1      -0.425  11.135  21.373  0.00  0.00    +0.000 A 
ATOM      6  N   UNL     1      -0.402  11.592  22.702  0.00  0.00    +0.000 NA
ATOM      7  C   UNL     1      -1.269  12.481  23.047  0.00  0.00    +0.000 A 
ATOM      8  N   UNL     1      -2.214  13.012  22.207  0.00  0.00    +0.000 N 
ATOM      9  C   UNL     1      -3.174  13.973  22.709  0.00  0.00    +0.000 C 
ATOM     10  C   UNL     1      -2.331  12.590  20.888  0.00  0.00    +0.000 A 
ATOM     11  O   UNL     1      -3.237  12.964  20.144  0.00  0.00    +0.000 OA
ATOM     12  C   UNL     1      -1.332  11.603  20.426  0.00  0.00    +0.000 A 
ENDROOT
BRANCH   3  13
ATOM     13  C   UNL     1       1.526   8.766  19.197  0.00  0.00    +0.000 A 
ATOM     14  C   UNL     1       2.125   8.888  17.939  0.00  0.00    +0.000 A 
ATOM     15  C   UNL     1       3.012   7.914  17.475  0.00  0.00    +0.000 A 
ATOM     16  C   UNL     1       3.303   6.805  18.267  0.00  0.00    +0.000 A 
ATOM     17  N   UNL     1       2.763   6.682  19.506  0.00  0.00    +0.000 NA
ATOM     18  C   UNL     1       1.904   7.645  19.932  0.00  0.00    +0.000 A 
BRANCH  16  19
ATOM     19  C   UNL     1       4.100   5.629  17.709  0.00  0.00    +0.000 C 
ATOM     20  C   UNL     1       4.964   5.792  16.482  0.00  0.00    +0.000 C 
ATOM     21  C   UNL     1       5.606   5.659  17.830  0.00  0.00    +0.000 C 
BRANCH  19  22
ATOM     22  N   UNL     1       3.444   4.318  17.913  0.00  0.00    +0.000 NA
ATOM     23  H   UNL     1       2.540   4.318  17.442  0.00  0.00    +0.000 HD
ATOM     24  H   UNL     1       3.212   4.249  18.907  0.00  0.00    +0.000 HD
ENDBRANCH  19  22
ENDBRANCH  16  19
ENDBRANCH   3  13
BRANCH   1  25
ATOM     25  N   UNL     1      -2.122  11.602  18.110  0.00  0.00    +0.000 N 
ATOM     26  H   UNL     1      -2.688  12.369  18.489  0.00  0.00    +0.000 HD
BRANCH  25  28
ATOM     27  C   UNL     1      -4.389  10.841  17.660  0.00  0.00    +0.000 C 
ATOM     28  C   UNL     1      -2.907  10.643  17.326  0.00  0.00    +0.000 C 
ATOM     29  C   UNL     1      -2.692  10.858  15.829  0.00  0.00    +0.000 C 
ENDBRANCH  25  28
ENDBRANCH   1  25
TORSDOF 5
ENDMDL
MODEL 7
REMARK VINA RESULT:      -7.1      3.442      9.020
REMARK  Name = 
REMARK  8 active torsions:
REMARK  status: ('A' for Active; 'I' for Inactive)
REMARK    1  A    between atoms: C_1  and  C_2
REMARK    2  A    between atoms: C_2  and  C_3
REMARK    3  A    between atoms: C_2  and  N_4
REMARK    4  A    between atoms: N_4  and  C_5
REMARK    5  A    between atoms: C_7  and  C_8
REMARK    6  A    between atoms: C_11  and  C_12
REMARK    7  A    between atoms: C_12  and  N_13
REMARK    8  A    between atoms: N_22  and  C_23
REMARK                            x       y       z     vdW  Elec       q    Type
REMARK                         _______ _______ _______ _____ _____    ______ ____
ROOT
ATOM      1  C   UNL     1      -1.777  11.689  19.459  0.00  0.00    +0.000 A 
ATOM      2  N   UNL     1      -0.908  10.706  19.125  0.00  0.00    +0.000 NA
ATOM      3  C   UNL     1       0.049  10.309  20.003  0.00  0.00    +0.000 A 
ATOM      4  C   UNL     1       0.139  10.863  21.269  0.00  0.00    +0.000 A 
ATOM      5  C   UNL     1      -0.747  11.864  21.634  0.00  0.00    +0.000 A 
ATOM      6  N   UNL     1      -0.624  12.406  22.925  0.00  0.00    +0.000 NA
ATOM      7  C   UNL     1      -1.446  13.337  23.266  0.00  0.00    +0.000 A 
ATOM      8  N   UNL     1      -2.434  13.837  22.458  0.00  0.00    +0.000 N 
ATOM      9  C   UNL     1      -3.336  14.854  22.957  0.00  0.00    +0.000 C 
ATOM     10  C   UNL     1      -2.650  13.333  21.181  0.00  0.00    +0.000 A 
ATOM     11  O   UNL     1      -3.596  13.682  20.476  0.00  0.00    +0.000 OA
ATOM     12  C   UNL     1      -1.706  12.293  20.720  0.00  0.00    +0.000 A 
ENDROOT
BRANCH   3  13
ATOM     13  C   UNL     1       0.999   9.308  19.496  0.00  0.00    +0.000 A 
ATOM     14  C   UNL     1       1.463   9.293  18.175  0.00  0.00    +0.000 A 
ATOM     15  C   UNL     1       2.297   8.268  17.725  0.00  0.00    +0.000 A 
ATOM     16  C   UNL     1       2.671   7.244  18.594  0.00  0.00    +0.000 A 
ATOM     17  N   UNL     1       2.264   7.255  19.889  0.00  0.00    +0.000 NA
ATOM     18  C   UNL     1       1.453   8.265  20.299  0.00  0.00    +0.000 A 
BRANCH  16  19
ATOM     19  C   UNL     1       3.406   6.009  18.081  0.00  0.00    +0.000 C 
ATOM     20  C   UNL     1       3.545   4.777  18.942  0.00  0.00    +0.000 C 
ATOM     21  C   UNL     1       2.599   4.767  17.779  0.00  0.00    +0.000 C 
BRANCH  19  22
ATOM     22  N   UNL     1       4.515   6.321  17.151  0.00  0.00    +0.000 NA
ATOM     23  H   UNL     1       4.292   7.173  16.638  0.00  0.00    +0.000 HD
ATOM     24  H   UNL     1       4.523   5.589  16.437  0.00  0.00    +0.000 HD
ENDBRANCH  19  22
ENDBRANCH  16  19
ENDBRANCH   3  13
BRANCH   1  25
ATOM     25  N   UNL     1      -2.652  12.161  18.467  0.00  0.00    +0.000 N 
ATOM     26  H   UNL     1      -3.244  12.901  18.861  0.00  0.00    +0.000 HD
BRANCH  25  28
ATOM     27  C   UNL     1      -4.891  11.564  17.722  0.00  0.00    +0.000 C 
ATOM     28  C   UNL     1      -3.412  11.161  17.711  0.00  0.00    +0.000 C 
ATOM     29  C   UNL     1      -2.919  11.080  16.267  0.00  0.00    +0.000 C 
ENDBRANCH  25  28
ENDBRANCH   1  25
TORSDOF 5
ENDMDL
MODEL 8
REMARK VINA RESULT:      -7.1      1.935      4.002
REMARK  Name = 
REMARK  8 active torsions:
REMARK  status: ('A' for Active; 'I' for Inactive)
REMARK    1  A    between atoms: C_1  and  C_2
REMARK    2  A    between atoms: C_2  and  C_3
REMARK    3  A    between atoms: C_2  and  N_4
REMARK    4  A    between atoms: N_4  and  C_5
REMARK    5  A    between atoms: C_7  and  C_8
REMARK    6  A    between atoms: C_11  and  C_12
REMARK    7  A    between atoms: C_12  and  N_13
REMARK    8  A    between atoms: N_22  and  C_23
REMARK                            x       y       z     vdW  Elec       q    Type
REMARK                         _______ _______ _______ _____ _____    ______ ____
ROOT
ATOM      1  C   UNL     1       4.036   5.869  18.755  0.00  0.00    +0.000 A 
ATOM      2  N   UNL     1       3.350   7.037  18.744  0.00  0.00    +0.000 NA
ATOM      3  C   UNL     1       2.261   7.201  19.537  0.00  0.00    +0.000 A 
ATOM      4  C   UNL     1       1.844   6.204  20.404  0.00  0.00    +0.000 A 
ATOM      5  C   UNL     1       2.538   5.004  20.437  0.00  0.00    +0.000 A 
ATOM      6  N   UNL     1       2.084   4.014  21.325  0.00  0.00    +0.000 NA
ATOM      7  C   UNL     1       2.726   2.897  21.358  0.00  0.00    +0.000 A 
ATOM      8  N   UNL     1       3.822   2.607  20.587  0.00  0.00    +0.000 N 
ATOM      9  C   UNL     1       4.499   1.336  20.735  0.00  0.00    +0.000 C 
ATOM     10  C   UNL     1       4.359   3.543  19.710  0.00  0.00    +0.000 A 
ATOM     11  O   UNL     1       5.404   3.353  19.089  0.00  0.00    +0.000 OA
ATOM     12  C   UNL     1       3.634   4.826  19.599  0.00  0.00    +0.000 A 
ENDROOT
BRANCH   3  13
ATOM     13  C   UNL     1       1.537   8.470  19.367  0.00  0.00    +0.000 A 
ATOM     14  C   UNL     1       0.769   9.054  20.382  0.00  0.00    +0.000 A 
ATOM     15  C   UNL     1       0.032  10.215  20.138  0.00  0.00    +0.000 A 
ATOM     16  C   UNL     1       0.055  10.799  18.872  0.00  0.00    +0.000 A 
ATOM     17  N   UNL     1       0.820  10.272  17.883  0.00  0.00    +0.000 NA
ATOM     18  C   UNL     1       1.527   9.143  18.149  0.00  0.00    +0.000 A 
BRANCH  16  19
ATOM     19  C   UNL     1      -0.895  11.940  18.518  0.00  0.00    +0.000 C 
ATOM     20  C   UNL     1      -1.634  12.695  19.597  0.00  0.00    +0.000 C 
ATOM     21  C   UNL     1      -0.491  13.350  18.882  0.00  0.00    +0.000 C 
BRANCH  19  22
ATOM     22  N   UNL     1      -1.580  11.761  17.219  0.00  0.00    +0.000 NA
ATOM     23  H   UNL     1      -2.017  10.840  17.194  0.00  0.00    +0.000 HD
ATOM     24  H   UNL     1      -0.854  11.716  16.500  0.00  0.00    +0.000 HD
ENDBRANCH  19  22
ENDBRANCH  16  19
ENDBRANCH   3  13
BRANCH   1  25
ATOM     25  N   UNL     1       5.065   5.699  17.815  0.00  0.00    +0.000 N 
ATOM     26  H   UNL     1       5.869   5.254  18.270  0.00  0.00    +0.000 HD
BRANCH  25  28
ATOM     27  C   UNL     1       6.907   7.193  17.274  0.00  0.00    +0.000 C 
ATOM     28  C   UNL     1       5.435   6.864  17.005  0.00  0.00    +0.000 C 
ATOM     29  C   UNL     1       5.243   6.576  15.517  0.00  0.00    +0.000 C 
ENDBRANCH  25  28
ENDBRANCH   1  25
TORSDOF 5
ENDMDL
MODEL 9
REMARK VINA RESULT:      -7.0      2.878      8.570
REMARK  Name = 
REMARK  8 active torsions:
REMARK  status: ('A' for Active; 'I' for Inactive)
REMARK    1  A    between atoms: C_1  and  C_2
REMARK    2  A    between atoms: C_2  and  C_3
REMARK    3  A    between atoms: C_2  and  N_4
REMARK    4  A    between atoms: N_4  and  C_5
REMARK    5  A    between atoms: C_7  and  C_8
REMARK    6  A    between atoms: C_11  and  C_12
REMARK    7  A    between atoms: C_12  and  N_13
REMARK    8  A    between atoms: N_22  and  C_23
REMARK                            x       y       z     vdW  Elec       q    Type
REMARK                         _______ _______ _______ _____ _____    ______ ____
ROOT
ATOM      1  C   UNL     1       0.706  10.469  19.327  0.00  0.00    +0.000 A 
ATOM      2  N   UNL     1       1.458   9.468  18.811  0.00  0.00    +0.000 NA
ATOM      3  C   UNL     1       1.729   8.363  19.551  0.00  0.00    +0.000 A 
ATOM      4  C   UNL     1       1.218   8.207  20.829  0.00  0.00    +0.000 A 
ATOM      5  C   UNL     1       0.439   9.217  21.372  0.00  0.00    +0.000 A 
ATOM      6  N   UNL     1      -0.059   9.027  22.672  0.00  0.00    +0.000 NA
ATOM      7  C   UNL     1      -0.783   9.964  23.180  0.00  0.00    +0.000 A 
ATOM      8  N   UNL     1      -1.102  11.134  22.540  0.00  0.00    +0.000 N 
ATOM      9  C   UNL     1      -1.963  12.104  23.185  0.00  0.00    +0.000 C 
ATOM     10  C   UNL     1      -0.682  11.387  21.240  0.00  0.00    +0.000 A 
ATOM     11  O   UNL     1      -1.044  12.374  20.600  0.00  0.00    +0.000 OA
ATOM     12  C   UNL     1       0.190  10.364  20.624  0.00  0.00    +0.000 A 
ENDROOT
BRANCH   3  13
ATOM     13  C   UNL     1       2.637   7.388  18.926  0.00  0.00    +0.000 A 
ATOM     14  C   UNL     1       2.898   6.127  19.474  0.00  0.00    +0.000 A 
ATOM     15  C   UNL     1       3.836   5.275  18.885  0.00  0.00    +0.000 A 
ATOM     16  C   UNL     1       4.524   5.683  17.743  0.00  0.00    +0.000 A 
ATOM     17  N   UNL     1       4.262   6.886  17.173  0.00  0.00    +0.000 NA
ATOM     18  C   UNL     1       3.345   7.694  17.767  0.00  0.00    +0.000 A 
BRANCH  16  19
ATOM     19  C   UNL     1       5.695   4.868  17.201  0.00  0.00    +0.000 C 
ATOM     20  C   UNL     1       6.739   5.506  16.317  0.00  0.00    +0.000 C 
ATOM     21  C   UNL     1       7.079   5.156  17.734  0.00  0.00    +0.000 C 
BRANCH  19  22
ATOM     22  N   UNL     1       5.364   3.448  16.949  0.00  0.00    +0.000 NA
ATOM     23  H   UNL     1       6.203   2.881  17.068  0.00  0.00    +0.000 HD
ATOM     24  H   UNL     1       5.139   3.363  15.955  0.00  0.00    +0.000 HD
ENDBRANCH  19  22
ENDBRANCH  16  19
ENDBRANCH   3  13
BRANCH   1  25
ATOM     25  N   UNL     1       0.574  11.649  18.577  0.00  0.00    +0.000 N 
ATOM     26  H   UNL     1       0.484  11.412  17.583  0.00  0.00    +0.000 HD
BRANCH  25  28
ATOM     27  C   UNL     1       2.748  12.504  17.895  0.00  0.00    +0.000 C 
ATOM     28  C   UNL     1       1.549  12.716  18.826  0.00  0.00    +0.000 C 
ATOM     29  C   UNL     1       0.935  14.089  18.559  0.00  0.00    +0.000 C 
ENDBRANCH  25  28
ENDBRANCH   1  25
TORSDOF 5
ENDMDL
