MODEL 1
REMARK VINA RESULT:      -6.4      0.000      0.000
REMARK  Name = 
REMARK  8 active torsions:
REMARK  status: ('A' for Active; 'I' for Inactive)
REMARK    1  A    between atoms: C_1  and  C_2
REMARK    2  A    between atoms: C_2  and  C_3
REMARK    3  A    between atoms: C_2  and  C_4
REMARK    4  A    between atoms: C_2  and  C_5
REMARK    5  A    between atoms: C_5  and  C_7
REMARK    6  A    between atoms: C_7  and  SE_8
REMARK    7  A    between atoms: SE_8  and  C_9
REMARK    8  A    between atoms: C_9  and  C_11
REMARK                            x       y       z     vdW  Elec       q    Type
REMARK                         _______ _______ _______ _____ _____    ______ ____
ROOT
ATOM      1  C   UNL     1       5.434   4.124  16.630  0.00  0.00    +0.000 C 
ATOM      2  O   UNL     1       5.893   3.412  15.749  0.00  0.00    +0.000 OA
ENDROOT
BRANCH   1   3
ATOM      3  C   UNL     1       6.229   5.272  17.158  0.00  0.00    +0.000 A 
ATOM      4  C   UNL     1       7.238   5.068  18.124  0.00  0.00    +0.000 A 
ATOM      5  C   UNL     1       7.994   6.146  18.602  0.00  0.00    +0.000 A 
ATOM      6  C   UNL     1       7.754   7.438  18.129  0.00  0.00    +0.000 A 
ATOM      7 CL   UNL     1       8.701   8.789  18.724  0.00  0.00    +0.000 Cl
ATOM      8  C   UNL     1       6.757   7.654  17.176  0.00  0.00    +0.000 A 
ATOM      9  C   UNL     1       6.001   6.582  16.691  0.00  0.00    +0.000 A 
ENDBRANCH   1   3
BRANCH   1  10
ATOM     10 SE   UNL     1       3.622   3.804  17.247  0.00  0.00    +0.000 Se
BRANCH  10  11
ATOM     11  C   UNL     1       3.885   4.344  19.109  0.00  0.00    +0.000 C 
BRANCH  11  12
ATOM     12  C   UNL     1       3.235   3.298  19.986  0.00  0.00    +0.000 C 
ATOM     13  O   UNL     1       3.921   2.345  20.332  0.00  0.00    +0.000 OA
BRANCH  12  15
ATOM     14  C   UNL     1       0.836   2.739  19.392  0.00  0.00    +0.000 C 
ATOM     15  C   UNL     1       1.773   3.385  20.440  0.00  0.00    +0.000 C 
ATOM     16  C   UNL     1       1.361   4.862  20.609  0.00  0.00    +0.000 C 
ATOM     17  C   UNL     1       1.600   2.638  21.775  0.00  0.00    +0.000 C 
ENDBRANCH  12  15
ENDBRANCH  11  12
ENDBRANCH  10  11
ENDBRANCH   1  10
TORSDOF 5
ENDMDL
MODEL 2
REMARK VINA RESULT:      -6.4      2.813      3.498
REMARK  Name = 
REMARK  8 active torsions:
REMARK  status: ('A' for Active; 'I' for Inactive)
REMARK    1  A    between atoms: C_1  and  C_2
REMARK    2  A    between atoms: C_2  and  C_3
REMARK    3  A    between atoms: C_2  and  C_4
REMARK    4  A    between atoms: C_2  and  C_5
REMARK    5  A    between atoms: C_5  and  C_7
REMARK    6  A    between atoms: C_7  and  SE_8
REMARK    7  A    between atoms: SE_8  and  C_9
REMARK    8  A    between atoms: C_9  and  C_11
REMARK                            x       y       z     vdW  Elec       q    Type
REMARK                         _______ _______ _______ _____ _____    ______ ____
ROOT
ATOM      1  C   UNL     1       6.194   4.891  18.260  0.00  0.00    +0.000 C 
ATOM      2  O   UNL     1       7.213   4.810  18.930  0.00  0.00    +0.000 OA
ENDROOT
BRANCH   1   3
ATOM      3  C   UNL     1       6.235   4.613  16.794  0.00  0.00    +0.000 A 
ATOM      4  C   UNL     1       5.168   3.944  16.156  0.00  0.00    +0.000 A 
ATOM      5  C   UNL     1       5.202   3.703  14.777  0.00  0.00    +0.000 A 
ATOM      6  C   UNL     1       6.298   4.120  14.017  0.00  0.00    +0.000 A 
ATOM      7 CL   UNL     1       6.343   3.821  12.289  0.00  0.00    +0.000 Cl
ATOM      8  C   UNL     1       7.361   4.779  14.636  0.00  0.00    +0.000 A 
ATOM      9  C   UNL     1       7.331   5.028  16.012  0.00  0.00    +0.000 A 
ENDBRANCH   1   3
BRANCH   1  10
ATOM     10 SE   UNL     1       4.513   5.277  19.151  0.00  0.00    +0.000 Se
BRANCH  10  11
ATOM     11  C   UNL     1       4.158   3.475  19.824  0.00  0.00    +0.000 C 
BRANCH  11  12
ATOM     12  C   UNL     1       3.087   2.861  18.951  0.00  0.00    +0.000 C 
ATOM     13  O   UNL     1       3.407   1.916  18.242  0.00  0.00    +0.000 OA
BRANCH  12  15
ATOM     14  C   UNL     1       0.643   2.206  18.800  0.00  0.00    +0.000 C 
ATOM     15  C   UNL     1       1.645   3.380  18.918  0.00  0.00    +0.000 C 
ATOM     16  C   UNL     1       1.445   4.308  17.701  0.00  0.00    +0.000 C 
ATOM     17  C   UNL     1       1.342   4.151  20.217  0.00  0.00    +0.000 C 
ENDBRANCH  12  15
ENDBRANCH  11  12
ENDBRANCH  10  11
ENDBRANCH   1  10
TORSDOF 5
ENDMDL
MODEL 3
REMARK VINA RESULT:      -6.3      3.062      3.871
REMARK  Name = 
REMARK  8 active torsions:
REMARK  status: ('A' for Active; 'I' for Inactive)
REMARK    1  A    between atoms: C_1  and  C_2
REMARK    2  A    between atoms: C_2  and  C_3
REMARK    3  A    between atoms: C_2  and  C_4
REMARK    4  A    between atoms: C_2  and  C_5
REMARK    5  A    between atoms: C_5  and  C_7
REMARK    6  A    between atoms: C_7  and  SE_8
REMARK    7  A    between atoms: SE_8  and  C_9
REMARK    8  A    between atoms: C_9  and  C_11
REMARK                            x       y       z     vdW  Elec       q    Type
REMARK                         _______ _______ _______ _____ _____    ______ ____
ROOT
ATOM      1  C   UNL     1       5.232   5.871  17.509  0.00  0.00    +0.000 C 
ATOM      2  O   UNL     1       4.522   6.866  17.535  0.00  0.00    +0.000 OA
ENDROOT
BRANCH   1   3
ATOM      3  C   UNL     1       5.628   5.266  16.203  0.00  0.00    +0.000 A 
ATOM      4  C   UNL     1       4.722   4.464  15.475  0.00  0.00    +0.000 A 
ATOM      5  C   UNL     1       5.092   3.915  14.241  0.00  0.00    +0.000 A 
ATOM      6  C   UNL     1       6.365   4.152  13.718  0.00  0.00    +0.000 A 
ATOM      7 CL   UNL     1       6.830   3.466  12.172  0.00  0.00    +0.000 Cl
ATOM      8  C   UNL     1       7.272   4.939  14.430  0.00  0.00    +0.000 A 
ATOM      9  C   UNL     1       6.907   5.495  15.661  0.00  0.00    +0.000 A 
ENDBRANCH   1   3
BRANCH   1  10
ATOM     10 SE   UNL     1       5.919   5.163  19.180  0.00  0.00    +0.000 Se
BRANCH  10  11
ATOM     11  C   UNL     1       4.772   3.581  19.280  0.00  0.00    +0.000 C 
BRANCH  11  12
ATOM     12  C   UNL     1       3.344   4.057  19.425  0.00  0.00    +0.000 C 
ATOM     13  O   UNL     1       3.123   4.945  20.237  0.00  0.00    +0.000 OA
BRANCH  12  15
ATOM     14  C   UNL     1       1.048   2.990  19.542  0.00  0.00    +0.000 C 
ATOM     15  C   UNL     1       2.187   3.468  18.609  0.00  0.00    +0.000 C 
ATOM     16  C   UNL     1       2.680   2.257  17.791  0.00  0.00    +0.000 C 
ATOM     17  C   UNL     1       1.621   4.543  17.662  0.00  0.00    +0.000 C 
ENDBRANCH  12  15
ENDBRANCH  11  12
ENDBRANCH  10  11
ENDBRANCH   1  10
TORSDOF 5
ENDMDL
MODEL 4
REMARK VINA RESULT:      -6.3      3.055      3.761
REMARK  Name = 
REMARK  8 active torsions:
REMARK  status: ('A' for Active; 'I' for Inactive)
REMARK    1  A    between atoms: C_1  and  C_2
REMARK    2  A    between atoms: C_2  and  C_3
REMARK    3  A    between atoms: C_2  and  C_4
REMARK    4  A    between atoms: C_2  and  C_5
REMARK    5  A    between atoms: C_5  and  C_7
REMARK    6  A    between atoms: C_7  and  SE_8
REMARK    7  A    between atoms: SE_8  and  C_9
REMARK    8  A    between atoms: C_9  and  C_11
REMARK                            x       y       z     vdW  Elec       q    Type
REMARK                         _______ _______ _______ _____ _____    ______ ____
ROOT
ATOM      1  C   UNL     1       5.151   5.807  17.496  0.00  0.00    +0.000 C 
ATOM      2  O   UNL     1       4.402   6.772  17.541  0.00  0.00    +0.000 OA
ENDROOT
BRANCH   1   3
ATOM      3  C   UNL     1       5.568   5.241  16.179  0.00  0.00    +0.000 A 
ATOM      4  C   UNL     1       6.871   5.458  15.680  0.00  0.00    +0.000 A 
ATOM      5  C   UNL     1       7.263   4.909  14.452  0.00  0.00    +0.000 A 
ATOM      6  C   UNL     1       6.366   4.143  13.705  0.00  0.00    +0.000 A 
ATOM      7 CL   UNL     1       6.856   3.453  12.169  0.00  0.00    +0.000 Cl
ATOM      8  C   UNL     1       5.073   3.924  14.185  0.00  0.00    +0.000 A 
ATOM      9  C   UNL     1       4.676   4.465  15.413  0.00  0.00    +0.000 A 
ENDBRANCH   1   3
BRANCH   1  10
ATOM     10 SE   UNL     1       5.871   5.098  19.153  0.00  0.00    +0.000 Se
BRANCH  10  11
ATOM     11  C   UNL     1       4.728   3.515  19.273  0.00  0.00    +0.000 C 
BRANCH  11  12
ATOM     12  C   UNL     1       3.299   3.989  19.418  0.00  0.00    +0.000 C 
ATOM     13  O   UNL     1       3.075   4.867  20.239  0.00  0.00    +0.000 OA
BRANCH  12  15
ATOM     14  C   UNL     1       1.570   4.479  17.631  0.00  0.00    +0.000 C 
ATOM     15  C   UNL     1       2.145   3.410  18.591  0.00  0.00    +0.000 C 
ATOM     16  C   UNL     1       1.010   2.941  19.525  0.00  0.00    +0.000 C 
ATOM     17  C   UNL     1       2.654   2.224  17.751  0.00  0.00    +0.000 C 
ENDBRANCH  12  15
ENDBRANCH  11  12
ENDBRANCH  10  11
ENDBRANCH   1  10
TORSDOF 5
ENDMDL
MODEL 5
REMARK VINA RESULT:      -6.3      3.080      3.831
REMARK  Name = 
REMARK  8 active torsions:
REMARK  status: ('A' for Active; 'I' for Inactive)
REMARK    1  A    between atoms: C_1  and  C_2
REMARK    2  A    between atoms: C_2  and  C_3
REMARK    3  A    between atoms: C_2  and  C_4
REMARK    4  A    between atoms: C_2  and  C_5
REMARK    5  A    between atoms: C_5  and  C_7
REMARK    6  A    between atoms: C_7  and  SE_8
REMARK    7  A    between atoms: SE_8  and  C_9
REMARK    8  A    between atoms: C_9  and  C_11
REMARK                            x       y       z     vdW  Elec       q    Type
REMARK                         _______ _______ _______ _____ _____    ______ ____
ROOT
ATOM      1  C   UNL     1       5.279   5.868  17.465  0.00  0.00    +0.000 C 
ATOM      2  O   UNL     1       4.602   6.885  17.478  0.00  0.00    +0.000 OA
ENDROOT
BRANCH   1   3
ATOM      3  C   UNL     1       5.649   5.229  16.167  0.00  0.00    +0.000 A 
ATOM      4  C   UNL     1       4.756   4.352  15.514  0.00  0.00    +0.000 A 
ATOM      5  C   UNL     1       5.100   3.771  14.287  0.00  0.00    +0.000 A 
ATOM      6  C   UNL     1       6.335   4.051  13.697  0.00  0.00    +0.000 A 
ATOM      7 CL   UNL     1       6.767   3.326  12.160  0.00  0.00    +0.000 Cl
ATOM      8  C   UNL     1       7.229   4.913  14.335  0.00  0.00    +0.000 A 
ATOM      9  C   UNL     1       6.890   5.501  15.558  0.00  0.00    +0.000 A 
ENDBRANCH   1   3
BRANCH   1  10
ATOM     10 SE   UNL     1       5.953   5.166  19.144  0.00  0.00    +0.000 Se
BRANCH  10  11
ATOM     11  C   UNL     1       4.807   3.583  19.239  0.00  0.00    +0.000 C 
BRANCH  11  12
ATOM     12  C   UNL     1       3.377   4.057  19.366  0.00  0.00    +0.000 C 
ATOM     13  O   UNL     1       3.159   5.004  20.110  0.00  0.00    +0.000 OA
BRANCH  12  15
ATOM     14  C   UNL     1       1.579   4.391  17.611  0.00  0.00    +0.000 C 
ATOM     15  C   UNL     1       2.214   3.398  18.614  0.00  0.00    +0.000 C 
ATOM     16  C   UNL     1       1.123   2.957  19.612  0.00  0.00    +0.000 C 
ATOM     17  C   UNL     1       2.730   2.177  17.831  0.00  0.00    +0.000 C 
ENDBRANCH  12  15
ENDBRANCH  11  12
ENDBRANCH  10  11
ENDBRANCH   1  10
TORSDOF 5
ENDMDL
MODEL 6
REMARK VINA RESULT:      -6.3      2.970      3.493
REMARK  Name = 
REMARK  8 active torsions:
REMARK  status: ('A' for Active; 'I' for Inactive)
REMARK    1  A    between atoms: C_1  and  C_2
REMARK    2  A    between atoms: C_2  and  C_3
REMARK    3  A    between atoms: C_2  and  C_4
REMARK    4  A    between atoms: C_2  and  C_5
REMARK    5  A    between atoms: C_5  and  C_7
REMARK    6  A    between atoms: C_7  and  SE_8
REMARK    7  A    between atoms: SE_8  and  C_9
REMARK    8  A    between atoms: C_9  and  C_11
REMARK                            x       y       z     vdW  Elec       q    Type
REMARK                         _______ _______ _______ _____ _____    ______ ____
ROOT
ATOM      1  C   UNL     1       4.663   5.767  18.387  0.00  0.00    +0.000 C 
ATOM      2  O   UNL     1       5.321   5.509  19.384  0.00  0.00    +0.000 OA
ENDROOT
BRANCH   1   3
ATOM      3  C   UNL     1       5.103   5.269  17.049  0.00  0.00    +0.000 A 
ATOM      4  C   UNL     1       5.396   3.903  16.848  0.00  0.00    +0.000 A 
ATOM      5  C   UNL     1       5.789   3.438  15.586  0.00  0.00    +0.000 A 
ATOM      6  C   UNL     1       5.899   4.325  14.513  0.00  0.00    +0.000 A 
ATOM      7 CL   UNL     1       6.389   3.745  12.932  0.00  0.00    +0.000 Cl
ATOM      8  C   UNL     1       5.616   5.679  14.699  0.00  0.00    +0.000 A 
ATOM      9  C   UNL     1       5.217   6.149  15.955  0.00  0.00    +0.000 A 
ENDBRANCH   1   3
BRANCH   1  10
ATOM     10 SE   UNL     1       2.992   6.732  18.587  0.00  0.00    +0.000 Se
BRANCH  10  11
ATOM     11  C   UNL     1       1.786   5.203  18.392  0.00  0.00    +0.000 C 
BRANCH  11  12
ATOM     12  C   UNL     1       1.670   4.536  19.744  0.00  0.00    +0.000 C 
ATOM     13  O   UNL     1       1.490   5.256  20.717  0.00  0.00    +0.000 OA
BRANCH  12  15
ATOM     14  C   UNL     1       3.213   2.529  19.631  0.00  0.00    +0.000 C 
ATOM     15  C   UNL     1       1.776   3.018  19.932  0.00  0.00    +0.000 C 
ATOM     16  C   UNL     1       0.810   2.298  18.969  0.00  0.00    +0.000 C 
ATOM     17  C   UNL     1       1.431   2.652  21.388  0.00  0.00    +0.000 C 
ENDBRANCH  12  15
ENDBRANCH  11  12
ENDBRANCH  10  11
ENDBRANCH   1  10
TORSDOF 5
ENDMDL
MODEL 7
REMARK VINA RESULT:      -6.3      2.984      3.481
REMARK  Name = 
REMARK  8 active torsions:
REMARK  status: ('A' for Active; 'I' for Inactive)
REMARK    1  A    between atoms: C_1  and  C_2
REMARK    2  A    between atoms: C_2  and  C_3
REMARK    3  A    between atoms: C_2  and  C_4
REMARK    4  A    between atoms: C_2  and  C_5
REMARK    5  A    between atoms: C_5  and  C_7
REMARK    6  A    between atoms: C_7  and  SE_8
REMARK    7  A    between atoms: SE_8  and  C_9
REMARK    8  A    between atoms: C_9  and  C_11
REMARK                            x       y       z     vdW  Elec       q    Type
REMARK                         _______ _______ _______ _____ _____    ______ ____
ROOT
ATOM      1  C   UNL     1       4.641   5.789  18.361  0.00  0.00    +0.000 C 
ATOM      2  O   UNL     1       5.307   5.558  19.360  0.00  0.00    +0.000 OA
ENDROOT
BRANCH   1   3
ATOM      3  C   UNL     1       5.080   5.273  17.031  0.00  0.00    +0.000 A 
ATOM      4  C   UNL     1       5.330   3.897  16.837  0.00  0.00    +0.000 A 
ATOM      5  C   UNL     1       5.722   3.414  15.582  0.00  0.00    +0.000 A 
ATOM      6  C   UNL     1       5.874   4.293  14.507  0.00  0.00    +0.000 A 
ATOM      7 CL   UNL     1       6.364   3.691  12.934  0.00  0.00    +0.000 Cl
ATOM      8  C   UNL     1       5.634   5.657  14.686  0.00  0.00    +0.000 A 
ATOM      9  C   UNL     1       5.236   6.144  15.935  0.00  0.00    +0.000 A 
ENDBRANCH   1   3
BRANCH   1  10
ATOM     10 SE   UNL     1       2.959   6.736  18.553  0.00  0.00    +0.000 Se
BRANCH  10  11
ATOM     11  C   UNL     1       1.773   5.186  18.420  0.00  0.00    +0.000 C 
BRANCH  11  12
ATOM     12  C   UNL     1       1.724   4.527  19.780  0.00  0.00    +0.000 C 
ATOM     13  O   UNL     1       1.618   5.255  20.758  0.00  0.00    +0.000 OA
BRANCH  12  15
ATOM     14  C   UNL     1       0.856   2.279  18.994  0.00  0.00    +0.000 C 
ATOM     15  C   UNL     1       1.810   3.008  19.970  0.00  0.00    +0.000 C 
ATOM     16  C   UNL     1       1.405   2.633  21.411  0.00  0.00    +0.000 C 
ATOM     17  C   UNL     1       3.249   2.533  19.692  0.00  0.00    +0.000 C 
ENDBRANCH  12  15
ENDBRANCH  11  12
ENDBRANCH  10  11
ENDBRANCH   1  10
TORSDOF 5
ENDMDL
MODEL 8
REMARK VINA RESULT:      -6.2      3.162      3.869
REMARK  Name = 
REMARK  8 active torsions:
REMARK  status: ('A' for Active; 'I' for Inactive)
REMARK    1  A    between atoms: C_1  and  C_2
REMARK    2  A    between atoms: C_2  and  C_3
REMARK    3  A    between atoms: C_2  and  C_4
REMARK    4  A    between atoms: C_2  and  C_5
REMARK    5  A    between atoms: C_5  and  C_7
REMARK    6  A    between atoms: C_7  and  SE_8
REMARK    7  A    between atoms: SE_8  and  C_9
REMARK    8  A    between atoms: C_9  and  C_11
REMARK                            x       y       z     vdW  Elec       q    Type
REMARK                         _______ _______ _______ _____ _____    ______ ____
ROOT
ATOM      1  C   UNL     1       6.743   6.209  17.184  0.00  0.00    +0.000 C 
ATOM      2  O   UNL     1       7.092   7.379  17.117  0.00  0.00    +0.000 OA
ENDROOT
BRANCH   1   3
ATOM      3  C   UNL     1       6.496   5.426  15.937  0.00  0.00    +0.000 A 
ATOM      4  C   UNL     1       7.449   5.409  14.895  0.00  0.00    +0.000 A 
ATOM      5  C   UNL     1       7.222   4.657  13.736  0.00  0.00    +0.000 A 
ATOM      6  C   UNL     1       6.045   3.918  13.596  0.00  0.00    +0.000 A 
ATOM      7 CL   UNL     1       5.759   2.975  12.145  0.00  0.00    +0.000 Cl
ATOM      8  C   UNL     1       5.093   3.930  14.617  0.00  0.00    +0.000 A 
ATOM      9  C   UNL     1       5.316   4.674  15.780  0.00  0.00    +0.000 A 
ENDBRANCH   1   3
BRANCH   1  10
ATOM     10 SE   UNL     1       6.624   5.363  18.927  0.00  0.00    +0.000 Se
BRANCH  10  11
ATOM     11  C   UNL     1       4.679   5.443  19.120  0.00  0.00    +0.000 C 
BRANCH  11  12
ATOM     12  C   UNL     1       4.167   4.022  19.199  0.00  0.00    +0.000 C 
ATOM     13  O   UNL     1       4.970   3.147  19.494  0.00  0.00    +0.000 OA
BRANCH  12  15
ATOM     14  C   UNL     1       2.597   2.176  18.456  0.00  0.00    +0.000 C 
ATOM     15  C   UNL     1       2.706   3.649  18.918  0.00  0.00    +0.000 C 
ATOM     16  C   UNL     1       2.138   4.548  17.801  0.00  0.00    +0.000 C 
ATOM     17  C   UNL     1       1.873   3.820  20.202  0.00  0.00    +0.000 C 
ENDBRANCH  12  15
ENDBRANCH  11  12
ENDBRANCH  10  11
ENDBRANCH   1  10
TORSDOF 5
ENDMDL
MODEL 9
REMARK VINA RESULT:      -6.2      2.850      3.698
REMARK  Name = 
REMARK  8 active torsions:
REMARK  status: ('A' for Active; 'I' for Inactive)
REMARK    1  A    between atoms: C_1  and  C_2
REMARK    2  A    between atoms: C_2  and  C_3
REMARK    3  A    between atoms: C_2  and  C_4
REMARK    4  A    between atoms: C_2  and  C_5
REMARK    5  A    between atoms: C_5  and  C_7
REMARK    6  A    between atoms: C_7  and  SE_8
REMARK    7  A    between atoms: SE_8  and  C_9
REMARK    8  A    between atoms: C_9  and  C_11
REMARK                            x       y       z     vdW  Elec       q    Type
REMARK                         _______ _______ _______ _____ _____    ______ ____
ROOT
ATOM      1  C   UNL     1       6.156   5.469  18.289  0.00  0.00    +0.000 C 
ATOM      2  O   UNL     1       7.211   5.707  18.858  0.00  0.00    +0.000 OA
ENDROOT
BRANCH   1   3
ATOM      3  C   UNL     1       6.156   5.011  16.868  0.00  0.00    +0.000 A 
ATOM      4  C   UNL     1       4.998   4.446  16.292  0.00  0.00    +0.000 A 
ATOM      5  C   UNL     1       4.997   4.036  14.952  0.00  0.00    +0.000 A 
ATOM      6  C   UNL     1       6.147   4.179  14.173  0.00  0.00    +0.000 A 
ATOM      7 CL   UNL     1       6.149   3.668  12.495  0.00  0.00    +0.000 Cl
ATOM      8  C   UNL     1       7.301   4.733  14.732  0.00  0.00    +0.000 A 
ATOM      9  C   UNL     1       7.306   5.149  16.067  0.00  0.00    +0.000 A 
ENDBRANCH   1   3
BRANCH   1  10
ATOM     10 SE   UNL     1       4.500   5.588  19.294  0.00  0.00    +0.000 Se
BRANCH  10  11
ATOM     11  C   UNL     1       4.255   3.673  19.615  0.00  0.00    +0.000 C 
BRANCH  11  12
ATOM     12  C   UNL     1       2.770   3.412  19.723  0.00  0.00    +0.000 C 
ATOM     13  O   UNL     1       2.259   3.499  20.832  0.00  0.00    +0.000 OA
BRANCH  12  15
ATOM     14  C   UNL     1       0.585   2.368  18.973  0.00  0.00    +0.000 C 
ATOM     15  C   UNL     1       1.903   3.038  18.515  0.00  0.00    +0.000 C 
ATOM     16  C   UNL     1       2.659   2.044  17.610  0.00  0.00    +0.000 C 
ATOM     17  C   UNL     1       1.552   4.308  17.717  0.00  0.00    +0.000 C 
ENDBRANCH  12  15
ENDBRANCH  11  12
ENDBRANCH  10  11
ENDBRANCH   1  10
TORSDOF 5
ENDMDL
