MODEL 1
REMARK VINA RESULT:      -6.6      0.000      0.000
REMARK  Name = 
REMARK  12 active torsions:
REMARK  status: ('A' for Active; 'I' for Inactive)
REMARK    1  A    between atoms: C_1  and  N_2
REMARK    2  A    between atoms: N_2  and  C_3
REMARK    3  A    between atoms: C_4  and  C_6
REMARK    4  A    between atoms: C_10  and  C_11
REMARK    5  A    between atoms: C_11  and  N_12
REMARK    6  A    between atoms: N_15  and  C_16
REMARK    7  A    between atoms: C_16  and  C_17
REMARK    8  A    between atoms: C_17  and  O_18
REMARK    9  A    between atoms: C_17  and  C_19
REMARK   10  A    between atoms: C_19  and  C_20
REMARK   11  A    between atoms: C_19  and  C_21
REMARK   12  A    between atoms: C_19  and  C_22
REMARK                            x       y       z     vdW  Elec       q    Type
REMARK                         _______ _______ _______ _____ _____    ______ ____
ROOT
ATOM      1  N   UNL     1       0.075   8.699  20.912  0.00  0.00    +0.000 NA
ATOM      2  C   UNL     1      -0.711   8.757  22.162  0.00  0.00    +0.000 C 
ATOM      3  C   UNL     1      -0.304   9.886  23.144  0.00  0.00    +0.000 C 
ATOM      4  N   UNL     1      -0.264  11.248  22.569  0.00  0.00    +0.000 NA
ATOM      5  C   UNL     1       0.454  11.213  21.273  0.00  0.00    +0.000 C 
ATOM      6  C   UNL     1       0.085  10.050  20.314  0.00  0.00    +0.000 C 
ENDROOT
BRANCH   1   7
ATOM      7  C   UNL     1       1.447   8.176  21.112  0.00  0.00    +0.000 C 
BRANCH   7  12
ATOM      8  C   UNL     1       3.250   5.637  18.833  0.00  0.00    +0.000 A 
ATOM      9  C   UNL     1       3.351   6.358  17.642  0.00  0.00    +0.000 A 
ATOM     10  C   UNL     1       2.910   7.682  17.586  0.00  0.00    +0.000 A 
ATOM     11  C   UNL     1       2.313   8.276  18.701  0.00  0.00    +0.000 A 
ATOM     12  C   UNL     1       2.100   7.549  19.881  0.00  0.00    +0.000 A 
ATOM     13  C   UNL     1       2.595   6.228  19.935  0.00  0.00    +0.000 A 
BRANCH   8  17
ATOM     14  C   UNL     1       3.467   1.815  18.879  0.00  0.00    +0.000 C 
ATOM     15  N   UNL     1       2.853   3.138  18.847  0.00  0.00    +0.000 N 
ATOM     16  C   UNL     1       1.522   3.217  18.255  0.00  0.00    +0.000 C 
ATOM     17  C   UNL     1       3.739   4.228  18.949  0.00  0.00    +0.000 C 
ATOM     18  O   UNL     1       4.950   4.066  19.113  0.00  0.00    +0.000 OA
ENDBRANCH   8  17
ENDBRANCH   7  12
ENDBRANCH   1   7
BRANCH   4  19
ATOM     19  C   UNL     1      -1.595  11.872  22.427  0.00  0.00    +0.000 C 
BRANCH  19  20
ATOM     20  C   UNL     1      -2.067  12.778  23.614  0.00  0.00    +0.000 C 
BRANCH  20  21
ATOM     21  C   UNL     1      -3.587  13.155  23.576  0.00  0.00    +0.000 C 
ATOM     22  C   UNL     1      -4.347  12.430  24.702  0.00  0.00    +0.000 C 
ATOM     23  C   UNL     1      -3.756  14.675  23.798  0.00  0.00    +0.000 C 
ATOM     24  C   UNL     1      -4.232  12.807  22.221  0.00  0.00    +0.000 C 
ENDBRANCH  20  21
BRANCH  20  25
ATOM     25  O   UNL     1      -1.292  13.985  23.666  0.00  0.00    +0.000 OA
ATOM     26  H   UNL     1      -0.559  13.843  24.288  0.00  0.00    +0.000 HD
ENDBRANCH  20  25
ENDBRANCH  19  20
ENDBRANCH   4  19
TORSDOF 7
ENDMDL
MODEL 2
REMARK VINA RESULT:      -6.4      0.944      1.190
REMARK  Name = 
REMARK  12 active torsions:
REMARK  status: ('A' for Active; 'I' for Inactive)
REMARK    1  A    between atoms: C_1  and  N_2
REMARK    2  A    between atoms: N_2  and  C_3
REMARK    3  A    between atoms: C_4  and  C_6
REMARK    4  A    between atoms: C_10  and  C_11
REMARK    5  A    between atoms: C_11  and  N_12
REMARK    6  A    between atoms: N_15  and  C_16
REMARK    7  A    between atoms: C_16  and  C_17
REMARK    8  A    between atoms: C_17  and  O_18
REMARK    9  A    between atoms: C_17  and  C_19
REMARK   10  A    between atoms: C_19  and  C_20
REMARK   11  A    between atoms: C_19  and  C_21
REMARK   12  A    between atoms: C_19  and  C_22
REMARK                            x       y       z     vdW  Elec       q    Type
REMARK                         _______ _______ _______ _____ _____    ______ ____
ROOT
ATOM      1  N   UNL     1       0.044   8.831  21.074  0.00  0.00    +0.000 NA
ATOM      2  C   UNL     1      -0.636   8.644  22.373  0.00  0.00    +0.000 C 
ATOM      3  C   UNL     1      -0.311   9.713  23.447  0.00  0.00    +0.000 C 
ATOM      4  N   UNL     1      -0.509  11.118  23.029  0.00  0.00    +0.000 NA
ATOM      5  C   UNL     1       0.097  11.323  21.692  0.00  0.00    +0.000 C 
ATOM      6  C   UNL     1      -0.184  10.223  20.634  0.00  0.00    +0.000 C 
ENDROOT
BRANCH   1   7
ATOM      7  C   UNL     1       1.488   8.499  21.122  0.00  0.00    +0.000 C 
BRANCH   7  12
ATOM      8  C   UNL     1       3.072   5.780  18.888  0.00  0.00    +0.000 A 
ATOM      9  C   UNL     1       3.107   6.424  17.651  0.00  0.00    +0.000 A 
ATOM     10  C   UNL     1       2.693   7.754  17.542  0.00  0.00    +0.000 A 
ATOM     11  C   UNL     1       2.187   8.430  18.656  0.00  0.00    +0.000 A 
ATOM     12  C   UNL     1       2.040   7.782  19.890  0.00  0.00    +0.000 A 
ATOM     13  C   UNL     1       2.508   6.454  19.993  0.00  0.00    +0.000 A 
BRANCH   8  17
ATOM     14  C   UNL     1       3.227   1.959  19.065  0.00  0.00    +0.000 C 
ATOM     15  N   UNL     1       2.635   3.289  18.979  0.00  0.00    +0.000 N 
ATOM     16  C   UNL     1       1.314   3.369  18.366  0.00  0.00    +0.000 C 
ATOM     17  C   UNL     1       3.537   4.368  19.058  0.00  0.00    +0.000 C 
ATOM     18  O   UNL     1       4.742   4.192  19.246  0.00  0.00    +0.000 OA
ENDBRANCH   8  17
ENDBRANCH   7  12
ENDBRANCH   1   7
BRANCH   4  19
ATOM     19  C   UNL     1      -1.922  11.549  23.048  0.00  0.00    +0.000 C 
BRANCH  19  20
ATOM     20  C   UNL     1      -2.229  12.948  22.412  0.00  0.00    +0.000 C 
BRANCH  20  21
ATOM     21  C   UNL     1      -2.819  13.998  23.412  0.00  0.00    +0.000 C 
ATOM     22  C   UNL     1      -1.685  14.739  24.142  0.00  0.00    +0.000 C 
ATOM     23  C   UNL     1      -3.649  15.050  22.640  0.00  0.00    +0.000 C 
ATOM     24  C   UNL     1      -3.750  13.343  24.451  0.00  0.00    +0.000 C 
ENDBRANCH  20  21
BRANCH  20  25
ATOM     25  O   UNL     1      -3.128  12.810  21.301  0.00  0.00    +0.000 OA
ATOM     26  H   UNL     1      -2.889  13.480  20.638  0.00  0.00    +0.000 HD
ENDBRANCH  20  25
ENDBRANCH  19  20
ENDBRANCH   4  19
TORSDOF 7
ENDMDL
MODEL 3
REMARK VINA RESULT:      -6.4      1.228      1.569
REMARK  Name = 
REMARK  12 active torsions:
REMARK  status: ('A' for Active; 'I' for Inactive)
REMARK    1  A    between atoms: C_1  and  N_2
REMARK    2  A    between atoms: N_2  and  C_3
REMARK    3  A    between atoms: C_4  and  C_6
REMARK    4  A    between atoms: C_10  and  C_11
REMARK    5  A    between atoms: C_11  and  N_12
REMARK    6  A    between atoms: N_15  and  C_16
REMARK    7  A    between atoms: C_16  and  C_17
REMARK    8  A    between atoms: C_17  and  O_18
REMARK    9  A    between atoms: C_17  and  C_19
REMARK   10  A    between atoms: C_19  and  C_20
REMARK   11  A    between atoms: C_19  and  C_21
REMARK   12  A    between atoms: C_19  and  C_22
REMARK                            x       y       z     vdW  Elec       q    Type
REMARK                         _______ _______ _______ _____ _____    ______ ____
ROOT
ATOM      1  N   UNL     1       0.002   8.956  21.011  0.00  0.00    +0.000 NA
ATOM      2  C   UNL     1      -0.649   8.805  22.329  0.00  0.00    +0.000 C 
ATOM      3  C   UNL     1      -0.290   9.896  23.370  0.00  0.00    +0.000 C 
ATOM      4  N   UNL     1      -0.487  11.293  22.924  0.00  0.00    +0.000 NA
ATOM      5  C   UNL     1       0.088  11.461  21.569  0.00  0.00    +0.000 C 
ATOM      6  C   UNL     1      -0.226  10.340  20.544  0.00  0.00    +0.000 C 
ENDROOT
BRANCH   1   7
ATOM      7  C   UNL     1       1.443   8.613  21.032  0.00  0.00    +0.000 C 
BRANCH   7  12
ATOM      8  C   UNL     1       2.665   5.507  19.097  0.00  0.00    +0.000 A 
ATOM      9  C   UNL     1       2.855   6.033  17.819  0.00  0.00    +0.000 A 
ATOM     10  C   UNL     1       2.663   7.398  17.589  0.00  0.00    +0.000 A 
ATOM     11  C   UNL     1       2.226   8.234  18.620  0.00  0.00    +0.000 A 
ATOM     12  C   UNL     1       1.925   7.720  19.890  0.00  0.00    +0.000 A 
ATOM     13  C   UNL     1       2.171   6.348  20.116  0.00  0.00    +0.000 A 
BRANCH   8  17
ATOM     14  C   UNL     1       4.273   2.077  19.653  0.00  0.00    +0.000 C 
ATOM     15  N   UNL     1       4.160   3.469  19.235  0.00  0.00    +0.000 N 
ATOM     16  C   UNL     1       5.407   4.221  19.152  0.00  0.00    +0.000 C 
ATOM     17  C   UNL     1       2.891   4.058  19.398  0.00  0.00    +0.000 C 
ATOM     18  O   UNL     1       1.927   3.414  19.816  0.00  0.00    +0.000 OA
ENDBRANCH   8  17
ENDBRANCH   7  12
ENDBRANCH   1   7
BRANCH   4  19
ATOM     19  C   UNL     1      -1.896  11.736  22.967  0.00  0.00    +0.000 C 
BRANCH  19  20
ATOM     20  C   UNL     1      -2.140  13.237  23.341  0.00  0.00    +0.000 C 
BRANCH  20  21
ATOM     21  C   UNL     1      -2.684  14.117  22.166  0.00  0.00    +0.000 C 
ATOM     22  C   UNL     1      -3.863  14.983  22.647  0.00  0.00    +0.000 C 
ATOM     23  C   UNL     1      -1.574  15.070  21.665  0.00  0.00    +0.000 C 
ATOM     24  C   UNL     1      -3.138  13.260  20.968  0.00  0.00    +0.000 C 
ENDBRANCH  20  21
BRANCH  20  25
ATOM     25  O   UNL     1      -0.935  13.834  23.846  0.00  0.00    +0.000 OA
ATOM     26  H   UNL     1      -0.204  13.216  23.679  0.00  0.00    +0.000 HD
ENDBRANCH  20  25
ENDBRANCH  19  20
ENDBRANCH   4  19
TORSDOF 7
ENDMDL
MODEL 4
REMARK VINA RESULT:      -6.4      2.772      4.185
REMARK  Name = 
REMARK  12 active torsions:
REMARK  status: ('A' for Active; 'I' for Inactive)
REMARK    1  A    between atoms: C_1  and  N_2
REMARK    2  A    between atoms: N_2  and  C_3
REMARK    3  A    between atoms: C_4  and  C_6
REMARK    4  A    between atoms: C_10  and  C_11
REMARK    5  A    between atoms: C_11  and  N_12
REMARK    6  A    between atoms: N_15  and  C_16
REMARK    7  A    between atoms: C_16  and  C_17
REMARK    8  A    between atoms: C_17  and  O_18
REMARK    9  A    between atoms: C_17  and  C_19
REMARK   10  A    between atoms: C_19  and  C_20
REMARK   11  A    between atoms: C_19  and  C_21
REMARK   12  A    between atoms: C_19  and  C_22
REMARK                            x       y       z     vdW  Elec       q    Type
REMARK                         _______ _______ _______ _____ _____    ______ ____
ROOT
ATOM      1  N   UNL     1       1.621   8.376  20.868  0.00  0.00    +0.000 NA
ATOM      2  C   UNL     1       1.224   9.177  19.692  0.00  0.00    +0.000 C 
ATOM      3  C   UNL     1      -0.208   9.769  19.751  0.00  0.00    +0.000 C 
ATOM      4  N   UNL     1      -0.523  10.556  20.964  0.00  0.00    +0.000 NA
ATOM      5  C   UNL     1      -0.068   9.813  22.163  0.00  0.00    +0.000 C 
ATOM      6  C   UNL     1       1.344   9.173  22.081  0.00  0.00    +0.000 C 
ENDROOT
BRANCH   1   7
ATOM      7  C   UNL     1       0.960   7.051  20.919  0.00  0.00    +0.000 C 
BRANCH   7  12
ATOM      8  C   UNL     1       3.925   5.021  19.512  0.00  0.00    +0.000 A 
ATOM      9  C   UNL     1       3.431   3.718  19.591  0.00  0.00    +0.000 A 
ATOM     10  C   UNL     1       2.122   3.491  20.025  0.00  0.00    +0.000 A 
ATOM     11  C   UNL     1       1.319   4.558  20.437  0.00  0.00    +0.000 A 
ATOM     12  C   UNL     1       1.818   5.868  20.470  0.00  0.00    +0.000 A 
ATOM     13  C   UNL     1       3.125   6.084  19.983  0.00  0.00    +0.000 A 
BRANCH   8  17
ATOM     14  C   UNL     1       6.912   6.139  17.394  0.00  0.00    +0.000 C 
ATOM     15  N   UNL     1       5.531   5.800  17.718  0.00  0.00    +0.000 N 
ATOM     16  C   UNL     1       4.503   6.417  16.887  0.00  0.00    +0.000 C 
ATOM     17  C   UNL     1       5.307   5.314  19.021  0.00  0.00    +0.000 C 
ATOM     18  O   UNL     1       6.234   5.135  19.814  0.00  0.00    +0.000 OA
ENDBRANCH   8  17
ENDBRANCH   7  12
ENDBRANCH   1   7
BRANCH   4  19
ATOM     19  C   UNL     1       0.027  11.926  20.942  0.00  0.00    +0.000 C 
BRANCH  19  20
ATOM     20  C   UNL     1       0.130  12.611  19.537  0.00  0.00    +0.000 C 
BRANCH  20  21
ATOM     21  C   UNL     1       1.440  13.437  19.314  0.00  0.00    +0.000 C 
ATOM     22  C   UNL     1       2.252  13.519  20.620  0.00  0.00    +0.000 C 
ATOM     23  C   UNL     1       2.325  12.743  18.253  0.00  0.00    +0.000 C 
ATOM     24  C   UNL     1       1.143  14.863  18.810  0.00  0.00    +0.000 C 
ENDBRANCH  20  21
BRANCH  20  25
ATOM     25  O   UNL     1      -1.001  13.465  19.308  0.00  0.00    +0.000 OA
ATOM     26  H   UNL     1      -1.449  13.159  18.502  0.00  0.00    +0.000 HD
ENDBRANCH  20  25
ENDBRANCH  19  20
ENDBRANCH   4  19
TORSDOF 7
ENDMDL
MODEL 5
REMARK VINA RESULT:      -6.3      1.830      2.159
REMARK  Name = 
REMARK  12 active torsions:
REMARK  status: ('A' for Active; 'I' for Inactive)
REMARK    1  A    between atoms: C_1  and  N_2
REMARK    2  A    between atoms: N_2  and  C_3
REMARK    3  A    between atoms: C_4  and  C_6
REMARK    4  A    between atoms: C_10  and  C_11
REMARK    5  A    between atoms: C_11  and  N_12
REMARK    6  A    between atoms: N_15  and  C_16
REMARK    7  A    between atoms: C_16  and  C_17
REMARK    8  A    between atoms: C_17  and  O_18
REMARK    9  A    between atoms: C_17  and  C_19
REMARK   10  A    between atoms: C_19  and  C_20
REMARK   11  A    between atoms: C_19  and  C_21
REMARK   12  A    between atoms: C_19  and  C_22
REMARK                            x       y       z     vdW  Elec       q    Type
REMARK                         _______ _______ _______ _____ _____    ______ ____
ROOT
ATOM      1  N   UNL     1       0.698   9.233  18.923  0.00  0.00    +0.000 NA
ATOM      2  C   UNL     1       0.848   9.319  20.390  0.00  0.00    +0.000 C 
ATOM      3  C   UNL     1       1.191  10.729  20.936  0.00  0.00    +0.000 C 
ATOM      4  N   UNL     1       0.284  11.816  20.508  0.00  0.00    +0.000 NA
ATOM      5  C   UNL     1       0.051  11.715  19.048  0.00  0.00    +0.000 C 
ATOM      6  C   UNL     1      -0.237  10.294  18.494  0.00  0.00    +0.000 C 
ENDROOT
BRANCH   1   7
ATOM      7  C   UNL     1       1.990   9.315  18.201  0.00  0.00    +0.000 C 
BRANCH   7  12
ATOM      8  C   UNL     1       2.576   5.514  17.899  0.00  0.00    +0.000 A 
ATOM      9  C   UNL     1       3.870   5.474  17.377  0.00  0.00    +0.000 A 
ATOM     10  C   UNL     1       4.585   6.659  17.189  0.00  0.00    +0.000 A 
ATOM     11  C   UNL     1       3.993   7.894  17.467  0.00  0.00    +0.000 A 
ATOM     12  C   UNL     1       2.660   7.977  17.893  0.00  0.00    +0.000 A 
ATOM     13  C   UNL     1       1.969   6.768  18.123  0.00  0.00    +0.000 A 
BRANCH   8  17
ATOM     14  C   UNL     1       1.126   2.333  19.460  0.00  0.00    +0.000 C 
ATOM     15  N   UNL     1       2.028   3.464  19.279  0.00  0.00    +0.000 N 
ATOM     16  C   UNL     1       2.742   3.917  20.468  0.00  0.00    +0.000 C 
ATOM     17  C   UNL     1       1.785   4.269  18.148  0.00  0.00    +0.000 C 
ATOM     18  O   UNL     1       0.899   3.994  17.337  0.00  0.00    +0.000 OA
ENDBRANCH   8  17
ENDBRANCH   7  12
ENDBRANCH   1   7
BRANCH   4  19
ATOM     19  C   UNL     1      -0.991  11.854  21.253  0.00  0.00    +0.000 C 
BRANCH  19  20
ATOM     20  C   UNL     1      -0.977  12.631  22.613  0.00  0.00    +0.000 C 
BRANCH  20  21
ATOM     21  C   UNL     1      -2.344  13.294  22.992  0.00  0.00    +0.000 C 
ATOM     22  C   UNL     1      -3.301  12.247  23.590  0.00  0.00    +0.000 C 
ATOM     23  C   UNL     1      -2.117  14.388  24.061  0.00  0.00    +0.000 C 
ATOM     24  C   UNL     1      -3.016  13.963  21.777  0.00  0.00    +0.000 C 
ENDBRANCH  20  21
BRANCH  20  25
ATOM     25  O   UNL     1       0.042  13.641  22.607  0.00  0.00    +0.000 OA
ATOM     26  H   UNL     1       0.156  13.944  21.691  0.00  0.00    +0.000 HD
ENDBRANCH  20  25
ENDBRANCH  19  20
ENDBRANCH   4  19
TORSDOF 7
ENDMDL
MODEL 6
REMARK VINA RESULT:      -6.3      2.054      2.729
REMARK  Name = 
REMARK  12 active torsions:
REMARK  status: ('A' for Active; 'I' for Inactive)
REMARK    1  A    between atoms: C_1  and  N_2
REMARK    2  A    between atoms: N_2  and  C_3
REMARK    3  A    between atoms: C_4  and  C_6
REMARK    4  A    between atoms: C_10  and  C_11
REMARK    5  A    between atoms: C_11  and  N_12
REMARK    6  A    between atoms: N_15  and  C_16
REMARK    7  A    between atoms: C_16  and  C_17
REMARK    8  A    between atoms: C_17  and  O_18
REMARK    9  A    between atoms: C_17  and  C_19
REMARK   10  A    between atoms: C_19  and  C_20
REMARK   11  A    between atoms: C_19  and  C_21
REMARK   12  A    between atoms: C_19  and  C_22
REMARK                            x       y       z     vdW  Elec       q    Type
REMARK                         _______ _______ _______ _____ _____    ______ ____
ROOT
ATOM      1  N   UNL     1       1.629  10.120  19.107  0.00  0.00    +0.000 NA
ATOM      2  C   UNL     1       1.471  11.563  18.833  0.00  0.00    +0.000 C 
ATOM      3  C   UNL     1       0.007  12.047  18.671  0.00  0.00    +0.000 C 
ATOM      4  N   UNL     1      -0.908  11.692  19.778  0.00  0.00    +0.000 NA
ATOM      5  C   UNL     1      -0.722  10.265  20.130  0.00  0.00    +0.000 C 
ATOM      6  C   UNL     1       0.745   9.769  20.238  0.00  0.00    +0.000 C 
ENDROOT
BRANCH   1   7
ATOM      7  C   UNL     1       1.367   9.271  17.921  0.00  0.00    +0.000 C 
BRANCH   7  12
ATOM      8  C   UNL     1       2.454   5.575  18.137  0.00  0.00    +0.000 A 
ATOM      9  C   UNL     1       3.767   5.645  17.671  0.00  0.00    +0.000 A 
ATOM     10  C   UNL     1       4.333   6.883  17.356  0.00  0.00    +0.000 A 
ATOM     11  C   UNL     1       3.573   8.052  17.450  0.00  0.00    +0.000 A 
ATOM     12  C   UNL     1       2.219   8.007  17.814  0.00  0.00    +0.000 A 
ATOM     13  C   UNL     1       1.679   6.753  18.174  0.00  0.00    +0.000 A 
BRANCH   8  17
ATOM     14  C   UNL     1       1.162   2.552  20.101  0.00  0.00    +0.000 C 
ATOM     15  N   UNL     1       1.906   3.778  19.833  0.00  0.00    +0.000 N 
ATOM     16  C   UNL     1       2.247   4.592  20.995  0.00  0.00    +0.000 C 
ATOM     17  C   UNL     1       1.818   4.275  18.518  0.00  0.00    +0.000 C 
ATOM     18  O   UNL     1       1.197   3.675  17.639  0.00  0.00    +0.000 OA
ENDBRANCH   8  17
ENDBRANCH   7  12
ENDBRANCH   1   7
BRANCH   4  19
ATOM     19  C   UNL     1      -0.768  12.560  20.964  0.00  0.00    +0.000 C 
BRANCH  19  20
ATOM     20  C   UNL     1      -1.953  13.545  21.248  0.00  0.00    +0.000 C 
BRANCH  20  21
ATOM     21  C   UNL     1      -2.903  13.097  22.409  0.00  0.00    +0.000 C 
ATOM     22  C   UNL     1      -4.275  12.681  21.848  0.00  0.00    +0.000 C 
ATOM     23  C   UNL     1      -2.301  11.873  23.137  0.00  0.00    +0.000 C 
ATOM     24  C   UNL     1      -3.098  14.211  23.456  0.00  0.00    +0.000 C 
ENDBRANCH  20  21
BRANCH  20  25
ATOM     25  O   UNL     1      -2.735  13.747  20.061  0.00  0.00    +0.000 OA
ATOM     26  H   UNL     1      -3.249  14.564  20.178  0.00  0.00    +0.000 HD
ENDBRANCH  20  25
ENDBRANCH  19  20
ENDBRANCH   4  19
TORSDOF 7
ENDMDL
MODEL 7
REMARK VINA RESULT:      -6.3      2.005      2.455
REMARK  Name = 
REMARK  12 active torsions:
REMARK  status: ('A' for Active; 'I' for Inactive)
REMARK    1  A    between atoms: C_1  and  N_2
REMARK    2  A    between atoms: N_2  and  C_3
REMARK    3  A    between atoms: C_4  and  C_6
REMARK    4  A    between atoms: C_10  and  C_11
REMARK    5  A    between atoms: C_11  and  N_12
REMARK    6  A    between atoms: N_15  and  C_16
REMARK    7  A    between atoms: C_16  and  C_17
REMARK    8  A    between atoms: C_17  and  O_18
REMARK    9  A    between atoms: C_17  and  C_19
REMARK   10  A    between atoms: C_19  and  C_20
REMARK   11  A    between atoms: C_19  and  C_21
REMARK   12  A    between atoms: C_19  and  C_22
REMARK                            x       y       z     vdW  Elec       q    Type
REMARK                         _______ _______ _______ _____ _____    ______ ____
ROOT
ATOM      1  N   UNL     1       0.635   9.307  18.891  0.00  0.00    +0.000 NA
ATOM      2  C   UNL     1       0.700   9.542  20.349  0.00  0.00    +0.000 C 
ATOM      3  C   UNL     1       0.946  11.014  20.768  0.00  0.00    +0.000 C 
ATOM      4  N   UNL     1       0.014  12.006  20.190  0.00  0.00    +0.000 NA
ATOM      5  C   UNL     1      -0.134  11.752  18.738  0.00  0.00    +0.000 C 
ATOM      6  C   UNL     1      -0.325  10.271  18.314  0.00  0.00    +0.000 C 
ENDROOT
BRANCH   1   7
ATOM      7  C   UNL     1       1.959   9.386  18.230  0.00  0.00    +0.000 C 
BRANCH   7  12
ATOM      8  C   UNL     1       2.580   5.583  18.032  0.00  0.00    +0.000 A 
ATOM      9  C   UNL     1       3.834   5.539  17.423  0.00  0.00    +0.000 A 
ATOM     10  C   UNL     1       4.517   6.725  17.141  0.00  0.00    +0.000 A 
ATOM     11  C   UNL     1       3.928   7.962  17.412  0.00  0.00    +0.000 A 
ATOM     12  C   UNL     1       2.626   8.045  17.927  0.00  0.00    +0.000 A 
ATOM     13  C   UNL     1       1.971   6.837  18.251  0.00  0.00    +0.000 A 
BRANCH   8  17
ATOM     14  C   UNL     1       1.028   2.638  19.924  0.00  0.00    +0.000 C 
ATOM     15  N   UNL     1       1.882   3.795  19.682  0.00  0.00    +0.000 N 
ATOM     16  C   UNL     1       2.315   4.536  20.862  0.00  0.00    +0.000 C 
ATOM     17  C   UNL     1       1.827   4.339  18.384  0.00  0.00    +0.000 C 
ATOM     18  O   UNL     1       1.139   3.829  17.497  0.00  0.00    +0.000 OA
ENDBRANCH   8  17
ENDBRANCH   7  12
ENDBRANCH   1   7
BRANCH   4  19
ATOM     19  C   UNL     1      -1.300  12.049  20.863  0.00  0.00    +0.000 C 
BRANCH  19  20
ATOM     20  C   UNL     1      -1.973  13.459  20.982  0.00  0.00    +0.000 C 
BRANCH  20  21
ATOM     21  C   UNL     1      -2.476  13.817  22.420  0.00  0.00    +0.000 C 
ATOM     22  C   UNL     1      -1.301  13.810  23.416  0.00  0.00    +0.000 C 
ATOM     23  C   UNL     1      -3.088  15.237  22.424  0.00  0.00    +0.000 C 
ATOM     24  C   UNL     1      -3.563  12.840  22.910  0.00  0.00    +0.000 C 
ENDBRANCH  20  21
BRANCH  20  25
ATOM     25  O   UNL     1      -3.073  13.571  20.065  0.00  0.00    +0.000 OA
ATOM     26  H   UNL     1      -3.213  12.700  19.660  0.00  0.00    +0.000 HD
ENDBRANCH  20  25
ENDBRANCH  19  20
ENDBRANCH   4  19
TORSDOF 7
ENDMDL
MODEL 8
REMARK VINA RESULT:      -6.3      1.559      2.358
REMARK  Name = 
REMARK  12 active torsions:
REMARK  status: ('A' for Active; 'I' for Inactive)
REMARK    1  A    between atoms: C_1  and  N_2
REMARK    2  A    between atoms: N_2  and  C_3
REMARK    3  A    between atoms: C_4  and  C_6
REMARK    4  A    between atoms: C_10  and  C_11
REMARK    5  A    between atoms: C_11  and  N_12
REMARK    6  A    between atoms: N_15  and  C_16
REMARK    7  A    between atoms: C_16  and  C_17
REMARK    8  A    between atoms: C_17  and  O_18
REMARK    9  A    between atoms: C_17  and  C_19
REMARK   10  A    between atoms: C_19  and  C_20
REMARK   11  A    between atoms: C_19  and  C_21
REMARK   12  A    between atoms: C_19  and  C_22
REMARK                            x       y       z     vdW  Elec       q    Type
REMARK                         _______ _______ _______ _____ _____    ______ ____
ROOT
ATOM      1  N   UNL     1       0.427   8.450  20.596  0.00  0.00    +0.000 NA
ATOM      2  C   UNL     1      -0.355   8.523  21.848  0.00  0.00    +0.000 C 
ATOM      3  C   UNL     1       0.058   9.662  22.816  0.00  0.00    +0.000 C 
ATOM      4  N   UNL     1       0.097  11.017  22.226  0.00  0.00    +0.000 NA
ATOM      5  C   UNL     1       0.810  10.967  20.928  0.00  0.00    +0.000 C 
ATOM      6  C   UNL     1       0.436   9.795  19.983  0.00  0.00    +0.000 C 
ENDROOT
BRANCH   1   7
ATOM      7  C   UNL     1       1.799   7.928  20.796  0.00  0.00    +0.000 C 
BRANCH   7  12
ATOM      8  C   UNL     1       3.242   5.003  18.735  0.00  0.00    +0.000 A 
ATOM      9  C   UNL     1       2.522   3.922  19.247  0.00  0.00    +0.000 A 
ATOM     10  C   UNL     1       1.523   4.136  20.198  0.00  0.00    +0.000 A 
ATOM     11  C   UNL     1       1.274   5.421  20.688  0.00  0.00    +0.000 A 
ATOM     12  C   UNL     1       2.049   6.514  20.274  0.00  0.00    +0.000 A 
ATOM     13  C   UNL     1       3.022   6.287  19.277  0.00  0.00    +0.000 A 
BRANCH   8  17
ATOM     14  C   UNL     1       6.592   4.837  16.888  0.00  0.00    +0.000 C 
ATOM     15  N   UNL     1       5.645   5.145  17.954  0.00  0.00    +0.000 N 
ATOM     16  C   UNL     1       6.206   5.289  19.293  0.00  0.00    +0.000 C 
ATOM     17  C   UNL     1       4.299   4.826  17.691  0.00  0.00    +0.000 C 
ATOM     18  O   UNL     1       3.943   4.368  16.603  0.00  0.00    +0.000 OA
ENDBRANCH   8  17
ENDBRANCH   7  12
ENDBRANCH   1   7
BRANCH   4  19
ATOM     19  C   UNL     1      -1.234  11.641  22.083  0.00  0.00    +0.000 C 
BRANCH  19  20
ATOM     20  C   UNL     1      -1.681  12.598  23.240  0.00  0.00    +0.000 C 
BRANCH  20  21
ATOM     21  C   UNL     1      -3.010  13.376  22.959  0.00  0.00    +0.000 C 
ATOM     22  C   UNL     1      -3.832  12.659  21.872  0.00  0.00    +0.000 C 
ATOM     23  C   UNL     1      -3.870  13.426  24.243  0.00  0.00    +0.000 C 
ATOM     24  C   UNL     1      -2.745  14.830  22.520  0.00  0.00    +0.000 C 
ENDBRANCH  20  21
BRANCH  20  25
ATOM     25  O   UNL     1      -0.644  13.545  23.539  0.00  0.00    +0.000 OA
ATOM     26  H   UNL     1      -1.034  14.252  24.081  0.00  0.00    +0.000 HD
ENDBRANCH  20  25
ENDBRANCH  19  20
ENDBRANCH   4  19
TORSDOF 7
ENDMDL
MODEL 9
REMARK VINA RESULT:      -6.3      1.335      2.267
REMARK  Name = 
REMARK  12 active torsions:
REMARK  status: ('A' for Active; 'I' for Inactive)
REMARK    1  A    between atoms: C_1  and  N_2
REMARK    2  A    between atoms: N_2  and  C_3
REMARK    3  A    between atoms: C_4  and  C_6
REMARK    4  A    between atoms: C_10  and  C_11
REMARK    5  A    between atoms: C_11  and  N_12
REMARK    6  A    between atoms: N_15  and  C_16
REMARK    7  A    between atoms: C_16  and  C_17
REMARK    8  A    between atoms: C_17  and  O_18
REMARK    9  A    between atoms: C_17  and  C_19
REMARK   10  A    between atoms: C_19  and  C_20
REMARK   11  A    between atoms: C_19  and  C_21
REMARK   12  A    between atoms: C_19  and  C_22
REMARK                            x       y       z     vdW  Elec       q    Type
REMARK                         _______ _______ _______ _____ _____    ______ ____
ROOT
ATOM      1  N   UNL     1       0.438   8.229  20.747  0.00  0.00    +0.000 NA
ATOM      2  C   UNL     1      -0.393   8.370  21.960  0.00  0.00    +0.000 C 
ATOM      3  C   UNL     1       0.033   9.509  22.921  0.00  0.00    +0.000 C 
ATOM      4  N   UNL     1       0.165  10.847  22.305  0.00  0.00    +0.000 NA
ATOM      5  C   UNL     1       0.931  10.732  21.042  0.00  0.00    +0.000 C 
ATOM      6  C   UNL     1       0.542   9.556  20.105  0.00  0.00    +0.000 C 
ENDROOT
BRANCH   1   7
ATOM      7  C   UNL     1       1.773   7.645  21.020  0.00  0.00    +0.000 C 
BRANCH   7  12
ATOM      8  C   UNL     1       3.470   4.624  19.322  0.00  0.00    +0.000 A 
ATOM      9  C   UNL     1       2.463   3.661  19.401  0.00  0.00    +0.000 A 
ATOM     10  C   UNL     1       1.215   3.996  19.931  0.00  0.00    +0.000 A 
ATOM     11  C   UNL     1       0.982   5.277  20.437  0.00  0.00    +0.000 A 
ATOM     12  C   UNL     1       2.002   6.238  20.469  0.00  0.00    +0.000 A 
ATOM     13  C   UNL     1       3.242   5.897  19.886  0.00  0.00    +0.000 A 
BRANCH   8  17
ATOM     14  C   UNL     1       6.555   4.549  17.055  0.00  0.00    +0.000 C 
ATOM     15  N   UNL     1       5.188   4.836  17.475  0.00  0.00    +0.000 N 
ATOM     16  C   UNL     1       4.538   5.969  16.826  0.00  0.00    +0.000 C 
ATOM     17  C   UNL     1       4.810   4.321  18.731  0.00  0.00    +0.000 C 
ATOM     18  O   UNL     1       5.575   3.625  19.402  0.00  0.00    +0.000 OA
ENDBRANCH   8  17
ENDBRANCH   7  12
ENDBRANCH   1   7
BRANCH   4  19
ATOM     19  C   UNL     1      -1.125  11.532  22.088  0.00  0.00    +0.000 C 
BRANCH  19  20
ATOM     20  C   UNL     1      -1.486  12.671  23.101  0.00  0.00    +0.000 C 
BRANCH  20  21
ATOM     21  C   UNL     1      -2.979  13.137  23.046  0.00  0.00    +0.000 C 
ATOM     22  C   UNL     1      -3.070  14.665  23.206  0.00  0.00    +0.000 C 
ATOM     23  C   UNL     1      -3.593  12.770  21.675  0.00  0.00    +0.000 C 
ATOM     24  C   UNL     1      -3.834  12.460  24.134  0.00  0.00    +0.000 C 
ENDBRANCH  20  21
BRANCH  20  25
ATOM     25  O   UNL     1      -0.637  13.811  22.900  0.00  0.00    +0.000 OA
ATOM     26  H   UNL     1       0.010  13.833  23.625  0.00  0.00    +0.000 HD
ENDBRANCH  20  25
ENDBRANCH  19  20
ENDBRANCH   4  19
TORSDOF 7
ENDMDL
