MODEL 1
REMARK VINA RESULT:      -8.2      0.000      0.000
REMARK  Name = 
REMARK  10 active torsions:
REMARK  status: ('A' for Active; 'I' for Inactive)
REMARK    1  A    between atoms: C_1  and  O_2
REMARK    2  A    between atoms: O_2  and  C_3
REMARK    3  A    between atoms: C_5  and  C_6
REMARK    4  A    between atoms: C_7  and  C_8
REMARK    5  A    between atoms: N_10  and  C_11
REMARK    6  A    between atoms: C_11  and  C_12
REMARK    7  A    between atoms: C_12  and  C_13
REMARK    8  A    between atoms: N_16  and  C_17
REMARK    9  A    between atoms: C_17  and  C_18
REMARK   10  A    between atoms: C_28  and  O_29
REMARK                            x       y       z     vdW  Elec       q    Type
REMARK                         _______ _______ _______ _____ _____    ______ ____
ROOT
ATOM      1  C   UNL     1       8.643   9.413  18.486  0.00  0.00    +0.000 C 
ATOM      2  O   UNL     1       8.913   9.118  19.643  0.00  0.00    +0.000 OA
ATOM      3  N   UNL     1       7.986   8.586  17.605  0.00  0.00    +0.000 N 
ATOM      4  H   UNL     1       7.809   8.885  16.656  0.00  0.00    +0.000 HD
ENDROOT
BRANCH   1   6
ATOM      5  C   UNL     1       9.908  11.519  18.466  0.00  0.00    +0.000 C 
ATOM      6  C   UNL     1       8.988  10.728  17.889  0.00  0.00    +0.000 C 
BRANCH   5   9
ATOM      7  C   UNL     1       9.929  15.262  17.861  0.00  0.00    +0.000 A 
ATOM      8  C   UNL     1       9.601  13.984  18.344  0.00  0.00    +0.000 A 
ATOM      9  C   UNL     1      10.300  12.837  17.938  0.00  0.00    +0.000 A 
ATOM     10  C   UNL     1      11.324  12.985  16.997  0.00  0.00    +0.000 A 
ATOM     11  C   UNL     1      11.664  14.246  16.505  0.00  0.00    +0.000 A 
ATOM     12  C   UNL     1      10.972  15.380  16.936  0.00  0.00    +0.000 A 
BRANCH   7  14
ATOM     13  C   UNL     1       7.738  16.152  18.236  0.00  0.00    +0.000 C 
ATOM     14  O   UNL     1       9.148  16.256  18.385  0.00  0.00    +0.000 OA
ENDBRANCH   7  14
BRANCH  12  15
ATOM     15  O   UNL     1      11.345  16.590  16.420  0.00  0.00    +0.000 OA
ATOM     16  H   UNL     1      11.921  16.449  15.652  0.00  0.00    +0.000 HD
ENDBRANCH  12  15
ENDBRANCH   5   9
ENDBRANCH   1   6
BRANCH   3  17
ATOM     17  C   UNL     1       7.512   7.280  18.011  0.00  0.00    +0.000 C 
BRANCH  17  18
ATOM     18  C   UNL     1       7.186   6.385  16.812  0.00  0.00    +0.000 C 
BRANCH  18  19
ATOM     19  C   UNL     1       5.741   6.579  16.297  0.00  0.00    +0.000 C 
ATOM     20  C   UNL     1       4.691   6.625  17.415  0.00  0.00    +0.000 C 
ATOM     21  C   UNL     1       4.496   5.263  18.082  0.00  0.00    +0.000 C 
ATOM     22  N   UNL     1       4.090   4.237  17.107  0.00  0.00    +0.000 NA
ATOM     23  C   UNL     1       5.065   4.131  16.006  0.00  0.00    +0.000 C 
ATOM     24  C   UNL     1       5.331   5.473  15.314  0.00  0.00    +0.000 C 
BRANCH  22  25
ATOM     25  C   UNL     1       3.943   2.920  17.762  0.00  0.00    +0.000 C 
BRANCH  25  26
ATOM     26  C   UNL     1       2.995   2.907  18.946  0.00  0.00    +0.000 A 
ATOM     27  C   UNL     1       3.470   2.705  20.249  0.00  0.00    +0.000 A 
ATOM     28  C   UNL     1       2.589   2.703  21.334  0.00  0.00    +0.000 A 
ATOM     29  C   UNL     1       1.226   2.909  21.130  0.00  0.00    +0.000 A 
ATOM     30  C   UNL     1       0.741   3.112  19.839  0.00  0.00    +0.000 A 
ATOM     31  C   UNL     1       1.619   3.108  18.753  0.00  0.00    +0.000 A 
ENDBRANCH  25  26
ENDBRANCH  22  25
ENDBRANCH  18  19
ENDBRANCH  17  18
ENDBRANCH   3  17
TORSDOF 9
ENDMDL
MODEL 2
REMARK VINA RESULT:      -7.9      1.764      2.261
REMARK  Name = 
REMARK  10 active torsions:
REMARK  status: ('A' for Active; 'I' for Inactive)
REMARK    1  A    between atoms: C_1  and  O_2
REMARK    2  A    between atoms: O_2  and  C_3
REMARK    3  A    between atoms: C_5  and  C_6
REMARK    4  A    between atoms: C_7  and  C_8
REMARK    5  A    between atoms: N_10  and  C_11
REMARK    6  A    between atoms: C_11  and  C_12
REMARK    7  A    between atoms: C_12  and  C_13
REMARK    8  A    between atoms: N_16  and  C_17
REMARK    9  A    between atoms: C_17  and  C_18
REMARK   10  A    between atoms: C_28  and  O_29
REMARK                            x       y       z     vdW  Elec       q    Type
REMARK                         _______ _______ _______ _____ _____    ______ ____
ROOT
ATOM      1  C   UNL     1       8.140   7.839  17.768  0.00  0.00    +0.000 C 
ATOM      2  O   UNL     1       7.976   7.379  16.646  0.00  0.00    +0.000 OA
ATOM      3  N   UNL     1       8.077   7.101  18.928  0.00  0.00    +0.000 N 
ATOM      4  H   UNL     1       8.205   7.546  19.826  0.00  0.00    +0.000 HD
ENDROOT
BRANCH   1   6
ATOM      5  C   UNL     1       9.055   9.653  19.149  0.00  0.00    +0.000 C 
ATOM      6  C   UNL     1       8.444   9.271  18.015  0.00  0.00    +0.000 C 
BRANCH   5   9
ATOM      7  C   UNL     1       9.359  13.417  18.812  0.00  0.00    +0.000 A 
ATOM      8  C   UNL     1       9.056  12.068  18.558  0.00  0.00    +0.000 A 
ATOM      9  C   UNL     1       9.385  11.053  19.468  0.00  0.00    +0.000 A 
ATOM     10  C   UNL     1      10.066  11.406  20.637  0.00  0.00    +0.000 A 
ATOM     11  C   UNL     1      10.376  12.740  20.906  0.00  0.00    +0.000 A 
ATOM     12  C   UNL     1      10.022  13.742  19.999  0.00  0.00    +0.000 A 
BRANCH   7  14
ATOM     13  C   UNL     1       7.662  14.861  17.936  0.00  0.00    +0.000 C 
ATOM     14  O   UNL     1       8.945  14.261  17.817  0.00  0.00    +0.000 OA
ENDBRANCH   7  14
BRANCH  12  15
ATOM     15  O   UNL     1      10.353  15.031  20.312  0.00  0.00    +0.000 OA
ATOM     16  H   UNL     1       9.815  15.640  19.780  0.00  0.00    +0.000 HD
ENDBRANCH  12  15
ENDBRANCH   5   9
ENDBRANCH   1   6
BRANCH   3  17
ATOM     17  C   UNL     1       7.848   5.672  18.899  0.00  0.00    +0.000 C 
BRANCH  17  18
ATOM     18  C   UNL     1       6.361   5.329  18.768  0.00  0.00    +0.000 C 
BRANCH  18  19
ATOM     19  C   UNL     1       5.802   5.620  17.357  0.00  0.00    +0.000 C 
ATOM     20  C   UNL     1       4.429   6.305  17.367  0.00  0.00    +0.000 C 
ATOM     21  C   UNL     1       3.319   5.367  17.844  0.00  0.00    +0.000 C 
ATOM     22  N   UNL     1       3.231   4.164  17.000  0.00  0.00    +0.000 NA
ATOM     23  C   UNL     1       4.517   3.447  16.953  0.00  0.00    +0.000 C 
ATOM     24  C   UNL     1       5.682   4.342  16.513  0.00  0.00    +0.000 C 
BRANCH  22  25
ATOM     25  C   UNL     1       2.178   3.252  17.497  0.00  0.00    +0.000 C 
BRANCH  25  26
ATOM     26  C   UNL     1       2.194   3.028  18.997  0.00  0.00    +0.000 A 
ATOM     27  C   UNL     1       3.360   2.606  19.652  0.00  0.00    +0.000 A 
ATOM     28  C   UNL     1       3.366   2.411  21.036  0.00  0.00    +0.000 A 
ATOM     29  C   UNL     1       2.211   2.641  21.781  0.00  0.00    +0.000 A 
ATOM     30  C   UNL     1       1.046   3.061  21.142  0.00  0.00    +0.000 A 
ATOM     31  C   UNL     1       1.035   3.251  19.759  0.00  0.00    +0.000 A 
ENDBRANCH  25  26
ENDBRANCH  22  25
ENDBRANCH  18  19
ENDBRANCH  17  18
ENDBRANCH   3  17
TORSDOF 9
ENDMDL
MODEL 3
REMARK VINA RESULT:      -7.9      5.460      8.022
REMARK  Name = 
REMARK  10 active torsions:
REMARK  status: ('A' for Active; 'I' for Inactive)
REMARK    1  A    between atoms: C_1  and  O_2
REMARK    2  A    between atoms: O_2  and  C_3
REMARK    3  A    between atoms: C_5  and  C_6
REMARK    4  A    between atoms: C_7  and  C_8
REMARK    5  A    between atoms: N_10  and  C_11
REMARK    6  A    between atoms: C_11  and  C_12
REMARK    7  A    between atoms: C_12  and  C_13
REMARK    8  A    between atoms: N_16  and  C_17
REMARK    9  A    between atoms: C_17  and  C_18
REMARK   10  A    between atoms: C_28  and  O_29
REMARK                            x       y       z     vdW  Elec       q    Type
REMARK                         _______ _______ _______ _____ _____    ______ ____
ROOT
ATOM      1  C   UNL     1       2.117   7.125  19.810  0.00  0.00    +0.000 C 
ATOM      2  O   UNL     1       2.925   6.771  18.963  0.00  0.00    +0.000 OA
ATOM      3  N   UNL     1       1.658   6.325  20.832  0.00  0.00    +0.000 N 
ATOM      4  H   UNL     1       0.976   6.675  21.490  0.00  0.00    +0.000 HD
ENDROOT
BRANCH   1   6
ATOM      5  C   UNL     1       1.500   9.246  18.735  0.00  0.00    +0.000 C 
ATOM      6  C   UNL     1       1.533   8.490  19.845  0.00  0.00    +0.000 C 
BRANCH   5   9
ATOM      7  C   UNL     1      -1.028  12.071  18.653  0.00  0.00    +0.000 A 
ATOM      8  C   UNL     1      -0.448  10.792  18.704  0.00  0.00    +0.000 A 
ATOM      9  C   UNL     1       0.943  10.610  18.691  0.00  0.00    +0.000 A 
ATOM     10  C   UNL     1       1.758  11.741  18.587  0.00  0.00    +0.000 A 
ATOM     11  C   UNL     1       1.201  13.019  18.535  0.00  0.00    +0.000 A 
ATOM     12  C   UNL     1      -0.186  13.185  18.569  0.00  0.00    +0.000 A 
BRANCH   7  14
ATOM     13  C   UNL     1      -3.086  11.342  17.670  0.00  0.00    +0.000 C 
ATOM     14  O   UNL     1      -2.396  12.048  18.693  0.00  0.00    +0.000 OA
ENDBRANCH   7  14
BRANCH  12  15
ATOM     15  O   UNL     1      -0.678  14.459  18.513  0.00  0.00    +0.000 OA
ATOM     16  H   UNL     1      -1.473  14.473  17.956  0.00  0.00    +0.000 HD
ENDBRANCH  12  15
ENDBRANCH   5   9
ENDBRANCH   1   6
BRANCH   3  17
ATOM     17  C   UNL     1       2.150   4.975  21.008  0.00  0.00    +0.000 C 
BRANCH  17  18
ATOM     18  C   UNL     1       1.351   3.959  20.187  0.00  0.00    +0.000 C 
BRANCH  18  19
ATOM     19  C   UNL     1       2.142   2.658  19.914  0.00  0.00    +0.000 C 
ATOM     20  C   UNL     1       3.659   2.814  20.076  0.00  0.00    +0.000 C 
ATOM     21  C   UNL     1       4.275   3.672  18.969  0.00  0.00    +0.000 C 
ATOM     22  N   UNL     1       4.007   3.105  17.637  0.00  0.00    +0.000 NA
ATOM     23  C   UNL     1       2.561   2.938  17.407  0.00  0.00    +0.000 C 
ATOM     24  C   UNL     1       1.875   2.113  18.502  0.00  0.00    +0.000 C 
BRANCH  22  25
ATOM     25  C   UNL     1       4.577   3.966  16.578  0.00  0.00    +0.000 C 
BRANCH  25  26
ATOM     26  C   UNL     1       5.637   4.938  17.058  0.00  0.00    +0.000 A 
ATOM     27  C   UNL     1       5.525   6.312  16.803  0.00  0.00    +0.000 A 
ATOM     28  C   UNL     1       6.505   7.200  17.257  0.00  0.00    +0.000 A 
ATOM     29  C   UNL     1       7.601   6.727  17.975  0.00  0.00    +0.000 A 
ATOM     30  C   UNL     1       7.724   5.363  18.235  0.00  0.00    +0.000 A 
ATOM     31  C   UNL     1       6.751   4.473  17.777  0.00  0.00    +0.000 A 
ENDBRANCH  25  26
ENDBRANCH  22  25
ENDBRANCH  18  19
ENDBRANCH  17  18
ENDBRANCH   3  17
TORSDOF 9
ENDMDL
MODEL 4
REMARK VINA RESULT:      -7.6      3.532      4.874
REMARK  Name = 
REMARK  10 active torsions:
REMARK  status: ('A' for Active; 'I' for Inactive)
REMARK    1  A    between atoms: C_1  and  O_2
REMARK    2  A    between atoms: O_2  and  C_3
REMARK    3  A    between atoms: C_5  and  C_6
REMARK    4  A    between atoms: C_7  and  C_8
REMARK    5  A    between atoms: N_10  and  C_11
REMARK    6  A    between atoms: C_11  and  C_12
REMARK    7  A    between atoms: C_12  and  C_13
REMARK    8  A    between atoms: N_16  and  C_17
REMARK    9  A    between atoms: C_17  and  C_18
REMARK   10  A    between atoms: C_28  and  O_29
REMARK                            x       y       z     vdW  Elec       q    Type
REMARK                         _______ _______ _______ _____ _____    ______ ____
ROOT
ATOM      1  C   UNL     1       7.469   7.219  17.397  0.00  0.00    +0.000 C 
ATOM      2  O   UNL     1       7.546   6.666  16.308  0.00  0.00    +0.000 OA
ATOM      3  N   UNL     1       6.944   6.637  18.528  0.00  0.00    +0.000 N 
ATOM      4  H   UNL     1       6.893   7.155  19.395  0.00  0.00    +0.000 HD
ENDROOT
BRANCH   1   6
ATOM      5  C   UNL     1       8.774   8.871  18.661  0.00  0.00    +0.000 C 
ATOM      6  C   UNL     1       7.951   8.602  17.634  0.00  0.00    +0.000 C 
BRANCH   5   9
ATOM      7  C   UNL     1       9.753  11.962  20.627  0.00  0.00    +0.000 A 
ATOM      8  C   UNL     1       9.281  10.682  20.288  0.00  0.00    +0.000 A 
ATOM      9  C   UNL     1       9.291  10.217  18.965  0.00  0.00    +0.000 A 
ATOM     10  C   UNL     1       9.752  11.078  17.964  0.00  0.00    +0.000 A 
ATOM     11  C   UNL     1      10.224  12.352  18.280  0.00  0.00    +0.000 A 
ATOM     12  C   UNL     1      10.227  12.792  19.606  0.00  0.00    +0.000 A 
BRANCH   7  14
ATOM     13  C   UNL     1       8.458  12.744  22.484  0.00  0.00    +0.000 C 
ATOM     14  O   UNL     1       9.678  12.229  21.968  0.00  0.00    +0.000 OA
ENDBRANCH   7  14
BRANCH  12  15
ATOM     15  O   UNL     1      10.697  14.051  19.860  0.00  0.00    +0.000 OA
ATOM     16  H   UNL     1      10.070  14.520  20.433  0.00  0.00    +0.000 HD
ENDBRANCH  12  15
ENDBRANCH   5   9
ENDBRANCH   1   6
BRANCH   3  17
ATOM     17  C   UNL     1       6.471   5.269  18.521  0.00  0.00    +0.000 C 
BRANCH  17  18
ATOM     18  C   UNL     1       5.254   5.074  19.429  0.00  0.00    +0.000 C 
BRANCH  18  19
ATOM     19  C   UNL     1       3.951   4.820  18.637  0.00  0.00    +0.000 C 
ATOM     20  C   UNL     1       3.925   5.498  17.261  0.00  0.00    +0.000 C 
ATOM     21  C   UNL     1       3.813   7.020  17.367  0.00  0.00    +0.000 C 
ATOM     22  N   UNL     1       2.603   7.421  18.105  0.00  0.00    +0.000 NA
ATOM     23  C   UNL     1       2.568   6.812  19.447  0.00  0.00    +0.000 C 
ATOM     24  C   UNL     1       2.709   5.286  19.412  0.00  0.00    +0.000 C 
BRANCH  22  25
ATOM     25  C   UNL     1       2.531   8.892  18.231  0.00  0.00    +0.000 C 
BRANCH  25  26
ATOM     26  C   UNL     1       1.155   9.429  18.575  0.00  0.00    +0.000 A 
ATOM     27  C   UNL     1       0.177   9.598  17.584  0.00  0.00    +0.000 A 
ATOM     28  C   UNL     1      -1.091  10.086  17.914  0.00  0.00    +0.000 A 
ATOM     29  C   UNL     1      -1.398  10.403  19.236  0.00  0.00    +0.000 A 
ATOM     30  C   UNL     1      -0.435  10.239  20.230  0.00  0.00    +0.000 A 
ATOM     31  C   UNL     1       0.834   9.758  19.902  0.00  0.00    +0.000 A 
ENDBRANCH  25  26
ENDBRANCH  22  25
ENDBRANCH  18  19
ENDBRANCH  17  18
ENDBRANCH   3  17
TORSDOF 9
ENDMDL
MODEL 5
REMARK VINA RESULT:      -7.6      4.711      7.441
REMARK  Name = 
REMARK  10 active torsions:
REMARK  status: ('A' for Active; 'I' for Inactive)
REMARK    1  A    between atoms: C_1  and  O_2
REMARK    2  A    between atoms: O_2  and  C_3
REMARK    3  A    between atoms: C_5  and  C_6
REMARK    4  A    between atoms: C_7  and  C_8
REMARK    5  A    between atoms: N_10  and  C_11
REMARK    6  A    between atoms: C_11  and  C_12
REMARK    7  A    between atoms: C_12  and  C_13
REMARK    8  A    between atoms: N_16  and  C_17
REMARK    9  A    between atoms: C_17  and  C_18
REMARK   10  A    between atoms: C_28  and  O_29
REMARK                            x       y       z     vdW  Elec       q    Type
REMARK                         _______ _______ _______ _____ _____    ______ ____
ROOT
ATOM      1  C   UNL     1       2.242   7.057  19.822  0.00  0.00    +0.000 C 
ATOM      2  O   UNL     1       3.116   6.709  19.039  0.00  0.00    +0.000 OA
ATOM      3  N   UNL     1       1.702   6.248  20.796  0.00  0.00    +0.000 N 
ATOM      4  H   UNL     1       0.969   6.593  21.400  0.00  0.00    +0.000 HD
ENDROOT
BRANCH   1   6
ATOM      5  C   UNL     1       1.720   9.190  18.723  0.00  0.00    +0.000 C 
ATOM      6  C   UNL     1       1.658   8.422  19.822  0.00  0.00    +0.000 C 
BRANCH   5   9
ATOM      7  C   UNL     1       1.555  12.960  18.350  0.00  0.00    +0.000 A 
ATOM      8  C   UNL     1       2.030  11.639  18.420  0.00  0.00    +0.000 A 
ATOM      9  C   UNL     1       1.169  10.555  18.647  0.00  0.00    +0.000 A 
ATOM     10  C   UNL     1      -0.190  10.819  18.843  0.00  0.00    +0.000 A 
ATOM     11  C   UNL     1      -0.680  12.123  18.777  0.00  0.00    +0.000 A 
ATOM     12  C   UNL     1       0.188  13.190  18.530  0.00  0.00    +0.000 A 
BRANCH   7  14
ATOM     13  C   UNL     1       3.459  14.172  19.150  0.00  0.00    +0.000 C 
ATOM     14  O   UNL     1       2.541  13.877  18.105  0.00  0.00    +0.000 OA
ENDBRANCH   7  14
BRANCH  12  15
ATOM     15  O   UNL     1      -0.346  14.448  18.479  0.00  0.00    +0.000 OA
ATOM     16  H   UNL     1      -0.492  14.699  17.553  0.00  0.00    +0.000 HD
ENDBRANCH  12  15
ENDBRANCH   5   9
ENDBRANCH   1   6
BRANCH   3  17
ATOM     17  C   UNL     1       2.177   4.896  20.998  0.00  0.00    +0.000 C 
BRANCH  17  18
ATOM     18  C   UNL     1       1.358   3.872  20.207  0.00  0.00    +0.000 C 
BRANCH  18  19
ATOM     19  C   UNL     1       2.148   2.576  19.912  0.00  0.00    +0.000 C 
ATOM     20  C   UNL     1       3.667   2.732  20.062  0.00  0.00    +0.000 C 
ATOM     21  C   UNL     1       4.271   3.602  18.959  0.00  0.00    +0.000 C 
ATOM     22  N   UNL     1       3.991   3.051  17.623  0.00  0.00    +0.000 NA
ATOM     23  C   UNL     1       2.543   2.884  17.405  0.00  0.00    +0.000 C 
ATOM     24  C   UNL     1       1.869   2.046  18.497  0.00  0.00    +0.000 C 
BRANCH  22  25
ATOM     25  C   UNL     1       4.550   3.924  16.568  0.00  0.00    +0.000 C 
BRANCH  25  26
ATOM     26  C   UNL     1       5.601   4.904  17.052  0.00  0.00    +0.000 A 
ATOM     27  C   UNL     1       5.462   6.281  16.829  0.00  0.00    +0.000 A 
ATOM     28  C   UNL     1       6.434   7.176  17.286  0.00  0.00    +0.000 A 
ATOM     29  C   UNL     1       7.549   6.707  17.977  0.00  0.00    +0.000 A 
ATOM     30  C   UNL     1       7.699   5.341  18.206  0.00  0.00    +0.000 A 
ATOM     31  C   UNL     1       6.733   4.444  17.745  0.00  0.00    +0.000 A 
ENDBRANCH  25  26
ENDBRANCH  22  25
ENDBRANCH  18  19
ENDBRANCH  17  18
ENDBRANCH   3  17
TORSDOF 9
ENDMDL
MODEL 6
REMARK VINA RESULT:      -7.5      3.210     12.206
REMARK  Name = 
REMARK  10 active torsions:
REMARK  status: ('A' for Active; 'I' for Inactive)
REMARK    1  A    between atoms: C_1  and  O_2
REMARK    2  A    between atoms: O_2  and  C_3
REMARK    3  A    between atoms: C_5  and  C_6
REMARK    4  A    between atoms: C_7  and  C_8
REMARK    5  A    between atoms: N_10  and  C_11
REMARK    6  A    between atoms: C_11  and  C_12
REMARK    7  A    between atoms: C_12  and  C_13
REMARK    8  A    between atoms: N_16  and  C_17
REMARK    9  A    between atoms: C_17  and  C_18
REMARK   10  A    between atoms: C_28  and  O_29
REMARK                            x       y       z     vdW  Elec       q    Type
REMARK                         _______ _______ _______ _____ _____    ______ ____
ROOT
ATOM      1  C   UNL     1       7.073   6.876  17.070  0.00  0.00    +0.000 C 
ATOM      2  O   UNL     1       7.833   6.539  16.171  0.00  0.00    +0.000 OA
ATOM      3  N   UNL     1       7.293   7.937  17.917  0.00  0.00    +0.000 N 
ATOM      4  H   UNL     1       6.633   8.152  18.652  0.00  0.00    +0.000 HD
ENDROOT
BRANCH   1   6
ATOM      5  C   UNL     1       5.793   4.878  17.705  0.00  0.00    +0.000 C 
ATOM      6  C   UNL     1       5.796   6.174  17.350  0.00  0.00    +0.000 C 
BRANCH   5   9
ATOM      7  C   UNL     1       3.167   2.930  19.625  0.00  0.00    +0.000 A 
ATOM      8  C   UNL     1       4.316   3.673  19.301  0.00  0.00    +0.000 A 
ATOM      9  C   UNL     1       4.568   4.112  17.993  0.00  0.00    +0.000 A 
ATOM     10  C   UNL     1       3.660   3.759  16.990  0.00  0.00    +0.000 A 
ATOM     11  C   UNL     1       2.514   3.022  17.291  0.00  0.00    +0.000 A 
ATOM     12  C   UNL     1       2.267   2.610  18.603  0.00  0.00    +0.000 A 
BRANCH   7  14
ATOM     13  C   UNL     1       2.146   3.305  21.758  0.00  0.00    +0.000 C 
ATOM     14  O   UNL     1       3.087   2.608  20.953  0.00  0.00    +0.000 OA
ENDBRANCH   7  14
BRANCH  12  15
ATOM     15  O   UNL     1       1.131   1.888  18.842  0.00  0.00    +0.000 OA
ATOM     16  H   UNL     1       0.425   2.193  18.250  0.00  0.00    +0.000 HD
ENDBRANCH  12  15
ENDBRANCH   5   9
ENDBRANCH   1   6
BRANCH   3  17
ATOM     17  C   UNL     1       8.456   8.787  17.773  0.00  0.00    +0.000 C 
BRANCH  17  18
ATOM     18  C   UNL     1       8.323  10.088  18.569  0.00  0.00    +0.000 C 
BRANCH  18  19
ATOM     19  C   UNL     1       9.690  10.658  19.015  0.00  0.00    +0.000 C 
ATOM     20  C   UNL     1       9.592  11.645  20.185  0.00  0.00    +0.000 C 
ATOM     21  C   UNL     1       8.938  12.965  19.776  0.00  0.00    +0.000 C 
ATOM     22  N   UNL     1       9.675  13.616  18.680  0.00  0.00    +0.000 NA
ATOM     23  C   UNL     1       9.797  12.724  17.513  0.00  0.00    +0.000 C 
ATOM     24  C   UNL     1      10.418  11.367  17.863  0.00  0.00    +0.000 C 
BRANCH  22  25
ATOM     25  C   UNL     1       9.008  14.871  18.272  0.00  0.00    +0.000 C 
BRANCH  25  26
ATOM     26  C   UNL     1       9.950  16.026  17.997  0.00  0.00    +0.000 A 
ATOM     27  C   UNL     1       9.472  17.341  17.899  0.00  0.00    +0.000 A 
ATOM     28  C   UNL     1      10.351  18.400  17.653  0.00  0.00    +0.000 A 
ATOM     29  C   UNL     1      11.716  18.158  17.510  0.00  0.00    +0.000 A 
ATOM     30  C   UNL     1      12.204  16.857  17.606  0.00  0.00    +0.000 A 
ATOM     31  C   UNL     1      11.327  15.796  17.845  0.00  0.00    +0.000 A 
ENDBRANCH  25  26
ENDBRANCH  22  25
ENDBRANCH  18  19
ENDBRANCH  17  18
ENDBRANCH   3  17
TORSDOF 9
ENDMDL
MODEL 7
REMARK VINA RESULT:      -7.5      2.577      4.399
REMARK  Name = 
REMARK  10 active torsions:
REMARK  status: ('A' for Active; 'I' for Inactive)
REMARK    1  A    between atoms: C_1  and  O_2
REMARK    2  A    between atoms: O_2  and  C_3
REMARK    3  A    between atoms: C_5  and  C_6
REMARK    4  A    between atoms: C_7  and  C_8
REMARK    5  A    between atoms: N_10  and  C_11
REMARK    6  A    between atoms: C_11  and  C_12
REMARK    7  A    between atoms: C_12  and  C_13
REMARK    8  A    between atoms: N_16  and  C_17
REMARK    9  A    between atoms: C_17  and  C_18
REMARK   10  A    between atoms: C_28  and  O_29
REMARK                            x       y       z     vdW  Elec       q    Type
REMARK                         _______ _______ _______ _____ _____    ______ ____
ROOT
ATOM      1  C   UNL     1       7.354   6.323  17.418  0.00  0.00    +0.000 C 
ATOM      2  O   UNL     1       7.714   5.539  18.286  0.00  0.00    +0.000 OA
ATOM      3  N   UNL     1       6.516   5.999  16.376  0.00  0.00    +0.000 N 
ATOM      4  H   UNL     1       6.271   6.691  15.681  0.00  0.00    +0.000 HD
ENDROOT
BRANCH   1   6
ATOM      5  C   UNL     1       8.179   8.358  18.519  0.00  0.00    +0.000 C 
ATOM      6  C   UNL     1       7.777   7.746  17.393  0.00  0.00    +0.000 C 
BRANCH   5   9
ATOM      7  C   UNL     1       9.699  11.579  19.817  0.00  0.00    +0.000 A 
ATOM      8  C   UNL     1       9.280  10.242  19.711  0.00  0.00    +0.000 A 
ATOM      9  C   UNL     1       8.608   9.767  18.576  0.00  0.00    +0.000 A 
ATOM     10  C   UNL     1       8.323  10.671  17.547  0.00  0.00    +0.000 A 
ATOM     11  C   UNL     1       8.731  12.002  17.635  0.00  0.00    +0.000 A 
ATOM     12  C   UNL     1       9.418  12.455  18.764  0.00  0.00    +0.000 A 
BRANCH   7  14
ATOM     13  C   UNL     1       9.651  12.560  22.002  0.00  0.00    +0.000 C 
ATOM     14  O   UNL     1      10.353  11.850  20.990  0.00  0.00    +0.000 OA
ENDBRANCH   7  14
BRANCH  12  15
ATOM     15  O   UNL     1       9.792  13.770  18.799  0.00  0.00    +0.000 OA
ATOM     16  H   UNL     1      10.444  13.938  18.099  0.00  0.00    +0.000 HD
ENDBRANCH  12  15
ENDBRANCH   5   9
ENDBRANCH   1   6
BRANCH   3  17
ATOM     17  C   UNL     1       5.947   4.674  16.253  0.00  0.00    +0.000 C 
BRANCH  17  18
ATOM     18  C   UNL     1       4.422   4.685  16.399  0.00  0.00    +0.000 C 
BRANCH  18  19
ATOM     19  C   UNL     1       3.903   3.557  17.319  0.00  0.00    +0.000 C 
ATOM     20  C   UNL     1       2.384   3.587  17.533  0.00  0.00    +0.000 C 
ATOM     21  C   UNL     1       1.943   4.776  18.388  0.00  0.00    +0.000 C 
ATOM     22  N   UNL     1       2.596   4.762  19.707  0.00  0.00    +0.000 NA
ATOM     23  C   UNL     1       4.064   4.745  19.578  0.00  0.00    +0.000 C 
ATOM     24  C   UNL     1       4.571   3.592  18.702  0.00  0.00    +0.000 C 
BRANCH  22  25
ATOM     25  C   UNL     1       2.187   5.938  20.506  0.00  0.00    +0.000 C 
BRANCH  25  26
ATOM     26  C   UNL     1       2.017   7.215  19.706  0.00  0.00    +0.000 A 
ATOM     27  C   UNL     1       1.185   8.248  20.163  0.00  0.00    +0.000 A 
ATOM     28  C   UNL     1       1.042   9.424  19.422  0.00  0.00    +0.000 A 
ATOM     29  C   UNL     1       1.732   9.585  18.223  0.00  0.00    +0.000 A 
ATOM     30  C   UNL     1       2.563   8.567  17.758  0.00  0.00    +0.000 A 
ATOM     31  C   UNL     1       2.703   7.388  18.493  0.00  0.00    +0.000 A 
ENDBRANCH  25  26
ENDBRANCH  22  25
ENDBRANCH  18  19
ENDBRANCH  17  18
ENDBRANCH   3  17
TORSDOF 9
ENDMDL
MODEL 8
REMARK VINA RESULT:      -7.4      6.519      8.690
REMARK  Name = 
REMARK  10 active torsions:
REMARK  status: ('A' for Active; 'I' for Inactive)
REMARK    1  A    between atoms: C_1  and  O_2
REMARK    2  A    between atoms: O_2  and  C_3
REMARK    3  A    between atoms: C_5  and  C_6
REMARK    4  A    between atoms: C_7  and  C_8
REMARK    5  A    between atoms: N_10  and  C_11
REMARK    6  A    between atoms: C_11  and  C_12
REMARK    7  A    between atoms: C_12  and  C_13
REMARK    8  A    between atoms: N_16  and  C_17
REMARK    9  A    between atoms: C_17  and  C_18
REMARK   10  A    between atoms: C_28  and  O_29
REMARK                            x       y       z     vdW  Elec       q    Type
REMARK                         _______ _______ _______ _____ _____    ______ ____
ROOT
ATOM      1  C   UNL     1       5.783   4.252  18.818  0.00  0.00    +0.000 C 
ATOM      2  O   UNL     1       6.033   4.952  19.789  0.00  0.00    +0.000 OA
ATOM      3  N   UNL     1       4.982   3.134  18.850  0.00  0.00    +0.000 N 
ATOM      4  H   UNL     1       4.829   2.588  18.014  0.00  0.00    +0.000 HD
ENDROOT
BRANCH   1   6
ATOM      5  C   UNL     1       5.744   3.987  16.376  0.00  0.00    +0.000 C 
ATOM      6  C   UNL     1       6.313   4.537  17.461  0.00  0.00    +0.000 C 
BRANCH   5   9
ATOM      7  C   UNL     1       6.056   3.684  12.610  0.00  0.00    +0.000 A 
ATOM      8  C   UNL     1       5.634   3.508  13.938  0.00  0.00    +0.000 A 
ATOM      9  C   UNL     1       6.216   4.218  14.999  0.00  0.00    +0.000 A 
ATOM     10  C   UNL     1       7.268   5.093  14.712  0.00  0.00    +0.000 A 
ATOM     11  C   UNL     1       7.700   5.282  13.399  0.00  0.00    +0.000 A 
ATOM     12  C   UNL     1       7.097   4.582  12.351  0.00  0.00    +0.000 A 
BRANCH   7  14
ATOM     13  C   UNL     1       5.908   1.664  11.333  0.00  0.00    +0.000 C 
ATOM     14  O   UNL     1       5.359   2.919  11.714  0.00  0.00    +0.000 OA
ENDBRANCH   7  14
BRANCH  12  15
ATOM     15  O   UNL     1       7.562   4.803  11.085  0.00  0.00    +0.000 OA
ATOM     16  H   UNL     1       7.598   5.758  10.917  0.00  0.00    +0.000 HD
ENDBRANCH  12  15
ENDBRANCH   5   9
ENDBRANCH   1   6
BRANCH   3  17
ATOM     17  C   UNL     1       4.321   2.717  20.069  0.00  0.00    +0.000 C 
BRANCH  17  18
ATOM     18  C   UNL     1       3.133   1.790  19.794  0.00  0.00    +0.000 C 
BRANCH  18  19
ATOM     19  C   UNL     1       1.771   2.468  20.067  0.00  0.00    +0.000 C 
ATOM     20  C   UNL     1       1.173   3.165  18.838  0.00  0.00    +0.000 C 
ATOM     21  C   UNL     1       1.956   4.418  18.445  0.00  0.00    +0.000 C 
ATOM     22  N   UNL     1       2.008   5.390  19.549  0.00  0.00    +0.000 NA
ATOM     23  C   UNL     1       2.585   4.789  20.765  0.00  0.00    +0.000 C 
ATOM     24  C   UNL     1       1.863   3.506  21.195  0.00  0.00    +0.000 C 
BRANCH  22  25
ATOM     25  C   UNL     1       2.800   6.578  19.165  0.00  0.00    +0.000 C 
BRANCH  25  26
ATOM     26  C   UNL     1       2.049   7.892  19.251  0.00  0.00    +0.000 A 
ATOM     27  C   UNL     1       1.483   8.322  20.460  0.00  0.00    +0.000 A 
ATOM     28  C   UNL     1       0.799   9.539  20.531  0.00  0.00    +0.000 A 
ATOM     29  C   UNL     1       0.679  10.342  19.398  0.00  0.00    +0.000 A 
ATOM     30  C   UNL     1       1.237   9.927  18.191  0.00  0.00    +0.000 A 
ATOM     31  C   UNL     1       1.915   8.708  18.116  0.00  0.00    +0.000 A 
ENDBRANCH  25  26
ENDBRANCH  22  25
ENDBRANCH  18  19
ENDBRANCH  17  18
ENDBRANCH   3  17
TORSDOF 9
ENDMDL
MODEL 9
REMARK VINA RESULT:      -7.4      0.952      1.518
REMARK  Name = 
REMARK  10 active torsions:
REMARK  status: ('A' for Active; 'I' for Inactive)
REMARK    1  A    between atoms: C_1  and  O_2
REMARK    2  A    between atoms: O_2  and  C_3
REMARK    3  A    between atoms: C_5  and  C_6
REMARK    4  A    between atoms: C_7  and  C_8
REMARK    5  A    between atoms: N_10  and  C_11
REMARK    6  A    between atoms: C_11  and  C_12
REMARK    7  A    between atoms: C_12  and  C_13
REMARK    8  A    between atoms: N_16  and  C_17
REMARK    9  A    between atoms: C_17  and  C_18
REMARK   10  A    between atoms: C_28  and  O_29
REMARK                            x       y       z     vdW  Elec       q    Type
REMARK                         _______ _______ _______ _____ _____    ______ ____
ROOT
ATOM      1  C   UNL     1       8.351   9.137  18.212  0.00  0.00    +0.000 C 
ATOM      2  O   UNL     1       8.861   8.544  19.153  0.00  0.00    +0.000 OA
ATOM      3  N   UNL     1       7.363   8.617  17.408  0.00  0.00    +0.000 N 
ATOM      4  H   UNL     1       6.995   9.154  16.635  0.00  0.00    +0.000 HD
ENDROOT
BRANCH   1   6
ATOM      5  C   UNL     1       9.936  11.013  18.169  0.00  0.00    +0.000 C 
ATOM      6  C   UNL     1       8.734  10.519  17.828  0.00  0.00    +0.000 C 
BRANCH   5   9
ATOM      7  C   UNL     1       9.918  14.781  17.751  0.00  0.00    +0.000 A 
ATOM      8  C   UNL     1       9.539  13.466  18.067  0.00  0.00    +0.000 A 
ATOM      9  C   UNL     1      10.387  12.374  17.829  0.00  0.00    +0.000 A 
ATOM     10  C   UNL     1      11.625  12.617  17.226  0.00  0.00    +0.000 A 
ATOM     11  C   UNL     1      12.019  13.916  16.905  0.00  0.00    +0.000 A 
ATOM     12  C   UNL     1      11.171  14.994  17.167  0.00  0.00    +0.000 A 
BRANCH   7  14
ATOM     13  C   UNL     1       7.957  15.346  19.004  0.00  0.00    +0.000 C 
ATOM     14  O   UNL     1       8.966  15.711  18.072  0.00  0.00    +0.000 OA
ENDBRANCH   7  14
BRANCH  12  15
ATOM     15  O   UNL     1      11.606  16.246  16.829  0.00  0.00    +0.000 OA
ATOM     16  H   UNL     1      12.570  16.293  16.940  0.00  0.00    +0.000 HD
ENDBRANCH  12  15
ENDBRANCH   5   9
ENDBRANCH   1   6
BRANCH   3  17
ATOM     17  C   UNL     1       6.809   7.302  17.653  0.00  0.00    +0.000 C 
BRANCH  17  18
ATOM     18  C   UNL     1       7.429   6.236  16.746  0.00  0.00    +0.000 C 
BRANCH  18  19
ATOM     19  C   UNL     1       6.370   5.438  15.950  0.00  0.00    +0.000 C 
ATOM     20  C   UNL     1       5.172   6.284  15.501  0.00  0.00    +0.000 C 
ATOM     21  C   UNL     1       4.284   6.700  16.675  0.00  0.00    +0.000 C 
ATOM     22  N   UNL     1       3.776   5.528  17.408  0.00  0.00    +0.000 NA
ATOM     23  C   UNL     1       4.879   4.673  17.881  0.00  0.00    +0.000 C 
ATOM     24  C   UNL     1       5.828   4.247  16.754  0.00  0.00    +0.000 C 
BRANCH  22  25
ATOM     25  C   UNL     1       2.951   5.948  18.561  0.00  0.00    +0.000 C 
BRANCH  25  26
ATOM     26  C   UNL     1       2.304   4.808  19.323  0.00  0.00    +0.000 A 
ATOM     27  C   UNL     1       1.448   3.904  18.678  0.00  0.00    +0.000 A 
ATOM     28  C   UNL     1       0.862   2.851  19.388  0.00  0.00    +0.000 A 
ATOM     29  C   UNL     1       1.131   2.687  20.746  0.00  0.00    +0.000 A 
ATOM     30  C   UNL     1       1.981   3.579  21.398  0.00  0.00    +0.000 A 
ATOM     31  C   UNL     1       2.562   4.635  20.692  0.00  0.00    +0.000 A 
ENDBRANCH  25  26
ENDBRANCH  22  25
ENDBRANCH  18  19
ENDBRANCH  17  18
ENDBRANCH   3  17
TORSDOF 9
ENDMDL
