MODEL 1
REMARK VINA RESULT:      -9.5      0.000      0.000
REMARK  Name = 
REMARK  5 active torsions:
REMARK  status: ('A' for Active; 'I' for Inactive)
REMARK    1  A    between atoms: C_1  and  C_2
REMARK    2  A    between atoms: C_2  and  O_3
REMARK    3  A    between atoms: C_9  and  C_10
REMARK    4  A    between atoms: C_19  and  C_20
REMARK    5  A    between atoms: C_20  and  C_21
REMARK                            x       y       z     vdW  Elec       q    Type
REMARK                         _______ _______ _______ _____ _____    ______ ____
ROOT
ATOM      1  C   UNL     1       7.417   4.701  16.687  0.00  0.00    +0.000 C 
ATOM      2  C   UNL     1       5.928   4.338  16.448  0.00  0.00    +0.000 C 
ATOM      3  C   UNL     1       5.351   5.389  15.469  0.00  0.00    +0.000 C 
ATOM      4  C   UNL     1       5.039   6.751  16.128  0.00  0.00    +0.000 C 
ATOM      5  N   UNL     1       4.399   6.560  17.423  0.00  0.00    +0.000 N 
ATOM      6  C   UNL     1       3.411   7.370  17.892  0.00  0.00    +0.000 A 
ATOM      7  N   UNL     1       2.778   8.415  17.387  0.00  0.00    +0.000 NA
ATOM      8  C   UNL     1       1.855   8.720  18.389  0.00  0.00    +0.000 A 
ATOM      9  N   UNL     1       1.912   7.893  19.441  0.00  0.00    +0.000 NA
ATOM     10  O   UNL     1       2.919   7.026  19.121  0.00  0.00    +0.000 OA
ATOM     11  C   UNL     1       5.043   5.645  18.377  0.00  0.00    +0.000 C 
ATOM     12  C   UNL     1       5.114   4.238  17.784  0.00  0.00    +0.000 C 
ENDROOT
BRANCH   8  13
ATOM     13  C   UNL     1       0.885   9.813  18.368  0.00  0.00    +0.000 A 
ATOM     14  C   UNL     1      -0.420   9.639  17.898  0.00  0.00    +0.000 A 
ATOM     15  C   UNL     1      -1.321  10.712  17.900  0.00  0.00    +0.000 A 
ATOM     16  C   UNL     1      -0.928  11.963  18.370  0.00  0.00    +0.000 A 
ATOM     17  C   UNL     1       0.370  12.163  18.839  0.00  0.00    +0.000 A 
ATOM     18  C   UNL     1       1.262  11.092  18.836  0.00  0.00    +0.000 A 
ENDBRANCH   8  13
BRANCH   2  19
ATOM     19  O   UNL     1       5.994   3.059  15.804  0.00  0.00    +0.000 OA
ATOM     20  H   UNL     1       6.744   2.555  16.155  0.00  0.00    +0.000 HD
ENDBRANCH   2  19
BRANCH  12  21
ATOM     21  C   UNL     1       3.677   3.600  17.646  0.00  0.00    +0.000 C 
BRANCH  21  22
ATOM     22  C   UNL     1       2.814   3.403  18.901  0.00  0.00    +0.000 A 
ATOM     23  C   UNL     1       3.399   2.807  20.030  0.00  0.00    +0.000 A 
ATOM     24  C   UNL     1       2.678   2.613  21.216  0.00  0.00    +0.000 A 
ATOM     25  C   UNL     1       1.355   3.025  21.306  0.00  0.00    +0.000 A 
ATOM     26  C   UNL     1       0.766   3.664  20.215  0.00  0.00    +0.000 A 
ATOM     27  C   UNL     1       1.493   3.862  19.021  0.00  0.00    +0.000 A 
ENDBRANCH  21  22
ENDBRANCH  12  21
TORSDOF 4
ENDMDL
MODEL 2
REMARK VINA RESULT:      -9.5      0.112      1.338
REMARK  Name = 
REMARK  5 active torsions:
REMARK  status: ('A' for Active; 'I' for Inactive)
REMARK    1  A    between atoms: C_1  and  C_2
REMARK    2  A    between atoms: C_2  and  O_3
REMARK    3  A    between atoms: C_9  and  C_10
REMARK    4  A    between atoms: C_19  and  C_20
REMARK    5  A    between atoms: C_20  and  C_21
REMARK                            x       y       z     vdW  Elec       q    Type
REMARK                         _______ _______ _______ _____ _____    ______ ____
ROOT
ATOM      1  C   UNL     1       7.441   4.723  16.568  0.00  0.00    +0.000 C 
ATOM      2  C   UNL     1       5.951   4.333  16.389  0.00  0.00    +0.000 C 
ATOM      3  C   UNL     1       5.322   5.357  15.413  0.00  0.00    +0.000 C 
ATOM      4  C   UNL     1       5.012   6.726  16.059  0.00  0.00    +0.000 C 
ATOM      5  N   UNL     1       4.421   6.548  17.379  0.00  0.00    +0.000 N 
ATOM      6  C   UNL     1       3.438   7.351  17.869  0.00  0.00    +0.000 A 
ATOM      7  N   UNL     1       2.771   8.377  17.369  0.00  0.00    +0.000 NA
ATOM      8  C   UNL     1       1.879   8.685  18.398  0.00  0.00    +0.000 A 
ATOM      9  N   UNL     1       1.986   7.878  19.461  0.00  0.00    +0.000 NA
ATOM     10  O   UNL     1       2.995   7.022  19.121  0.00  0.00    +0.000 OA
ATOM     11  C   UNL     1       5.114   5.661  18.325  0.00  0.00    +0.000 C 
ATOM     12  C   UNL     1       5.187   4.244  17.755  0.00  0.00    +0.000 C 
ENDROOT
BRANCH   8  13
ATOM     13  C   UNL     1       0.891   9.763  18.393  0.00  0.00    +0.000 A 
ATOM     14  C   UNL     1       1.171  11.029  18.917  0.00  0.00    +0.000 A 
ATOM     15  C   UNL     1       0.198  12.036  18.888  0.00  0.00    +0.000 A 
ATOM     16  C   UNL     1      -1.057  11.790  18.338  0.00  0.00    +0.000 A 
ATOM     17  C   UNL     1      -1.362  10.533  17.813  0.00  0.00    +0.000 A 
ATOM     18  C   UNL     1      -0.390   9.535  17.844  0.00  0.00    +0.000 A 
ENDBRANCH   8  13
BRANCH   2  19
ATOM     19  O   UNL     1       6.015   3.044  15.766  0.00  0.00    +0.000 OA
ATOM     20  H   UNL     1       5.331   2.976  15.083  0.00  0.00    +0.000 HD
ENDBRANCH   2  19
BRANCH  12  21
ATOM     21  C   UNL     1       3.756   3.581  17.680  0.00  0.00    +0.000 C 
BRANCH  21  22
ATOM     22  C   UNL     1       2.938   3.403  18.967  0.00  0.00    +0.000 A 
ATOM     23  C   UNL     1       1.590   3.797  18.965  0.00  0.00    +0.000 A 
ATOM     24  C   UNL     1       0.779   3.647  20.097  0.00  0.00    +0.000 A 
ATOM     25  C   UNL     1       1.293   3.083  21.258  0.00  0.00    +0.000 A 
ATOM     26  C   UNL     1       2.614   2.638  21.270  0.00  0.00    +0.000 A 
ATOM     27  C   UNL     1       3.432   2.787  20.128  0.00  0.00    +0.000 A 
ENDBRANCH  21  22
ENDBRANCH  12  21
TORSDOF 4
ENDMDL
MODEL 3
REMARK VINA RESULT:      -9.3      0.709      1.028
REMARK  Name = 
REMARK  5 active torsions:
REMARK  status: ('A' for Active; 'I' for Inactive)
REMARK    1  A    between atoms: C_1  and  C_2
REMARK    2  A    between atoms: C_2  and  O_3
REMARK    3  A    between atoms: C_9  and  C_10
REMARK    4  A    between atoms: C_19  and  C_20
REMARK    5  A    between atoms: C_20  and  C_21
REMARK                            x       y       z     vdW  Elec       q    Type
REMARK                         _______ _______ _______ _____ _____    ______ ____
ROOT
ATOM      1  C   UNL     1       7.379   4.747  16.751  0.00  0.00    +0.000 C 
ATOM      2  C   UNL     1       5.892   4.358  16.540  0.00  0.00    +0.000 C 
ATOM      3  C   UNL     1       5.241   5.475  15.688  0.00  0.00    +0.000 C 
ATOM      4  C   UNL     1       4.918   6.758  16.484  0.00  0.00    +0.000 C 
ATOM      5  N   UNL     1       4.341   6.427  17.780  0.00  0.00    +0.000 N 
ATOM      6  C   UNL     1       3.351   7.156  18.363  0.00  0.00    +0.000 A 
ATOM      7  N   UNL     1       2.666   8.221  17.985  0.00  0.00    +0.000 NA
ATOM      8  C   UNL     1       1.779   8.401  19.048  0.00  0.00    +0.000 A 
ATOM      9  N   UNL     1       1.906   7.483  20.014  0.00  0.00    +0.000 NA
ATOM     10  O   UNL     1       2.923   6.684  19.574  0.00  0.00    +0.000 OA
ATOM     11  C   UNL     1       5.053   5.450  18.617  0.00  0.00    +0.000 C 
ATOM     12  C   UNL     1       5.141   4.107  17.893  0.00  0.00    +0.000 C 
ENDROOT
BRANCH   8  13
ATOM     13  C   UNL     1       0.776   9.458  19.169  0.00  0.00    +0.000 A 
ATOM     14  C   UNL     1       0.559  10.140  20.371  0.00  0.00    +0.000 A 
ATOM     15  C   UNL     1      -0.408  11.152  20.443  0.00  0.00    +0.000 A 
ATOM     16  C   UNL     1      -1.163  11.489  19.323  0.00  0.00    +0.000 A 
ATOM     17  C   UNL     1      -0.968  10.819  18.115  0.00  0.00    +0.000 A 
ATOM     18  C   UNL     1      -0.004   9.815  18.047  0.00  0.00    +0.000 A 
ENDBRANCH   8  13
BRANCH   2  19
ATOM     19  O   UNL     1       5.968   3.147  15.777  0.00  0.00    +0.000 OA
ATOM     20  H   UNL     1       6.877   3.013  15.466  0.00  0.00    +0.000 HD
ENDBRANCH   2  19
BRANCH  12  21
ATOM     21  C   UNL     1       3.719   3.436  17.754  0.00  0.00    +0.000 C 
BRANCH  21  22
ATOM     22  C   UNL     1       2.836   3.273  19.000  0.00  0.00    +0.000 A 
ATOM     23  C   UNL     1       3.417   2.761  20.172  0.00  0.00    +0.000 A 
ATOM     24  C   UNL     1       2.677   2.603  21.351  0.00  0.00    +0.000 A 
ATOM     25  C   UNL     1       1.337   2.968  21.392  0.00  0.00    +0.000 A 
ATOM     26  C   UNL     1       0.750   3.524  20.256  0.00  0.00    +0.000 A 
ATOM     27  C   UNL     1       1.496   3.686  19.068  0.00  0.00    +0.000 A 
ENDBRANCH  21  22
ENDBRANCH  12  21
TORSDOF 4
ENDMDL
MODEL 4
REMARK VINA RESULT:      -8.6      2.531      4.605
REMARK  Name = 
REMARK  5 active torsions:
REMARK  status: ('A' for Active; 'I' for Inactive)
REMARK    1  A    between atoms: C_1  and  C_2
REMARK    2  A    between atoms: C_2  and  O_3
REMARK    3  A    between atoms: C_9  and  C_10
REMARK    4  A    between atoms: C_19  and  C_20
REMARK    5  A    between atoms: C_20  and  C_21
REMARK                            x       y       z     vdW  Elec       q    Type
REMARK                         _______ _______ _______ _____ _____    ______ ____
ROOT
ATOM      1  C   UNL     1       3.128   1.407  18.419  0.00  0.00    +0.000 C 
ATOM      2  C   UNL     1       3.939   2.319  19.377  0.00  0.00    +0.000 C 
ATOM      3  C   UNL     1       3.068   2.557  20.633  0.00  0.00    +0.000 C 
ATOM      4  C   UNL     1       1.934   3.584  20.421  0.00  0.00    +0.000 C 
ATOM      5  N   UNL     1       2.416   4.732  19.665  0.00  0.00    +0.000 N 
ATOM      6  C   UNL     1       2.010   6.007  19.906  0.00  0.00    +0.000 A 
ATOM      7  N   UNL     1       1.196   6.546  20.798  0.00  0.00    +0.000 NA
ATOM      8  C   UNL     1       1.283   7.908  20.499  0.00  0.00    +0.000 A 
ATOM      9  N   UNL     1       2.118   8.184  19.490  0.00  0.00    +0.000 NA
ATOM     10  O   UNL     1       2.583   6.957  19.106  0.00  0.00    +0.000 OA
ATOM     11  C   UNL     1       3.136   4.471  18.409  0.00  0.00    +0.000 C 
ATOM     12  C   UNL     1       4.396   3.652  18.690  0.00  0.00    +0.000 C 
ENDROOT
BRANCH   8  13
ATOM     13  C   UNL     1       0.568   8.989  21.175  0.00  0.00    +0.000 A 
ATOM     14  C   UNL     1       0.331   8.974  22.553  0.00  0.00    +0.000 A 
ATOM     15  C   UNL     1      -0.353  10.034  23.164  0.00  0.00    +0.000 A 
ATOM     16  C   UNL     1      -0.805  11.112  22.407  0.00  0.00    +0.000 A 
ATOM     17  C   UNL     1      -0.586  11.146  21.029  0.00  0.00    +0.000 A 
ATOM     18  C   UNL     1       0.096  10.091  20.427  0.00  0.00    +0.000 A 
ENDBRANCH   8  13
BRANCH   2  19
ATOM     19  O   UNL     1       5.077   1.516  19.718  0.00  0.00    +0.000 OA
ATOM     20  H   UNL     1       4.784   0.631  19.983  0.00  0.00    +0.000 HD
ENDBRANCH   2  19
BRANCH  12  21
ATOM     21  C   UNL     1       5.458   4.493  19.501  0.00  0.00    +0.000 C 
BRANCH  21  22
ATOM     22  C   UNL     1       6.217   5.628  18.800  0.00  0.00    +0.000 A 
ATOM     23  C   UNL     1       7.501   5.963  19.262  0.00  0.00    +0.000 A 
ATOM     24  C   UNL     1       8.259   6.974  18.659  0.00  0.00    +0.000 A 
ATOM     25  C   UNL     1       7.757   7.669  17.566  0.00  0.00    +0.000 A 
ATOM     26  C   UNL     1       6.506   7.323  17.057  0.00  0.00    +0.000 A 
ATOM     27  C   UNL     1       5.742   6.301  17.663  0.00  0.00    +0.000 A 
ENDBRANCH  21  22
ENDBRANCH  12  21
TORSDOF 4
ENDMDL
MODEL 5
REMARK VINA RESULT:      -8.3      2.540      7.135
REMARK  Name = 
REMARK  5 active torsions:
REMARK  status: ('A' for Active; 'I' for Inactive)
REMARK    1  A    between atoms: C_1  and  C_2
REMARK    2  A    between atoms: C_2  and  O_3
REMARK    3  A    between atoms: C_9  and  C_10
REMARK    4  A    between atoms: C_19  and  C_20
REMARK    5  A    between atoms: C_20  and  C_21
REMARK                            x       y       z     vdW  Elec       q    Type
REMARK                         _______ _______ _______ _____ _____    ______ ____
ROOT
ATOM      1  C   UNL     1       2.198   3.087  21.450  0.00  0.00    +0.000 C 
ATOM      2  C   UNL     1       1.730   4.070  20.345  0.00  0.00    +0.000 C 
ATOM      3  C   UNL     1       1.548   3.249  19.046  0.00  0.00    +0.000 C 
ATOM      4  C   UNL     1       2.875   2.897  18.339  0.00  0.00    +0.000 C 
ATOM      5  N   UNL     1       3.774   4.043  18.333  0.00  0.00    +0.000 N 
ATOM      6  C   UNL     1       4.593   4.342  17.289  0.00  0.00    +0.000 A 
ATOM      7  N   UNL     1       4.785   3.795  16.101  0.00  0.00    +0.000 NA
ATOM      8  C   UNL     1       5.733   4.646  15.529  0.00  0.00    +0.000 A 
ATOM      9  N   UNL     1       6.086   5.666  16.320  0.00  0.00    +0.000 NA
ATOM     10  O   UNL     1       5.354   5.467  17.457  0.00  0.00    +0.000 OA
ATOM     11  C   UNL     1       4.020   4.727  19.612  0.00  0.00    +0.000 C 
ATOM     12  C   UNL     1       2.709   5.282  20.168  0.00  0.00    +0.000 C 
ENDROOT
BRANCH   8  13
ATOM     13  C   UNL     1       6.328   4.508  14.201  0.00  0.00    +0.000 A 
ATOM     14  C   UNL     1       5.859   3.576  13.270  0.00  0.00    +0.000 A 
ATOM     15  C   UNL     1       6.455   3.480  12.005  0.00  0.00    +0.000 A 
ATOM     16  C   UNL     1       7.519   4.309  11.661  0.00  0.00    +0.000 A 
ATOM     17  C   UNL     1       8.008   5.243  12.575  0.00  0.00    +0.000 A 
ATOM     18  C   UNL     1       7.412   5.335  13.831  0.00  0.00    +0.000 A 
ENDBRANCH   8  13
BRANCH   2  19
ATOM     19  O   UNL     1       0.454   4.522  20.818  0.00  0.00    +0.000 OA
ATOM     20  H   UNL     1       0.221   5.356  20.383  0.00  0.00    +0.000 HD
ENDBRANCH   2  19
BRANCH  12  21
ATOM     21  C   UNL     1       2.160   6.461  19.274  0.00  0.00    +0.000 C 
BRANCH  21  22
ATOM     22  C   UNL     1       1.688   7.760  19.943  0.00  0.00    +0.000 A 
ATOM     23  C   UNL     1       1.451   8.884  19.134  0.00  0.00    +0.000 A 
ATOM     24  C   UNL     1       1.002  10.096  19.673  0.00  0.00    +0.000 A 
ATOM     25  C   UNL     1       0.764  10.211  21.037  0.00  0.00    +0.000 A 
ATOM     26  C   UNL     1       0.944   9.096  21.855  0.00  0.00    +0.000 A 
ATOM     27  C   UNL     1       1.395   7.872  21.311  0.00  0.00    +0.000 A 
ENDBRANCH  21  22
ENDBRANCH  12  21
TORSDOF 4
ENDMDL
MODEL 6
REMARK VINA RESULT:      -8.1      4.246      5.555
REMARK  Name = 
REMARK  5 active torsions:
REMARK  status: ('A' for Active; 'I' for Inactive)
REMARK    1  A    between atoms: C_1  and  C_2
REMARK    2  A    between atoms: C_2  and  O_3
REMARK    3  A    between atoms: C_9  and  C_10
REMARK    4  A    between atoms: C_19  and  C_20
REMARK    5  A    between atoms: C_20  and  C_21
REMARK                            x       y       z     vdW  Elec       q    Type
REMARK                         _______ _______ _______ _____ _____    ______ ____
ROOT
ATOM      1  C   UNL     1       5.643   3.475  15.556  0.00  0.00    +0.000 C 
ATOM      2  C   UNL     1       4.992   4.409  16.609  0.00  0.00    +0.000 C 
ATOM      3  C   UNL     1       4.815   5.796  15.946  0.00  0.00    +0.000 C 
ATOM      4  C   UNL     1       6.121   6.614  15.849  0.00  0.00    +0.000 C 
ATOM      5  N   UNL     1       6.884   6.512  17.086  0.00  0.00    +0.000 N 
ATOM      6  C   UNL     1       7.590   7.549  17.613  0.00  0.00    +0.000 A 
ATOM      7  N   UNL     1       7.760   8.808  17.250  0.00  0.00    +0.000 NA
ATOM      8  C   UNL     1       8.565   9.310  18.275  0.00  0.00    +0.000 A 
ATOM      9  N   UNL     1       8.855   8.408  19.220  0.00  0.00    +0.000 NA
ATOM     10  O   UNL     1       8.230   7.271  18.790  0.00  0.00    +0.000 OA
ATOM     11  C   UNL     1       7.139   5.168  17.625  0.00  0.00    +0.000 C 
ATOM     12  C   UNL     1       5.815   4.473  17.942  0.00  0.00    +0.000 C 
ENDROOT
BRANCH   8  13
ATOM     13  C   UNL     1       9.079  10.674  18.381  0.00  0.00    +0.000 A 
ATOM     14  C   UNL     1       8.534  11.733  17.648  0.00  0.00    +0.000 A 
ATOM     15  C   UNL     1       9.053  13.027  17.783  0.00  0.00    +0.000 A 
ATOM     16  C   UNL     1      10.116  13.275  18.648  0.00  0.00    +0.000 A 
ATOM     17  C   UNL     1      10.681  12.234  19.386  0.00  0.00    +0.000 A 
ATOM     18  C   UNL     1      10.160  10.949  19.249  0.00  0.00    +0.000 A 
ENDBRANCH   8  13
BRANCH   2  19
ATOM     19  O   UNL     1       3.710   3.812  16.840  0.00  0.00    +0.000 OA
ATOM     20  H   UNL     1       3.533   3.144  16.160  0.00  0.00    +0.000 HD
ENDBRANCH   2  19
BRANCH  12  21
ATOM     21  C   UNL     1       5.077   5.168  19.152  0.00  0.00    +0.000 C 
BRANCH  21  22
ATOM     22  C   UNL     1       3.839   4.500  19.766  0.00  0.00    +0.000 A 
ATOM     23  C   UNL     1       2.676   5.270  19.937  0.00  0.00    +0.000 A 
ATOM     24  C   UNL     1       1.504   4.722  20.474  0.00  0.00    +0.000 A 
ATOM     25  C   UNL     1       1.460   3.383  20.840  0.00  0.00    +0.000 A 
ATOM     26  C   UNL     1       2.585   2.585  20.635  0.00  0.00    +0.000 A 
ATOM     27  C   UNL     1       3.767   3.137  20.092  0.00  0.00    +0.000 A 
ENDBRANCH  21  22
ENDBRANCH  12  21
TORSDOF 4
ENDMDL
MODEL 7
REMARK VINA RESULT:      -8.0      4.245      5.521
REMARK  Name = 
REMARK  5 active torsions:
REMARK  status: ('A' for Active; 'I' for Inactive)
REMARK    1  A    between atoms: C_1  and  C_2
REMARK    2  A    between atoms: C_2  and  O_3
REMARK    3  A    between atoms: C_9  and  C_10
REMARK    4  A    between atoms: C_19  and  C_20
REMARK    5  A    between atoms: C_20  and  C_21
REMARK                            x       y       z     vdW  Elec       q    Type
REMARK                         _______ _______ _______ _____ _____    ______ ____
ROOT
ATOM      1  C   UNL     1       5.592   3.518  15.559  0.00  0.00    +0.000 C 
ATOM      2  C   UNL     1       4.967   4.434  16.643  0.00  0.00    +0.000 C 
ATOM      3  C   UNL     1       4.769   5.831  16.008  0.00  0.00    +0.000 C 
ATOM      4  C   UNL     1       6.071   6.653  15.891  0.00  0.00    +0.000 C 
ATOM      5  N   UNL     1       6.865   6.534  17.106  0.00  0.00    +0.000 N 
ATOM      6  C   UNL     1       7.582   7.563  17.632  0.00  0.00    +0.000 A 
ATOM      7  N   UNL     1       7.740   8.829  17.286  0.00  0.00    +0.000 NA
ATOM      8  C   UNL     1       8.570   9.316  18.298  0.00  0.00    +0.000 A 
ATOM      9  N   UNL     1       8.886   8.399  19.220  0.00  0.00    +0.000 NA
ATOM     10  O   UNL     1       8.253   7.268  18.788  0.00  0.00    +0.000 OA
ATOM     11  C   UNL     1       7.137   5.181  17.616  0.00  0.00    +0.000 C 
ATOM     12  C   UNL     1       5.823   4.477  17.956  0.00  0.00    +0.000 C 
ENDROOT
BRANCH   8  13
ATOM     13  C   UNL     1       9.084  10.680  18.413  0.00  0.00    +0.000 A 
ATOM     14  C   UNL     1      10.148  11.002  19.262  0.00  0.00    +0.000 A 
ATOM     15  C   UNL     1      10.615  12.321  19.340  0.00  0.00    +0.000 A 
ATOM     16  C   UNL     1      10.026  13.324  18.575  0.00  0.00    +0.000 A 
ATOM     17  C   UNL     1       8.959  13.028  17.725  0.00  0.00    +0.000 A 
ATOM     18  C   UNL     1       8.500  11.715  17.651  0.00  0.00    +0.000 A 
ENDBRANCH   8  13
BRANCH   2  19
ATOM     19  O   UNL     1       3.692   3.829  16.897  0.00  0.00    +0.000 OA
ATOM     20  H   UNL     1       3.117   4.460  17.356  0.00  0.00    +0.000 HD
ENDBRANCH   2  19
BRANCH  12  21
ATOM     21  C   UNL     1       5.115   5.151  19.195  0.00  0.00    +0.000 C 
BRANCH  21  22
ATOM     22  C   UNL     1       3.801   4.561  19.727  0.00  0.00    +0.000 A 
ATOM     23  C   UNL     1       3.774   3.206  20.095  0.00  0.00    +0.000 A 
ATOM     24  C   UNL     1       2.617   2.605  20.605  0.00  0.00    +0.000 A 
ATOM     25  C   UNL     1       1.457   3.351  20.774  0.00  0.00    +0.000 A 
ATOM     26  C   UNL     1       1.471   4.710  20.462  0.00  0.00    +0.000 A 
ATOM     27  C   UNL     1       2.639   5.317  19.950  0.00  0.00    +0.000 A 
ENDBRANCH  21  22
ENDBRANCH  12  21
TORSDOF 4
ENDMDL
MODEL 8
REMARK VINA RESULT:      -8.0      2.576      7.049
REMARK  Name = 
REMARK  5 active torsions:
REMARK  status: ('A' for Active; 'I' for Inactive)
REMARK    1  A    between atoms: C_1  and  C_2
REMARK    2  A    between atoms: C_2  and  O_3
REMARK    3  A    between atoms: C_9  and  C_10
REMARK    4  A    between atoms: C_19  and  C_20
REMARK    5  A    between atoms: C_20  and  C_21
REMARK                            x       y       z     vdW  Elec       q    Type
REMARK                         _______ _______ _______ _____ _____    ______ ____
ROOT
ATOM      1  C   UNL     1       2.801   2.447  21.649  0.00  0.00    +0.000 C 
ATOM      2  C   UNL     1       2.075   3.190  20.498  0.00  0.00    +0.000 C 
ATOM      3  C   UNL     1       2.127   2.272  19.253  0.00  0.00    +0.000 C 
ATOM      4  C   UNL     1       3.498   2.260  18.543  0.00  0.00    +0.000 C 
ATOM      5  N   UNL     1       4.041   3.609  18.452  0.00  0.00    +0.000 N 
ATOM      6  C   UNL     1       4.741   4.060  17.377  0.00  0.00    +0.000 A 
ATOM      7  N   UNL     1       5.076   3.515  16.219  0.00  0.00    +0.000 NA
ATOM      8  C   UNL     1       5.747   4.559  15.580  0.00  0.00    +0.000 A 
ATOM      9  N   UNL     1       5.803   5.685  16.303  0.00  0.00    +0.000 NA
ATOM     10  O   UNL     1       5.158   5.360  17.463  0.00  0.00    +0.000 OA
ATOM     11  C   UNL     1       4.089   4.412  19.683  0.00  0.00    +0.000 C 
ATOM     12  C   UNL     1       2.676   4.613  20.231  0.00  0.00    +0.000 C 
ENDROOT
BRANCH   8  13
ATOM     13  C   UNL     1       6.355   4.511  14.251  0.00  0.00    +0.000 A 
ATOM     14  C   UNL     1       7.387   5.378  13.875  0.00  0.00    +0.000 A 
ATOM     15  C   UNL     1       7.946   5.295  12.593  0.00  0.00    +0.000 A 
ATOM     16  C   UNL     1       7.482   4.352  11.679  0.00  0.00    +0.000 A 
ATOM     17  C   UNL     1       6.450   3.481  12.030  0.00  0.00    +0.000 A 
ATOM     18  C   UNL     1       5.898   3.566  13.306  0.00  0.00    +0.000 A 
ENDBRANCH   8  13
BRANCH   2  19
ATOM     19  O   UNL     1       0.725   3.296  20.968  0.00  0.00    +0.000 OA
ATOM     20  H   UNL     1       0.683   3.927  21.703  0.00  0.00    +0.000 HD
ENDBRANCH   2  19
BRANCH  12  21
ATOM     21  C   UNL     1       1.817   5.535  19.279  0.00  0.00    +0.000 C 
BRANCH  21  22
ATOM     22  C   UNL     1       1.559   6.996  19.674  0.00  0.00    +0.000 A 
ATOM     23  C   UNL     1       1.246   7.284  21.013  0.00  0.00    +0.000 A 
ATOM     24  C   UNL     1       1.017   8.595  21.449  0.00  0.00    +0.000 A 
ATOM     25  C   UNL     1       1.110   9.656  20.557  0.00  0.00    +0.000 A 
ATOM     26  C   UNL     1       1.468   9.402  19.234  0.00  0.00    +0.000 A 
ATOM     27  C   UNL     1       1.702   8.080  18.794  0.00  0.00    +0.000 A 
ENDBRANCH  21  22
ENDBRANCH  12  21
TORSDOF 4
ENDMDL
MODEL 9
REMARK VINA RESULT:      -7.7      2.477      7.011
REMARK  Name = 
REMARK  5 active torsions:
REMARK  status: ('A' for Active; 'I' for Inactive)
REMARK    1  A    between atoms: C_1  and  C_2
REMARK    2  A    between atoms: C_2  and  O_3
REMARK    3  A    between atoms: C_9  and  C_10
REMARK    4  A    between atoms: C_19  and  C_20
REMARK    5  A    between atoms: C_20  and  C_21
REMARK                            x       y       z     vdW  Elec       q    Type
REMARK                         _______ _______ _______ _____ _____    ______ ____
ROOT
ATOM      1  C   UNL     1       2.820   2.454  21.695  0.00  0.00    +0.000 C 
ATOM      2  C   UNL     1       2.044   3.069  20.501  0.00  0.00    +0.000 C 
ATOM      3  C   UNL     1       2.191   2.096  19.307  0.00  0.00    +0.000 C 
ATOM      4  C   UNL     1       3.566   2.168  18.608  0.00  0.00    +0.000 C 
ATOM      5  N   UNL     1       3.989   3.553  18.449  0.00  0.00    +0.000 N 
ATOM      6  C   UNL     1       4.659   4.007  17.356  0.00  0.00    +0.000 A 
ATOM      7  N   UNL     1       5.054   3.434  16.231  0.00  0.00    +0.000 NA
ATOM      8  C   UNL     1       5.638   4.499  15.542  0.00  0.00    +0.000 A 
ATOM      9  N   UNL     1       5.586   5.661  16.204  0.00  0.00    +0.000 NA
ATOM     10  O   UNL     1       4.959   5.341  17.376  0.00  0.00    +0.000 OA
ATOM     11  C   UNL     1       3.952   4.420  19.636  0.00  0.00    +0.000 C 
ATOM     12  C   UNL     1       2.521   4.524  20.163  0.00  0.00    +0.000 C 
ENDROOT
BRANCH   8  13
ATOM     13  C   UNL     1       6.263   4.435  14.222  0.00  0.00    +0.000 A 
ATOM     14  C   UNL     1       5.816   3.554  13.231  0.00  0.00    +0.000 A 
ATOM     15  C   UNL     1       6.439   3.529  11.976  0.00  0.00    +0.000 A 
ATOM     16  C   UNL     1       7.508   4.378  11.701  0.00  0.00    +0.000 A 
ATOM     17  C   UNL     1       7.975   5.261  12.675  0.00  0.00    +0.000 A 
ATOM     18  C   UNL     1       7.351   5.284  13.921  0.00  0.00    +0.000 A 
ENDBRANCH   8  13
BRANCH   2  19
ATOM     19  O   UNL     1       0.685   3.081  20.956  0.00  0.00    +0.000 OA
ATOM     20  H   UNL     1       0.436   3.979  21.221  0.00  0.00    +0.000 HD
ENDBRANCH   2  19
BRANCH  12  21
ATOM     21  C   UNL     1       1.595   5.315  19.158  0.00  0.00    +0.000 C 
BRANCH  21  22
ATOM     22  C   UNL     1       1.666   6.848  19.114  0.00  0.00    +0.000 A 
ATOM     23  C   UNL     1       1.347   7.569  20.276  0.00  0.00    +0.000 A 
ATOM     24  C   UNL     1       1.408   8.968  20.315  0.00  0.00    +0.000 A 
ATOM     25  C   UNL     1       1.804   9.683  19.191  0.00  0.00    +0.000 A 
ATOM     26  C   UNL     1       2.173   8.989  18.039  0.00  0.00    +0.000 A 
ATOM     27  C   UNL     1       2.115   7.578  18.001  0.00  0.00    +0.000 A 
ENDBRANCH  21  22
ENDBRANCH  12  21
TORSDOF 4
ENDMDL
