MODEL 1
REMARK VINA RESULT:      -7.5      0.000      0.000
REMARK  Name = 
REMARK  12 active torsions:
REMARK  status: ('A' for Active; 'I' for Inactive)
REMARK    1  A    between atoms: C_1  and  O_2
REMARK    2  A    between atoms: O_2  and  C_3
REMARK    3  A    between atoms: C_3  and  C_4
REMARK    4  A    between atoms: C_7  and  C_8
REMARK    5  A    between atoms: C_8  and  O_9
REMARK    6  A    between atoms: O_9  and  C_10
REMARK    7  A    between atoms: N_11  and  S_12
REMARK    8  A    between atoms: S_12  and  C_15
REMARK    9  A    between atoms: N_25  and  C_26
REMARK   10  A    between atoms: C_26  and  C_27
REMARK   11  A    between atoms: C_27  and  C_28
REMARK   12  A    between atoms: C_28  and  C_29
REMARK                            x       y       z     vdW  Elec       q    Type
REMARK                         _______ _______ _______ _____ _____    ______ ____
ROOT
ATOM      1  C   UNL     1       2.394   7.693  18.740  0.00  0.00    +0.000 A 
ATOM      2  C   UNL     1       2.185   8.583  17.658  0.00  0.00    +0.000 A 
ATOM      3  C   UNL     1       1.454   9.773  17.821  0.00  0.00    +0.000 A 
ATOM      4  C   UNL     1       0.852   9.985  19.045  0.00  0.00    +0.000 A 
ATOM      5  C   UNL     1       1.106   9.108  20.101  0.00  0.00    +0.000 A 
ATOM      6  C   UNL     1       1.960   8.019  20.020  0.00  0.00    +0.000 A 
ATOM      7  C   UNL     1       0.162   9.442  21.169  0.00  0.00    +0.000 C 
ATOM      8  O   UNL     1      -0.044   8.798  22.172  0.00  0.00    +0.000 OA
ATOM      9  C   UNL     1      -0.623  10.679  20.666  0.00  0.00    +0.000 C 
ATOM     10  O   UNL     1      -1.518  11.232  21.269  0.00  0.00    +0.000 OA
ATOM     11  N   UNL     1      -0.101  10.956  19.410  0.00  0.00    +0.000 N 
ENDROOT
BRANCH   1  12
ATOM     12  S   UNL     1       3.058   6.072  18.348  0.00  0.00    +0.000 S 
ATOM     13  O   UNL     1       4.188   6.361  17.495  0.00  0.00    +0.000 OA
ATOM     14  O   UNL     1       1.940   5.296  17.848  0.00  0.00    +0.000 OA
BRANCH  12  19
ATOM     15  C   UNL     1       4.980   4.649  19.720  0.00  0.00    +0.000 C 
ATOM     16  C   UNL     1       4.682   3.214  19.305  0.00  0.00    +0.000 C 
ATOM     17  C   UNL     1       3.499   2.855  20.178  0.00  0.00    +0.000 C 
ATOM     18  C   UNL     1       2.772   4.183  20.457  0.00  0.00    +0.000 C 
ATOM     19  N   UNL     1       3.589   5.297  19.783  0.00  0.00    +0.000 NA
BRANCH  15  20
ATOM     20  C   UNL     1       6.077   5.288  18.870  0.00  0.00    +0.000 C 
BRANCH  20  22
ATOM     21  C   UNL     1       7.389   4.573  17.030  0.00  0.00    +0.000 C 
ATOM     22  O   UNL     1       6.894   4.255  18.322  0.00  0.00    +0.000 OA
ENDBRANCH  20  22
ENDBRANCH  15  20
BRANCH  18  23
ATOM     23  C   UNL     1       1.271   4.091  20.198  0.00  0.00    +0.000 C 
BRANCH  23  24
ATOM     24  O   UNL     1       0.816   2.739  20.110  0.00  0.00    +0.000 OA
ATOM     25  C   UNL     1       0.611   2.377  18.742  0.00  0.00    +0.000 C 
ENDBRANCH  23  24
ENDBRANCH  18  23
ENDBRANCH  12  19
ENDBRANCH   1  12
BRANCH  11  26
ATOM     26  C   UNL     1      -0.496  12.099  18.618  0.00  0.00    +0.000 C 
BRANCH  26  27
ATOM     27  C   UNL     1      -1.816  11.944  17.861  0.00  0.00    +0.000 C 
BRANCH  27  28
ATOM     28  C   UNL     1      -1.994  10.568  17.216  0.00  0.00    +0.000 C 
BRANCH  28  29
ATOM     29  C   UNL     1      -2.758  10.675  15.907  0.00  0.00    +0.000 C 
ATOM     30  F   UNL     1      -3.201   9.439  15.555  0.00  0.00    +0.000 F 
ENDBRANCH  28  29
ENDBRANCH  27  28
ENDBRANCH  26  27
ENDBRANCH  11  26
TORSDOF 10
ENDMDL
MODEL 2
REMARK VINA RESULT:      -7.3      1.611      3.519
REMARK  Name = 
REMARK  12 active torsions:
REMARK  status: ('A' for Active; 'I' for Inactive)
REMARK    1  A    between atoms: C_1  and  O_2
REMARK    2  A    between atoms: O_2  and  C_3
REMARK    3  A    between atoms: C_3  and  C_4
REMARK    4  A    between atoms: C_7  and  C_8
REMARK    5  A    between atoms: C_8  and  O_9
REMARK    6  A    between atoms: O_9  and  C_10
REMARK    7  A    between atoms: N_11  and  S_12
REMARK    8  A    between atoms: S_12  and  C_15
REMARK    9  A    between atoms: N_25  and  C_26
REMARK   10  A    between atoms: C_26  and  C_27
REMARK   11  A    between atoms: C_27  and  C_28
REMARK   12  A    between atoms: C_28  and  C_29
REMARK                            x       y       z     vdW  Elec       q    Type
REMARK                         _______ _______ _______ _____ _____    ______ ____
ROOT
ATOM      1  C   UNL     1       2.512   7.297  19.228  0.00  0.00    +0.000 A 
ATOM      2  C   UNL     1       2.217   7.925  17.993  0.00  0.00    +0.000 A 
ATOM      3  C   UNL     1       1.448   9.100  17.937  0.00  0.00    +0.000 A 
ATOM      4  C   UNL     1       0.896   9.555  19.118  0.00  0.00    +0.000 A 
ATOM      5  C   UNL     1       1.234   8.935  20.322  0.00  0.00    +0.000 A 
ATOM      6  C   UNL     1       2.126   7.879  20.430  0.00  0.00    +0.000 A 
ATOM      7  C   UNL     1       0.330   9.465  21.344  0.00  0.00    +0.000 C 
ATOM      8  O   UNL     1       0.198   9.048  22.472  0.00  0.00    +0.000 OA
ATOM      9  C   UNL     1      -0.526  10.541  20.632  0.00  0.00    +0.000 C 
ATOM     10  O   UNL     1      -1.413  11.186  21.151  0.00  0.00    +0.000 OA
ATOM     11  N   UNL     1      -0.076  10.554  19.319  0.00  0.00    +0.000 N 
ENDROOT
BRANCH   1  12
ATOM     12  S   UNL     1       3.219   5.649  19.156  0.00  0.00    +0.000 S 
ATOM     13  O   UNL     1       2.235   4.824  19.820  0.00  0.00    +0.000 OA
ATOM     14  O   UNL     1       4.560   5.768  19.694  0.00  0.00    +0.000 OA
BRANCH  12  19
ATOM     15  C   UNL     1       3.467   3.642  17.281  0.00  0.00    +0.000 C 
ATOM     16  C   UNL     1       4.963   3.357  17.303  0.00  0.00    +0.000 C 
ATOM     17  C   UNL     1       5.529   4.487  16.472  0.00  0.00    +0.000 C 
ATOM     18  C   UNL     1       4.544   5.658  16.637  0.00  0.00    +0.000 C 
ATOM     19  N   UNL     1       3.390   5.158  17.521  0.00  0.00    +0.000 NA
BRANCH  15  20
ATOM     20  C   UNL     1       2.675   2.691  18.176  0.00  0.00    +0.000 C 
BRANCH  20  22
ATOM     21  C   UNL     1       0.422   2.288  18.788  0.00  0.00    +0.000 C 
ATOM     22  O   UNL     1       1.310   2.699  17.761  0.00  0.00    +0.000 OA
ENDBRANCH  20  22
ENDBRANCH  15  20
BRANCH  18  23
ATOM     23  C   UNL     1       5.247   6.965  16.991  0.00  0.00    +0.000 C 
BRANCH  23  24
ATOM     24  O   UNL     1       6.592   7.009  16.506  0.00  0.00    +0.000 OA
ATOM     25  C   UNL     1       7.471   7.463  17.537  0.00  0.00    +0.000 C 
ENDBRANCH  23  24
ENDBRANCH  18  23
ENDBRANCH  12  19
ENDBRANCH   1  12
BRANCH  11  26
ATOM     26  C   UNL     1      -0.553  11.488  18.323  0.00  0.00    +0.000 C 
BRANCH  26  27
ATOM     27  C   UNL     1      -1.948  11.194  17.769  0.00  0.00    +0.000 C 
BRANCH  27  28
ATOM     28  C   UNL     1      -2.005   9.951  16.880  0.00  0.00    +0.000 C 
BRANCH  28  29
ATOM     29  C   UNL     1      -3.093  10.083  15.828  0.00  0.00    +0.000 C 
ATOM     30  F   UNL     1      -2.516  10.383  14.633  0.00  0.00    +0.000 F 
ENDBRANCH  28  29
ENDBRANCH  27  28
ENDBRANCH  26  27
ENDBRANCH  11  26
TORSDOF 10
ENDMDL
MODEL 3
REMARK VINA RESULT:      -7.2      1.999      2.477
REMARK  Name = 
REMARK  12 active torsions:
REMARK  status: ('A' for Active; 'I' for Inactive)
REMARK    1  A    between atoms: C_1  and  O_2
REMARK    2  A    between atoms: O_2  and  C_3
REMARK    3  A    between atoms: C_3  and  C_4
REMARK    4  A    between atoms: C_7  and  C_8
REMARK    5  A    between atoms: C_8  and  O_9
REMARK    6  A    between atoms: O_9  and  C_10
REMARK    7  A    between atoms: N_11  and  S_12
REMARK    8  A    between atoms: S_12  and  C_15
REMARK    9  A    between atoms: N_25  and  C_26
REMARK   10  A    between atoms: C_26  and  C_27
REMARK   11  A    between atoms: C_27  and  C_28
REMARK   12  A    between atoms: C_28  and  C_29
REMARK                            x       y       z     vdW  Elec       q    Type
REMARK                         _______ _______ _______ _____ _____    ______ ____
ROOT
ATOM      1  C   UNL     1       2.499   7.563  18.675  0.00  0.00    +0.000 A 
ATOM      2  C   UNL     1       2.524   8.579  17.690  0.00  0.00    +0.000 A 
ATOM      3  C   UNL     1       1.896   9.819  17.903  0.00  0.00    +0.000 A 
ATOM      4  C   UNL     1       1.158   9.966  19.060  0.00  0.00    +0.000 A 
ATOM      5  C   UNL     1       1.182   8.960  20.028  0.00  0.00    +0.000 A 
ATOM      6  C   UNL     1       1.930   7.797  19.923  0.00  0.00    +0.000 A 
ATOM      7  C   UNL     1       0.141   9.281  21.005  0.00  0.00    +0.000 C 
ATOM      8  O   UNL     1      -0.259   8.562  21.891  0.00  0.00    +0.000 OA
ATOM      9  C   UNL     1      -0.447  10.644  20.561  0.00  0.00    +0.000 C 
ATOM     10  O   UNL     1      -1.357  11.227  21.112  0.00  0.00    +0.000 OA
ATOM     11  N   UNL     1       0.263  10.993  19.420  0.00  0.00    +0.000 N 
ENDROOT
BRANCH   1  12
ATOM     12  S   UNL     1       3.049   5.928  18.177  0.00  0.00    +0.000 S 
ATOM     13  O   UNL     1       4.035   6.195  17.154  0.00  0.00    +0.000 OA
ATOM     14  O   UNL     1       1.846   5.183  17.861  0.00  0.00    +0.000 OA
BRANCH  12  19
ATOM     15  C   UNL     1       5.050   4.321  19.185  0.00  0.00    +0.000 C 
ATOM     16  C   UNL     1       4.516   2.923  18.910  0.00  0.00    +0.000 C 
ATOM     17  C   UNL     1       3.512   2.725  20.025  0.00  0.00    +0.000 C 
ATOM     18  C   UNL     1       3.010   4.134  20.386  0.00  0.00    +0.000 C 
ATOM     19  N   UNL     1       3.783   5.130  19.506  0.00  0.00    +0.000 NA
BRANCH  15  20
ATOM     20  C   UNL     1       6.006   4.808  18.098  0.00  0.00    +0.000 C 
BRANCH  20  22
ATOM     21  C   UNL     1       7.809   5.753  19.311  0.00  0.00    +0.000 C 
ATOM     22  O   UNL     1       7.346   4.643  18.557  0.00  0.00    +0.000 OA
ENDBRANCH  20  22
ENDBRANCH  15  20
BRANCH  18  23
ATOM     23  C   UNL     1       1.488   4.214  20.448  0.00  0.00    +0.000 C 
BRANCH  23  24
ATOM     24  O   UNL     1       0.877   2.921  20.488  0.00  0.00    +0.000 OA
ATOM     25  C   UNL     1       0.488   2.521  19.172  0.00  0.00    +0.000 C 
ENDBRANCH  23  24
ENDBRANCH  18  23
ENDBRANCH  12  19
ENDBRANCH   1  12
BRANCH  11  26
ATOM     26  C   UNL     1       0.090  12.250  18.727  0.00  0.00    +0.000 C 
BRANCH  26  27
ATOM     27  C   UNL     1       1.050  13.364  19.149  0.00  0.00    +0.000 C 
BRANCH  27  28
ATOM     28  C   UNL     1       2.233  13.546  18.196  0.00  0.00    +0.000 C 
BRANCH  28  29
ATOM     29  C   UNL     1       2.743  14.977  18.229  0.00  0.00    +0.000 C 
ATOM     30  F   UNL     1       3.383  15.243  17.059  0.00  0.00    +0.000 F 
ENDBRANCH  28  29
ENDBRANCH  27  28
ENDBRANCH  26  27
ENDBRANCH  11  26
TORSDOF 10
ENDMDL
MODEL 4
REMARK VINA RESULT:      -7.2      2.688      3.830
REMARK  Name = 
REMARK  12 active torsions:
REMARK  status: ('A' for Active; 'I' for Inactive)
REMARK    1  A    between atoms: C_1  and  O_2
REMARK    2  A    between atoms: O_2  and  C_3
REMARK    3  A    between atoms: C_3  and  C_4
REMARK    4  A    between atoms: C_7  and  C_8
REMARK    5  A    between atoms: C_8  and  O_9
REMARK    6  A    between atoms: O_9  and  C_10
REMARK    7  A    between atoms: N_11  and  S_12
REMARK    8  A    between atoms: S_12  and  C_15
REMARK    9  A    between atoms: N_25  and  C_26
REMARK   10  A    between atoms: C_26  and  C_27
REMARK   11  A    between atoms: C_27  and  C_28
REMARK   12  A    between atoms: C_28  and  C_29
REMARK                            x       y       z     vdW  Elec       q    Type
REMARK                         _______ _______ _______ _____ _____    ______ ____
ROOT
ATOM      1  C   UNL     1       3.671   5.932  19.010  0.00  0.00    +0.000 A 
ATOM      2  C   UNL     1       3.013   5.686  20.240  0.00  0.00    +0.000 A 
ATOM      3  C   UNL     1       1.945   6.493  20.671  0.00  0.00    +0.000 A 
ATOM      4  C   UNL     1       1.638   7.600  19.907  0.00  0.00    +0.000 A 
ATOM      5  C   UNL     1       2.280   7.795  18.683  0.00  0.00    +0.000 A 
ATOM      6  C   UNL     1       3.217   6.924  18.148  0.00  0.00    +0.000 A 
ATOM      7  C   UNL     1       1.934   9.143  18.229  0.00  0.00    +0.000 C 
ATOM      8  O   UNL     1       2.432   9.738  17.301  0.00  0.00    +0.000 OA
ATOM      9  C   UNL     1       0.936   9.697  19.276  0.00  0.00    +0.000 C 
ATOM     10  O   UNL     1       0.443  10.805  19.256  0.00  0.00    +0.000 OA
ATOM     11  N   UNL     1       0.786   8.681  20.210  0.00  0.00    +0.000 N 
ENDROOT
BRANCH   1  12
ATOM     12  S   UNL     1       5.207   5.051  18.715  0.00  0.00    +0.000 S 
ATOM     13  O   UNL     1       5.776   4.902  20.035  0.00  0.00    +0.000 OA
ATOM     14  O   UNL     1       5.908   5.804  17.694  0.00  0.00    +0.000 OA
BRANCH  12  19
ATOM     15  C   UNL     1       4.433   3.500  16.571  0.00  0.00    +0.000 C 
ATOM     16  C   UNL     1       2.914   3.558  16.656  0.00  0.00    +0.000 C 
ATOM     17  C   UNL     1       2.605   2.562  17.752  0.00  0.00    +0.000 C 
ATOM     18  C   UNL     1       3.843   2.553  18.667  0.00  0.00    +0.000 C 
ATOM     19  N   UNL     1       4.873   3.508  18.043  0.00  0.00    +0.000 NA
BRANCH  15  20
ATOM     20  C   UNL     1       5.005   4.533  15.601  0.00  0.00    +0.000 C 
BRANCH  20  22
ATOM     21  C   UNL     1       6.148   3.913  13.620  0.00  0.00    +0.000 C 
ATOM     22  O   UNL     1       6.207   4.013  15.034  0.00  0.00    +0.000 OA
ENDBRANCH  20  22
ENDBRANCH  15  20
BRANCH  18  23
ATOM     23  C   UNL     1       3.480   2.700  20.141  0.00  0.00    +0.000 C 
BRANCH  23  24
ATOM     24  O   UNL     1       2.134   2.303  20.413  0.00  0.00    +0.000 OA
ATOM     25  C   UNL     1       1.780   2.651  21.753  0.00  0.00    +0.000 C 
ENDBRANCH  23  24
ENDBRANCH  18  23
ENDBRANCH  12  19
ENDBRANCH   1  12
BRANCH  11  26
ATOM     26  C   UNL     1      -0.137   8.750  21.321  0.00  0.00    +0.000 C 
BRANCH  26  27
ATOM     27  C   UNL     1       0.335   9.590  22.509  0.00  0.00    +0.000 C 
BRANCH  27  28
ATOM     28  C   UNL     1      -0.793  10.353  23.206  0.00  0.00    +0.000 C 
BRANCH  28  29
ATOM     29  C   UNL     1      -0.949  11.747  22.622  0.00  0.00    +0.000 C 
ATOM     30  F   UNL     1      -2.180  11.850  22.053  0.00  0.00    +0.000 F 
ENDBRANCH  28  29
ENDBRANCH  27  28
ENDBRANCH  26  27
ENDBRANCH  11  26
TORSDOF 10
ENDMDL
MODEL 5
REMARK VINA RESULT:      -7.2      2.470      4.111
REMARK  Name = 
REMARK  12 active torsions:
REMARK  status: ('A' for Active; 'I' for Inactive)
REMARK    1  A    between atoms: C_1  and  O_2
REMARK    2  A    between atoms: O_2  and  C_3
REMARK    3  A    between atoms: C_3  and  C_4
REMARK    4  A    between atoms: C_7  and  C_8
REMARK    5  A    between atoms: C_8  and  O_9
REMARK    6  A    between atoms: O_9  and  C_10
REMARK    7  A    between atoms: N_11  and  S_12
REMARK    8  A    between atoms: S_12  and  C_15
REMARK    9  A    between atoms: N_25  and  C_26
REMARK   10  A    between atoms: C_26  and  C_27
REMARK   11  A    between atoms: C_27  and  C_28
REMARK   12  A    between atoms: C_28  and  C_29
REMARK                            x       y       z     vdW  Elec       q    Type
REMARK                         _______ _______ _______ _____ _____    ______ ____
ROOT
ATOM      1  C   UNL     1       2.292   7.373  19.267  0.00  0.00    +0.000 A 
ATOM      2  C   UNL     1       2.213   8.141  18.080  0.00  0.00    +0.000 A 
ATOM      3  C   UNL     1       1.585   9.399  18.063  0.00  0.00    +0.000 A 
ATOM      4  C   UNL     1       0.950   9.806  19.219  0.00  0.00    +0.000 A 
ATOM      5  C   UNL     1       1.076   9.044  20.382  0.00  0.00    +0.000 A 
ATOM      6  C   UNL     1       1.832   7.885  20.476  0.00  0.00    +0.000 A 
ATOM      7  C   UNL     1       0.119   9.582  21.351  0.00  0.00    +0.000 C 
ATOM      8  O   UNL     1      -0.189   9.083  22.408  0.00  0.00    +0.000 OA
ATOM      9  C   UNL     1      -0.528  10.811  20.666  0.00  0.00    +0.000 C 
ATOM     10  O   UNL     1      -1.396  11.506  21.150  0.00  0.00    +0.000 OA
ATOM     11  N   UNL     1       0.072  10.890  19.416  0.00  0.00    +0.000 N 
ENDROOT
BRANCH   1  12
ATOM     12  S   UNL     1       2.824   5.667  19.103  0.00  0.00    +0.000 S 
ATOM     13  O   UNL     1       1.663   4.905  19.503  0.00  0.00    +0.000 OA
ATOM     14  O   UNL     1       4.063   5.563  19.848  0.00  0.00    +0.000 OA
BRANCH  12  19
ATOM     15  C   UNL     1       3.099   3.861  17.037  0.00  0.00    +0.000 C 
ATOM     16  C   UNL     1       4.506   3.322  17.259  0.00  0.00    +0.000 C 
ATOM     17  C   UNL     1       5.376   4.420  16.689  0.00  0.00    +0.000 C 
ATOM     18  C   UNL     1       4.566   5.719  16.852  0.00  0.00    +0.000 C 
ATOM     19  N   UNL     1       3.210   5.332  17.465  0.00  0.00    +0.000 NA
BRANCH  15  20
ATOM     20  C   UNL     1       2.025   2.969  17.658  0.00  0.00    +0.000 C 
BRANCH  20  22
ATOM     21  C   UNL     1       2.268   1.688  19.637  0.00  0.00    +0.000 C 
ATOM     22  O   UNL     1       2.660   1.854  18.283  0.00  0.00    +0.000 OA
ENDBRANCH  20  22
ENDBRANCH  15  20
BRANCH  18  23
ATOM     23  C   UNL     1       5.382   6.840  17.486  0.00  0.00    +0.000 C 
BRANCH  23  24
ATOM     24  O   UNL     1       6.523   7.194  16.699  0.00  0.00    +0.000 OA
ATOM     25  C   UNL     1       7.630   7.502  17.550  0.00  0.00    +0.000 C 
ENDBRANCH  23  24
ENDBRANCH  18  23
ENDBRANCH  12  19
ENDBRANCH   1  12
BRANCH  11  26
ATOM     26  C   UNL     1      -0.182  11.959  18.477  0.00  0.00    +0.000 C 
BRANCH  26  27
ATOM     27  C   UNL     1       0.620  13.240  18.714  0.00  0.00    +0.000 C 
BRANCH  27  28
ATOM     28  C   UNL     1       2.129  13.060  18.535  0.00  0.00    +0.000 C 
BRANCH  28  29
ATOM     29  C   UNL     1       2.794  14.373  18.161  0.00  0.00    +0.000 C 
ATOM     30  F   UNL     1       4.114  14.147  17.925  0.00  0.00    +0.000 F 
ENDBRANCH  28  29
ENDBRANCH  27  28
ENDBRANCH  26  27
ENDBRANCH  11  26
TORSDOF 10
ENDMDL
MODEL 6
REMARK VINA RESULT:      -7.1      0.942      1.050
REMARK  Name = 
REMARK  12 active torsions:
REMARK  status: ('A' for Active; 'I' for Inactive)
REMARK    1  A    between atoms: C_1  and  O_2
REMARK    2  A    between atoms: O_2  and  C_3
REMARK    3  A    between atoms: C_3  and  C_4
REMARK    4  A    between atoms: C_7  and  C_8
REMARK    5  A    between atoms: C_8  and  O_9
REMARK    6  A    between atoms: O_9  and  C_10
REMARK    7  A    between atoms: N_11  and  S_12
REMARK    8  A    between atoms: S_12  and  C_15
REMARK    9  A    between atoms: N_25  and  C_26
REMARK   10  A    between atoms: C_26  and  C_27
REMARK   11  A    between atoms: C_27  and  C_28
REMARK   12  A    between atoms: C_28  and  C_29
REMARK                            x       y       z     vdW  Elec       q    Type
REMARK                         _______ _______ _______ _____ _____    ______ ____
ROOT
ATOM      1  C   UNL     1       2.390   7.837  18.735  0.00  0.00    +0.000 A 
ATOM      2  C   UNL     1       2.229   8.867  17.776  0.00  0.00    +0.000 A 
ATOM      3  C   UNL     1       1.539  10.052  18.085  0.00  0.00    +0.000 A 
ATOM      4  C   UNL     1       0.926  10.126  19.320  0.00  0.00    +0.000 A 
ATOM      5  C   UNL     1       1.133   9.111  20.256  0.00  0.00    +0.000 A 
ATOM      6  C   UNL     1       1.949   8.010  20.043  0.00  0.00    +0.000 A 
ATOM      7  C   UNL     1       0.186   9.338  21.349  0.00  0.00    +0.000 C 
ATOM      8  O   UNL     1      -0.058   8.578  22.257  0.00  0.00    +0.000 OA
ATOM      9  C   UNL     1      -0.547  10.658  21.004  0.00  0.00    +0.000 C 
ATOM     10  O   UNL     1      -1.430  11.162  21.665  0.00  0.00    +0.000 OA
ATOM     11  N   UNL     1       0.003  11.076  19.799  0.00  0.00    +0.000 N 
ENDROOT
BRANCH   1  12
ATOM     12  S   UNL     1       3.001   6.257  18.142  0.00  0.00    +0.000 S 
ATOM     13  O   UNL     1       3.895   6.617  17.065  0.00  0.00    +0.000 OA
ATOM     14  O   UNL     1       1.825   5.449  17.882  0.00  0.00    +0.000 OA
BRANCH  12  19
ATOM     15  C   UNL     1       5.150   4.731  18.952  0.00  0.00    +0.000 C 
ATOM     16  C   UNL     1       4.668   3.314  18.675  0.00  0.00    +0.000 C 
ATOM     17  C   UNL     1       3.762   3.036  19.855  0.00  0.00    +0.000 C 
ATOM     18  C   UNL     1       3.219   4.407  20.294  0.00  0.00    +0.000 C 
ATOM     19  N   UNL     1       3.872   5.464  19.389  0.00  0.00    +0.000 NA
BRANCH  15  20
ATOM     20  C   UNL     1       5.996   5.295  17.811  0.00  0.00    +0.000 C 
BRANCH  20  22
ATOM     21  C   UNL     1       7.820   5.695  19.269  0.00  0.00    +0.000 C 
ATOM     22  O   UNL     1       6.903   6.258  18.345  0.00  0.00    +0.000 OA
ENDBRANCH  20  22
ENDBRANCH  15  20
BRANCH  18  23
ATOM     23  C   UNL     1       1.704   4.405  20.471  0.00  0.00    +0.000 C 
BRANCH  23  24
ATOM     24  O   UNL     1       1.166   3.082  20.538  0.00  0.00    +0.000 OA
ATOM     25  C   UNL     1       1.293   2.566  21.865  0.00  0.00    +0.000 C 
ENDBRANCH  23  24
ENDBRANCH  18  23
ENDBRANCH  12  19
ENDBRANCH   1  12
BRANCH  11  26
ATOM     26  C   UNL     1      -0.338  12.327  19.159  0.00  0.00    +0.000 C 
BRANCH  26  27
ATOM     27  C   UNL     1      -1.313  12.213  17.986  0.00  0.00    +0.000 C 
BRANCH  27  28
ATOM     28  C   UNL     1      -2.392  11.148  18.186  0.00  0.00    +0.000 C 
BRANCH  28  29
ATOM     29  C   UNL     1      -2.199   9.989  17.223  0.00  0.00    +0.000 C 
ATOM     30  F   UNL     1      -3.361   9.288  17.139  0.00  0.00    +0.000 F 
ENDBRANCH  28  29
ENDBRANCH  27  28
ENDBRANCH  26  27
ENDBRANCH  11  26
TORSDOF 10
ENDMDL
MODEL 7
REMARK VINA RESULT:      -7.0      1.561      3.284
REMARK  Name = 
REMARK  12 active torsions:
REMARK  status: ('A' for Active; 'I' for Inactive)
REMARK    1  A    between atoms: C_1  and  O_2
REMARK    2  A    between atoms: O_2  and  C_3
REMARK    3  A    between atoms: C_3  and  C_4
REMARK    4  A    between atoms: C_7  and  C_8
REMARK    5  A    between atoms: C_8  and  O_9
REMARK    6  A    between atoms: O_9  and  C_10
REMARK    7  A    between atoms: N_11  and  S_12
REMARK    8  A    between atoms: S_12  and  C_15
REMARK    9  A    between atoms: N_25  and  C_26
REMARK   10  A    between atoms: C_26  and  C_27
REMARK   11  A    between atoms: C_27  and  C_28
REMARK   12  A    between atoms: C_28  and  C_29
REMARK                            x       y       z     vdW  Elec       q    Type
REMARK                         _______ _______ _______ _____ _____    ______ ____
ROOT
ATOM      1  C   UNL     1       2.109   7.403  19.458  0.00  0.00    +0.000 A 
ATOM      2  C   UNL     1       1.958   8.039  18.202  0.00  0.00    +0.000 A 
ATOM      3  C   UNL     1       1.322   9.288  18.087  0.00  0.00    +0.000 A 
ATOM      4  C   UNL     1       0.749   9.815  19.227  0.00  0.00    +0.000 A 
ATOM      5  C   UNL     1       0.946   9.182  20.455  0.00  0.00    +0.000 A 
ATOM      6  C   UNL     1       1.714   8.041  20.629  0.00  0.00    +0.000 A 
ATOM      7  C   UNL     1       0.042   9.819  21.414  0.00  0.00    +0.000 C 
ATOM      8  O   UNL     1      -0.203   9.436  22.534  0.00  0.00    +0.000 OA
ATOM      9  C   UNL     1      -0.652  10.968  20.639  0.00  0.00    +0.000 C 
ATOM     10  O   UNL     1      -1.496  11.710  21.095  0.00  0.00    +0.000 OA
ATOM     11  N   UNL     1      -0.123  10.914  19.357  0.00  0.00    +0.000 N 
ENDROOT
BRANCH   1  12
ATOM     12  S   UNL     1       2.643   5.689  19.446  0.00  0.00    +0.000 S 
ATOM     13  O   UNL     1       1.568   4.991  20.114  0.00  0.00    +0.000 OA
ATOM     14  O   UNL     1       3.981   5.685  20.004  0.00  0.00    +0.000 OA
BRANCH  12  19
ATOM     15  C   UNL     1       2.398   3.667  17.586  0.00  0.00    +0.000 C 
ATOM     16  C   UNL     1       3.719   2.924  17.736  0.00  0.00    +0.000 C 
ATOM     17  C   UNL     1       4.682   3.799  16.964  0.00  0.00    +0.000 C 
ATOM     18  C   UNL     1       4.109   5.225  17.051  0.00  0.00    +0.000 C 
ATOM     19  N   UNL     1       2.786   5.135  17.829  0.00  0.00    +0.000 NA
BRANCH  15  20
ATOM     20  C   UNL     1       1.274   3.034  18.404  0.00  0.00    +0.000 C 
BRANCH  20  22
ATOM     21  C   UNL     1       1.710   2.099  20.537  0.00  0.00    +0.000 C 
ATOM     22  O   UNL     1       1.803   1.927  19.131  0.00  0.00    +0.000 OA
ENDBRANCH  20  22
ENDBRANCH  15  20
BRANCH  18  23
ATOM     23  C   UNL     1       5.157   6.250  17.471  0.00  0.00    +0.000 C 
BRANCH  23  24
ATOM     24  O   UNL     1       5.691   6.971  16.357  0.00  0.00    +0.000 OA
ATOM     25  C   UNL     1       5.384   6.290  15.139  0.00  0.00    +0.000 C 
ENDBRANCH  23  24
ENDBRANCH  18  23
ENDBRANCH  12  19
ENDBRANCH   1  12
BRANCH  11  26
ATOM     26  C   UNL     1      -0.436  11.877  18.324  0.00  0.00    +0.000 C 
BRANCH  26  27
ATOM     27  C   UNL     1      -1.848  11.773  17.744  0.00  0.00    +0.000 C 
BRANCH  27  28
ATOM     28  C   UNL     1      -2.081  10.504  16.924  0.00  0.00    +0.000 C 
BRANCH  28  29
ATOM     29  C   UNL     1      -2.827  10.816  15.637  0.00  0.00    +0.000 C 
ATOM     30  F   UNL     1      -2.533   9.861  14.715  0.00  0.00    +0.000 F 
ENDBRANCH  28  29
ENDBRANCH  27  28
ENDBRANCH  26  27
ENDBRANCH  11  26
TORSDOF 10
ENDMDL
MODEL 8
REMARK VINA RESULT:      -6.9      1.759      2.180
REMARK  Name = 
REMARK  12 active torsions:
REMARK  status: ('A' for Active; 'I' for Inactive)
REMARK    1  A    between atoms: C_1  and  O_2
REMARK    2  A    between atoms: O_2  and  C_3
REMARK    3  A    between atoms: C_3  and  C_4
REMARK    4  A    between atoms: C_7  and  C_8
REMARK    5  A    between atoms: C_8  and  O_9
REMARK    6  A    between atoms: O_9  and  C_10
REMARK    7  A    between atoms: N_11  and  S_12
REMARK    8  A    between atoms: S_12  and  C_15
REMARK    9  A    between atoms: N_25  and  C_26
REMARK   10  A    between atoms: C_26  and  C_27
REMARK   11  A    between atoms: C_27  and  C_28
REMARK   12  A    between atoms: C_28  and  C_29
REMARK                            x       y       z     vdW  Elec       q    Type
REMARK                         _______ _______ _______ _____ _____    ______ ____
ROOT
ATOM      1  C   UNL     1       2.495   7.594  18.677  0.00  0.00    +0.000 A 
ATOM      2  C   UNL     1       2.511   8.595  17.675  0.00  0.00    +0.000 A 
ATOM      3  C   UNL     1       1.880   9.835  17.872  0.00  0.00    +0.000 A 
ATOM      4  C   UNL     1       1.147   9.998  19.031  0.00  0.00    +0.000 A 
ATOM      5  C   UNL     1       1.180   9.007  20.014  0.00  0.00    +0.000 A 
ATOM      6  C   UNL     1       1.932   7.845  19.923  0.00  0.00    +0.000 A 
ATOM      7  C   UNL     1       0.143   9.340  20.991  0.00  0.00    +0.000 C 
ATOM      8  O   UNL     1      -0.250   8.633  21.891  0.00  0.00    +0.000 OA
ATOM      9  C   UNL     1      -0.452  10.694  20.529  0.00  0.00    +0.000 C 
ATOM     10  O   UNL     1      -1.361  11.282  21.076  0.00  0.00    +0.000 OA
ATOM     11  N   UNL     1       0.251  11.027  19.379  0.00  0.00    +0.000 N 
ENDROOT
BRANCH   1  12
ATOM     12  S   UNL     1       3.049   5.954  18.201  0.00  0.00    +0.000 S 
ATOM     13  O   UNL     1       4.018   6.208  17.159  0.00  0.00    +0.000 OA
ATOM     14  O   UNL     1       1.846   5.195  17.917  0.00  0.00    +0.000 OA
BRANCH  12  19
ATOM     15  C   UNL     1       5.086   4.395  19.213  0.00  0.00    +0.000 C 
ATOM     16  C   UNL     1       4.575   2.984  18.960  0.00  0.00    +0.000 C 
ATOM     17  C   UNL     1       3.584   2.783  20.085  0.00  0.00    +0.000 C 
ATOM     18  C   UNL     1       3.060   4.188  20.433  0.00  0.00    +0.000 C 
ATOM     19  N   UNL     1       3.808   5.186  19.534  0.00  0.00    +0.000 NA
BRANCH  15  20
ATOM     20  C   UNL     1       6.025   4.885  18.111  0.00  0.00    +0.000 C 
BRANCH  20  22
ATOM     21  C   UNL     1       7.850   5.705  19.380  0.00  0.00    +0.000 C 
ATOM     22  O   UNL     1       7.372   4.675  18.529  0.00  0.00    +0.000 OA
ENDBRANCH  20  22
ENDBRANCH  15  20
BRANCH  18  23
ATOM     23  C   UNL     1       1.537   4.241  20.507  0.00  0.00    +0.000 C 
BRANCH  23  24
ATOM     24  O   UNL     1       0.947   2.939  20.516  0.00  0.00    +0.000 OA
ATOM     25  C   UNL     1       0.472   2.606  19.210  0.00  0.00    +0.000 C 
ENDBRANCH  23  24
ENDBRANCH  18  23
ENDBRANCH  12  19
ENDBRANCH   1  12
BRANCH  11  26
ATOM     26  C   UNL     1       0.070  12.273  18.668  0.00  0.00    +0.000 C 
BRANCH  26  27
ATOM     27  C   UNL     1       1.251  13.241  18.739  0.00  0.00    +0.000 C 
BRANCH  27  28
ATOM     28  C   UNL     1       0.975  14.484  19.587  0.00  0.00    +0.000 C 
BRANCH  28  29
ATOM     29  C   UNL     1      -0.453  14.967  19.397  0.00  0.00    +0.000 C 
ATOM     30  F   UNL     1      -0.518  15.710  18.260  0.00  0.00    +0.000 F 
ENDBRANCH  28  29
ENDBRANCH  27  28
ENDBRANCH  26  27
ENDBRANCH  11  26
TORSDOF 10
ENDMDL
MODEL 9
REMARK VINA RESULT:      -6.9      2.404      4.031
REMARK  Name = 
REMARK  12 active torsions:
REMARK  status: ('A' for Active; 'I' for Inactive)
REMARK    1  A    between atoms: C_1  and  O_2
REMARK    2  A    between atoms: O_2  and  C_3
REMARK    3  A    between atoms: C_3  and  C_4
REMARK    4  A    between atoms: C_7  and  C_8
REMARK    5  A    between atoms: C_8  and  O_9
REMARK    6  A    between atoms: O_9  and  C_10
REMARK    7  A    between atoms: N_11  and  S_12
REMARK    8  A    between atoms: S_12  and  C_15
REMARK    9  A    between atoms: N_25  and  C_26
REMARK   10  A    between atoms: C_26  and  C_27
REMARK   11  A    between atoms: C_27  and  C_28
REMARK   12  A    between atoms: C_28  and  C_29
REMARK                            x       y       z     vdW  Elec       q    Type
REMARK                         _______ _______ _______ _____ _____    ______ ____
ROOT
ATOM      1  C   UNL     1       2.282   7.442  19.332  0.00  0.00    +0.000 A 
ATOM      2  C   UNL     1       2.239   8.229  18.156  0.00  0.00    +0.000 A 
ATOM      3  C   UNL     1       1.604   9.483  18.139  0.00  0.00    +0.000 A 
ATOM      4  C   UNL     1       0.927   9.867  19.279  0.00  0.00    +0.000 A 
ATOM      5  C   UNL     1       1.018   9.087  20.433  0.00  0.00    +0.000 A 
ATOM      6  C   UNL     1       1.778   7.931  20.533  0.00  0.00    +0.000 A 
ATOM      7  C   UNL     1       0.025   9.602  21.377  0.00  0.00    +0.000 C 
ATOM      8  O   UNL     1      -0.315   9.084  22.415  0.00  0.00    +0.000 OA
ATOM      9  C   UNL     1      -0.606  10.839  20.690  0.00  0.00    +0.000 C 
ATOM     10  O   UNL     1      -1.495  11.521  21.156  0.00  0.00    +0.000 OA
ATOM     11  N   UNL     1       0.036  10.943  19.464  0.00  0.00    +0.000 N 
ENDROOT
BRANCH   1  12
ATOM     12  S   UNL     1       2.831   5.742  19.158  0.00  0.00    +0.000 S 
ATOM     13  O   UNL     1       1.695   4.967  19.602  0.00  0.00    +0.000 OA
ATOM     14  O   UNL     1       4.097   5.658  19.860  0.00  0.00    +0.000 OA
BRANCH  12  19
ATOM     15  C   UNL     1       2.995   3.937  17.079  0.00  0.00    +0.000 C 
ATOM     16  C   UNL     1       4.390   3.354  17.262  0.00  0.00    +0.000 C 
ATOM     17  C   UNL     1       5.278   4.428  16.673  0.00  0.00    +0.000 C 
ATOM     18  C   UNL     1       4.514   5.750  16.862  0.00  0.00    +0.000 C 
ATOM     19  N   UNL     1       3.163   5.403  17.509  0.00  0.00    +0.000 NA
BRANCH  15  20
ATOM     20  C   UNL     1       1.911   3.076  17.724  0.00  0.00    +0.000 C 
BRANCH  20  22
ATOM     21  C   UNL     1       2.106   1.737  19.669  0.00  0.00    +0.000 C 
ATOM     22  O   UNL     1       2.526   1.940  18.329  0.00  0.00    +0.000 OA
ENDBRANCH  20  22
ENDBRANCH  15  20
BRANCH  18  23
ATOM     23  C   UNL     1       5.381   6.843  17.479  0.00  0.00    +0.000 C 
BRANCH  23  24
ATOM     24  O   UNL     1       6.552   7.110  16.703  0.00  0.00    +0.000 OA
ATOM     25  C   UNL     1       7.597   7.605  17.544  0.00  0.00    +0.000 C 
ENDBRANCH  23  24
ENDBRANCH  18  23
ENDBRANCH  12  19
ENDBRANCH   1  12
BRANCH  11  26
ATOM     26  C   UNL     1      -0.193  12.026  18.534  0.00  0.00    +0.000 C 
BRANCH  26  27
ATOM     27  C   UNL     1       0.899  13.096  18.498  0.00  0.00    +0.000 C 
BRANCH  27  28
ATOM     28  C   UNL     1       0.787  14.123  19.627  0.00  0.00    +0.000 C 
BRANCH  28  29
ATOM     29  C   UNL     1      -0.624  14.678  19.720  0.00  0.00    +0.000 C 
ATOM     30  F   UNL     1      -0.635  15.702  20.616  0.00  0.00    +0.000 F 
ENDBRANCH  28  29
ENDBRANCH  27  28
ENDBRANCH  26  27
ENDBRANCH  11  26
TORSDOF 10
ENDMDL
