MODEL 1
REMARK VINA RESULT:      -8.0      0.000      0.000
REMARK  Name = 
REMARK  7 active torsions:
REMARK  status: ('A' for Active; 'I' for Inactive)
REMARK    1  A    between atoms: C_1  and  C_2
REMARK    2  A    between atoms: C_4  and  C_5
REMARK    3  A    between atoms: C_6  and  C_7
REMARK    4  A    between atoms: C_7  and  N_8
REMARK    5  A    between atoms: C_7  and  C_15
REMARK    6  A    between atoms: C_24  and  O_25
REMARK    7  A    between atoms: C_26  and  C_27
REMARK                            x       y       z     vdW  Elec       q    Type
REMARK                         _______ _______ _______ _____ _____    ______ ____
ROOT
ATOM      1  C   UNL     1       0.316  10.290  19.193  0.00  0.00    +0.000 C 
ENDROOT
BRANCH   1   2
ATOM      2  C   UNL     1       1.123   8.993  19.338  0.00  0.00    +0.000 A 
ATOM      3  C   UNL     1       1.685   8.621  18.140  0.00  0.00    +0.000 A 
ATOM      4  C   UNL     1       2.890   8.007  18.192  0.00  0.00    +0.000 A 
ATOM      5  C   UNL     1       2.624   6.781  18.680  0.00  0.00    +0.000 A 
ATOM      6  C   UNL     1       2.868   5.752  17.809  0.00  0.00    +0.000 A 
ATOM      7  C   UNL     1       2.676   4.462  18.265  0.00  0.00    +0.000 A 
ATOM      8  C   UNL     1       2.286   4.329  19.587  0.00  0.00    +0.000 A 
ATOM      9  N   UNL     1       1.979   5.393  20.437  0.00  0.00    +0.000 NA
ATOM     10  C   UNL     1       2.050   6.705  19.947  0.00  0.00    +0.000 A 
ATOM     11  C   UNL     1       1.557   8.087  20.335  0.00  0.00    +0.000 A 
BRANCH  11  12
ATOM     12  O   UNL     1       1.974   8.632  21.537  0.00  0.00    +0.000 OA
ATOM     13  H   UNL     1       2.751   9.190  21.322  0.00  0.00    +0.000 HD
ENDBRANCH  11  12
ENDBRANCH   1   2
BRANCH   1  19
ATOM     14  C   UNL     1       0.841  15.837  21.125  0.00  0.00    +0.000 C 
ATOM     15  C   UNL     1       0.768  14.396  20.713  0.00  0.00    +0.000 A 
ATOM     16  C   UNL     1       0.180  13.416  21.500  0.00  0.00    +0.000 A 
ATOM     17  C   UNL     1       0.133  12.066  21.070  0.00  0.00    +0.000 A 
ATOM     18  C   UNL     1      -0.377  11.066  22.098  0.00  0.00    +0.000 C 
ATOM     19  C   UNL     1       0.698  11.664  19.808  0.00  0.00    +0.000 A 
ATOM     20  C   UNL     1       1.474  12.637  19.154  0.00  0.00    +0.000 A 
ATOM     21  C   UNL     1       2.558  12.318  18.173  0.00  0.00    +0.000 C 
ATOM     22  C   UNL     1       1.412  13.994  19.551  0.00  0.00    +0.000 A 
ENDBRANCH   1  19
BRANCH   1  23
ATOM     23  N   UNL     1      -0.295  10.456  17.867  0.00  0.00    +0.000 N 
ATOM     24  C   UNL     1      -1.644  10.688  17.663  0.00  0.00    +0.000 A 
ATOM     25  C   UNL     1      -2.445  11.474  18.496  0.00  0.00    +0.000 A 
ATOM     26  C   UNL     1      -3.819  11.572  18.267  0.00  0.00    +0.000 A 
ATOM     27  C   UNL     1      -4.371  10.950  17.168  0.00  0.00    +0.000 A 
ATOM     28  C   UNL     1      -3.499  10.276  16.330  0.00  0.00    +0.000 A 
ATOM     29  N   UNL     1      -2.172  10.109  16.567  0.00  0.00    +0.000 NA
ATOM     30  H   UNL     1       0.089   9.885  17.125  0.00  0.00    +0.000 HD
ENDBRANCH   1  23
TORSDOF 4
ENDMDL
MODEL 2
REMARK VINA RESULT:      -7.8      2.193      6.125
REMARK  Name = 
REMARK  7 active torsions:
REMARK  status: ('A' for Active; 'I' for Inactive)
REMARK    1  A    between atoms: C_1  and  C_2
REMARK    2  A    between atoms: C_4  and  C_5
REMARK    3  A    between atoms: C_6  and  C_7
REMARK    4  A    between atoms: C_7  and  N_8
REMARK    5  A    between atoms: C_7  and  C_15
REMARK    6  A    between atoms: C_24  and  O_25
REMARK    7  A    between atoms: C_26  and  C_27
REMARK                            x       y       z     vdW  Elec       q    Type
REMARK                         _______ _______ _______ _____ _____    ______ ____
ROOT
ATOM      1  C   UNL     1       0.723  10.423  19.427  0.00  0.00    +0.000 C 
ENDROOT
BRANCH   1   2
ATOM      2  C   UNL     1       1.420  11.774  19.633  0.00  0.00    +0.000 A 
ATOM      3  C   UNL     1       1.850  12.300  18.436  0.00  0.00    +0.000 A 
ATOM      4  C   UNL     1       1.822  13.646  18.313  0.00  0.00    +0.000 A 
ATOM      5  C   UNL     1       2.828  14.078  19.096  0.00  0.00    +0.000 A 
ATOM      6  C   UNL     1       3.854  14.692  18.426  0.00  0.00    +0.000 A 
ATOM      7  C   UNL     1       4.892  15.214  19.173  0.00  0.00    +0.000 A 
ATOM      8  C   UNL     1       4.776  15.102  20.548  0.00  0.00    +0.000 A 
ATOM      9  N   UNL     1       3.754  14.415  21.208  0.00  0.00    +0.000 NA
ATOM     10  C   UNL     1       2.763  13.772  20.453  0.00  0.00    +0.000 A 
ATOM     11  C   UNL     1       1.694  12.714  20.656  0.00  0.00    +0.000 A 
BRANCH  11  12
ATOM     12  O   UNL     1       0.686  12.949  21.575  0.00  0.00    +0.000 OA
ATOM     13  H   UNL     1       0.964  12.493  22.398  0.00  0.00    +0.000 HD
ENDBRANCH  11  12
ENDBRANCH   1   2
BRANCH   1  19
ATOM     14  C   UNL     1       1.962   4.791  20.662  0.00  0.00    +0.000 C 
ATOM     15  C   UNL     1       1.749   6.243  20.346  0.00  0.00    +0.000 A 
ATOM     16  C   UNL     1       2.166   6.824  19.156  0.00  0.00    +0.000 A 
ATOM     17  C   UNL     1       1.943   8.200  18.900  0.00  0.00    +0.000 A 
ATOM     18  C   UNL     1       2.602   8.749  17.643  0.00  0.00    +0.000 C 
ATOM     19  C   UNL     1       1.285   9.042  19.863  0.00  0.00    +0.000 A 
ATOM     20  C   UNL     1       1.084   8.470  21.133  0.00  0.00    +0.000 A 
ATOM     21  C   UNL     1       0.941   9.265  22.392  0.00  0.00    +0.000 C 
ATOM     22  C   UNL     1       1.218   7.074  21.321  0.00  0.00    +0.000 A 
ENDBRANCH   1  19
BRANCH   1  23
ATOM     23  N   UNL     1      -0.735  10.482  19.607  0.00  0.00    +0.000 N 
ATOM     24  C   UNL     1      -1.637  10.559  18.561  0.00  0.00    +0.000 A 
ATOM     25  C   UNL     1      -1.481   9.909  17.334  0.00  0.00    +0.000 A 
ATOM     26  C   UNL     1      -2.396  10.124  16.299  0.00  0.00    +0.000 A 
ATOM     27  C   UNL     1      -3.497  10.923  16.521  0.00  0.00    +0.000 A 
ATOM     28  C   UNL     1      -3.639  11.449  17.794  0.00  0.00    +0.000 A 
ATOM     29  N   UNL     1      -2.731  11.310  18.794  0.00  0.00    +0.000 NA
ATOM     30  H   UNL     1      -1.064  11.005  20.407  0.00  0.00    +0.000 HD
ENDBRANCH   1  23
TORSDOF 4
ENDMDL
MODEL 3
REMARK VINA RESULT:      -7.7      2.165      6.269
REMARK  Name = 
REMARK  7 active torsions:
REMARK  status: ('A' for Active; 'I' for Inactive)
REMARK    1  A    between atoms: C_1  and  C_2
REMARK    2  A    between atoms: C_4  and  C_5
REMARK    3  A    between atoms: C_6  and  C_7
REMARK    4  A    between atoms: C_7  and  N_8
REMARK    5  A    between atoms: C_7  and  C_15
REMARK    6  A    between atoms: C_24  and  O_25
REMARK    7  A    between atoms: C_26  and  C_27
REMARK                            x       y       z     vdW  Elec       q    Type
REMARK                         _______ _______ _______ _____ _____    ______ ____
ROOT
ATOM      1  C   UNL     1       0.219  10.594  18.967  0.00  0.00    +0.000 C 
ENDROOT
BRANCH   1   2
ATOM      2  C   UNL     1       0.709  12.046  19.025  0.00  0.00    +0.000 A 
ATOM      3  C   UNL     1       2.055  12.128  18.754  0.00  0.00    +0.000 A 
ATOM      4  C   UNL     1       2.483  13.233  18.100  0.00  0.00    +0.000 A 
ATOM      5  C   UNL     1       2.399  14.219  19.011  0.00  0.00    +0.000 A 
ATOM      6  C   UNL     1       3.602  14.768  19.374  0.00  0.00    +0.000 A 
ATOM      7  C   UNL     1       3.586  15.827  20.261  0.00  0.00    +0.000 A 
ATOM      8  C   UNL     1       2.339  16.266  20.672  0.00  0.00    +0.000 A 
ATOM      9  N   UNL     1       1.130  15.651  20.341  0.00  0.00    +0.000 NA
ATOM     10  C   UNL     1       1.143  14.498  19.543  0.00  0.00    +0.000 A 
ATOM     11  C   UNL     1       0.205  13.360  19.183  0.00  0.00    +0.000 A 
BRANCH  11  12
ATOM     12  O   UNL     1      -0.988  13.653  18.546  0.00  0.00    +0.000 OA
ATOM     13  H   UNL     1      -0.741  13.988  17.658  0.00  0.00    +0.000 HD
ENDBRANCH  11  12
ENDBRANCH   1   2
BRANCH   1  19
ATOM     14  C   UNL     1       2.178   5.386  20.922  0.00  0.00    +0.000 C 
ATOM     15  C   UNL     1       1.778   6.744  20.423  0.00  0.00    +0.000 A 
ATOM     16  C   UNL     1       2.156   7.230  19.179  0.00  0.00    +0.000 A 
ATOM     17  C   UNL     1       1.755   8.520  18.748  0.00  0.00    +0.000 A 
ATOM     18  C   UNL     1       2.379   9.001  17.446  0.00  0.00    +0.000 C 
ATOM     19  C   UNL     1       0.949   9.370  19.584  0.00  0.00    +0.000 A 
ATOM     20  C   UNL     1       0.782   8.932  20.911  0.00  0.00    +0.000 A 
ATOM     21  C   UNL     1       0.481   9.845  22.058  0.00  0.00    +0.000 C 
ATOM     22  C   UNL     1       1.100   7.603  21.275  0.00  0.00    +0.000 A 
ENDBRANCH   1  19
BRANCH   1  23
ATOM     23  N   UNL     1      -1.239  10.461  19.098  0.00  0.00    +0.000 N 
ATOM     24  C   UNL     1      -2.117  10.519  18.029  0.00  0.00    +0.000 A 
ATOM     25  C   UNL     1      -1.850  10.001  16.759  0.00  0.00    +0.000 A 
ATOM     26  C   UNL     1      -2.756  10.192  15.713  0.00  0.00    +0.000 A 
ATOM     27  C   UNL     1      -3.953  10.830  15.959  0.00  0.00    +0.000 A 
ATOM     28  C   UNL     1      -4.191  11.224  17.265  0.00  0.00    +0.000 A 
ATOM     29  N   UNL     1      -3.300  11.109  18.283  0.00  0.00    +0.000 NA
ATOM     30  H   UNL     1      -1.651  10.870  19.926  0.00  0.00    +0.000 HD
ENDBRANCH   1  23
TORSDOF 4
ENDMDL
MODEL 4
REMARK VINA RESULT:      -7.6      1.993      6.480
REMARK  Name = 
REMARK  7 active torsions:
REMARK  status: ('A' for Active; 'I' for Inactive)
REMARK    1  A    between atoms: C_1  and  C_2
REMARK    2  A    between atoms: C_4  and  C_5
REMARK    3  A    between atoms: C_6  and  C_7
REMARK    4  A    between atoms: C_7  and  N_8
REMARK    5  A    between atoms: C_7  and  C_15
REMARK    6  A    between atoms: C_24  and  O_25
REMARK    7  A    between atoms: C_26  and  C_27
REMARK                            x       y       z     vdW  Elec       q    Type
REMARK                         _______ _______ _______ _____ _____    ______ ____
ROOT
ATOM      1  C   UNL     1       0.513  10.560  19.162  0.00  0.00    +0.000 C 
ENDROOT
BRANCH   1   2
ATOM      2  C   UNL     1       1.158  11.950  19.228  0.00  0.00    +0.000 A 
ATOM      3  C   UNL     1       1.207  12.414  20.522  0.00  0.00    +0.000 A 
ATOM      4  C   UNL     1       2.269  13.183  20.858  0.00  0.00    +0.000 A 
ATOM      5  C   UNL     1       2.051  14.354  20.231  0.00  0.00    +0.000 A 
ATOM      6  C   UNL     1       1.844  15.421  21.065  0.00  0.00    +0.000 A 
ATOM      7  C   UNL     1       1.674  16.666  20.490  0.00  0.00    +0.000 A 
ATOM      8  C   UNL     1       1.769  16.723  19.110  0.00  0.00    +0.000 A 
ATOM      9  N   UNL     1       1.915  15.613  18.275  0.00  0.00    +0.000 NA
ATOM     10  C   UNL     1       1.961  14.331  18.841  0.00  0.00    +0.000 A 
ATOM     11  C   UNL     1       1.808  12.890  18.393  0.00  0.00    +0.000 A 
BRANCH  11  12
ATOM     12  O   UNL     1       2.688  12.385  17.451  0.00  0.00    +0.000 OA
ATOM     13  H   UNL     1       3.267  13.135  17.197  0.00  0.00    +0.000 HD
ENDBRANCH  11  12
ENDBRANCH   1   2
BRANCH   1  19
ATOM     14  C   UNL     1       2.057   5.103  20.779  0.00  0.00    +0.000 C 
ATOM     15  C   UNL     1       1.765   6.516  20.370  0.00  0.00    +0.000 A 
ATOM     16  C   UNL     1       2.204   7.060  19.171  0.00  0.00    +0.000 A 
ATOM     17  C   UNL     1       1.905   8.401  18.824  0.00  0.00    +0.000 A 
ATOM     18  C   UNL     1       2.591   8.926  17.572  0.00  0.00    +0.000 C 
ATOM     19  C   UNL     1       1.141   9.247  19.704  0.00  0.00    +0.000 A 
ATOM     20  C   UNL     1       0.912   8.731  20.993  0.00  0.00    +0.000 A 
ATOM     21  C   UNL     1       0.650   9.581  22.196  0.00  0.00    +0.000 C 
ATOM     22  C   UNL     1       1.128   7.361  21.269  0.00  0.00    +0.000 A 
ENDBRANCH   1  19
BRANCH   1  23
ATOM     23  N   UNL     1      -0.941  10.577  19.374  0.00  0.00    +0.000 N 
ATOM     24  C   UNL     1      -1.870  10.590  18.348  0.00  0.00    +0.000 A 
ATOM     25  C   UNL     1      -1.720   9.906  17.139  0.00  0.00    +0.000 A 
ATOM     26  C   UNL     1      -2.664  10.057  16.120  0.00  0.00    +0.000 A 
ATOM     27  C   UNL     1      -3.786  10.826  16.341  0.00  0.00    +0.000 A 
ATOM     28  C   UNL     1      -3.916  11.389  17.600  0.00  0.00    +0.000 A 
ATOM     29  N   UNL     1      -2.982  11.312  18.582  0.00  0.00    +0.000 NA
ATOM     30  H   UNL     1      -1.270  11.115  20.165  0.00  0.00    +0.000 HD
ENDBRANCH   1  23
TORSDOF 4
ENDMDL
MODEL 5
REMARK VINA RESULT:      -7.6      2.108      6.527
REMARK  Name = 
REMARK  7 active torsions:
REMARK  status: ('A' for Active; 'I' for Inactive)
REMARK    1  A    between atoms: C_1  and  C_2
REMARK    2  A    between atoms: C_4  and  C_5
REMARK    3  A    between atoms: C_6  and  C_7
REMARK    4  A    between atoms: C_7  and  N_8
REMARK    5  A    between atoms: C_7  and  C_15
REMARK    6  A    between atoms: C_24  and  O_25
REMARK    7  A    between atoms: C_26  and  C_27
REMARK                            x       y       z     vdW  Elec       q    Type
REMARK                         _______ _______ _______ _____ _____    ______ ____
ROOT
ATOM      1  C   UNL     1       0.008  11.128  19.178  0.00  0.00    +0.000 C 
ENDROOT
BRANCH   1   2
ATOM      2  C   UNL     1       0.480  12.575  19.370  0.00  0.00    +0.000 A 
ATOM      3  C   UNL     1      -0.469  13.470  18.934  0.00  0.00    +0.000 A 
ATOM      4  C   UNL     1      -0.565  14.639  19.609  0.00  0.00    +0.000 A 
ATOM      5  C   UNL     1       0.538  15.325  19.256  0.00  0.00    +0.000 A 
ATOM      6  C   UNL     1       0.297  16.470  18.543  0.00  0.00    +0.000 A 
ATOM      7  C   UNL     1       1.380  17.256  18.200  0.00  0.00    +0.000 A 
ATOM      8  C   UNL     1       2.618  16.827  18.648  0.00  0.00    +0.000 A 
ATOM      9  N   UNL     1       2.849  15.623  19.317  0.00  0.00    +0.000 NA
ATOM     10  C   UNL     1       1.773  14.756  19.559  0.00  0.00    +0.000 A 
ATOM     11  C   UNL     1       1.553  13.303  19.938  0.00  0.00    +0.000 A 
BRANCH  11  12
ATOM     12  O   UNL     1       2.051  12.844  21.146  0.00  0.00    +0.000 OA
ATOM     13  H   UNL     1       1.736  11.919  21.230  0.00  0.00    +0.000 HD
ENDBRANCH  11  12
ENDBRANCH   1   2
BRANCH   1  19
ATOM     14  C   UNL     1       1.933   5.797  20.805  0.00  0.00    +0.000 C 
ATOM     15  C   UNL     1       1.541   7.186  20.398  0.00  0.00    +0.000 A 
ATOM     16  C   UNL     1       1.984   7.780  19.224  0.00  0.00    +0.000 A 
ATOM     17  C   UNL     1       1.587   9.097  18.879  0.00  0.00    +0.000 A 
ATOM     18  C   UNL     1       2.280   9.693  17.662  0.00  0.00    +0.000 C 
ATOM     19  C   UNL     1       0.720   9.864  19.734  0.00  0.00    +0.000 A 
ATOM     20  C   UNL     1       0.482   9.314  21.006  0.00  0.00    +0.000 A 
ATOM     21  C   UNL     1       0.099  10.124  22.205  0.00  0.00    +0.000 C 
ATOM     22  C   UNL     1       0.799   7.963  21.277  0.00  0.00    +0.000 A 
ENDBRANCH   1  19
BRANCH   1  23
ATOM     23  N   UNL     1      -1.453  10.977  19.229  0.00  0.00    +0.000 N 
ATOM     24  C   UNL     1      -2.248  10.795  18.110  0.00  0.00    +0.000 A 
ATOM     25  C   UNL     1      -1.877  10.047  16.991  0.00  0.00    +0.000 A 
ATOM     26  C   UNL     1      -2.705  10.000  15.866  0.00  0.00    +0.000 A 
ATOM     27  C   UNL     1      -3.927  10.635  15.895  0.00  0.00    +0.000 A 
ATOM     28  C   UNL     1      -4.271  11.269  17.077  0.00  0.00    +0.000 A 
ATOM     29  N   UNL     1      -3.457  11.386  18.158  0.00  0.00    +0.000 NA
ATOM     30  H   UNL     1      -1.934  11.526  19.928  0.00  0.00    +0.000 HD
ENDBRANCH   1  23
TORSDOF 4
ENDMDL
MODEL 6
REMARK VINA RESULT:      -7.3      2.697      6.252
REMARK  Name = 
REMARK  7 active torsions:
REMARK  status: ('A' for Active; 'I' for Inactive)
REMARK    1  A    between atoms: C_1  and  C_2
REMARK    2  A    between atoms: C_4  and  C_5
REMARK    3  A    between atoms: C_6  and  C_7
REMARK    4  A    between atoms: C_7  and  N_8
REMARK    5  A    between atoms: C_7  and  C_15
REMARK    6  A    between atoms: C_24  and  O_25
REMARK    7  A    between atoms: C_26  and  C_27
REMARK                            x       y       z     vdW  Elec       q    Type
REMARK                         _______ _______ _______ _____ _____    ______ ____
ROOT
ATOM      1  C   UNL     1       0.691  11.461  20.452  0.00  0.00    +0.000 C 
ENDROOT
BRANCH   1   2
ATOM      2  C   UNL     1       1.657  12.631  20.225  0.00  0.00    +0.000 A 
ATOM      3  C   UNL     1       1.838  12.872  18.883  0.00  0.00    +0.000 A 
ATOM      4  C   UNL     1       2.031  14.159  18.512  0.00  0.00    +0.000 A 
ATOM      5  C   UNL     1       3.273  14.452  18.940  0.00  0.00    +0.000 A 
ATOM      6  C   UNL     1       4.176  14.714  17.943  0.00  0.00    +0.000 A 
ATOM      7  C   UNL     1       5.455  15.083  18.313  0.00  0.00    +0.000 A 
ATOM      8  C   UNL     1       5.695  15.191  19.672  0.00  0.00    +0.000 A 
ATOM      9  N   UNL     1       4.780  14.856  20.672  0.00  0.00    +0.000 NA
ATOM     10  C   UNL     1       3.519  14.360  20.308  0.00  0.00    +0.000 A 
ATOM     11  C   UNL     1       2.367  13.614  20.955  0.00  0.00    +0.000 A 
BRANCH  11  12
ATOM     12  O   UNL     1       1.706  14.199  22.021  0.00  0.00    +0.000 OA
ATOM     13  H   UNL     1       2.134  13.844  22.829  0.00  0.00    +0.000 HD
ENDBRANCH  11  12
ENDBRANCH   1   2
BRANCH   1  19
ATOM     14  C   UNL     1      -3.993  12.661  23.829  0.00  0.00    +0.000 C 
ATOM     15  C   UNL     1      -2.863  12.298  22.911  0.00  0.00    +0.000 A 
ATOM     16  C   UNL     1      -2.827  12.676  21.575  0.00  0.00    +0.000 A 
ATOM     17  C   UNL     1      -1.739  12.310  20.743  0.00  0.00    +0.000 A 
ATOM     18  C   UNL     1      -1.905  12.633  19.266  0.00  0.00    +0.000 C 
ATOM     19  C   UNL     1      -0.640  11.532  21.251  0.00  0.00    +0.000 A 
ATOM     20  C   UNL     1      -0.825  10.985  22.534  0.00  0.00    +0.000 A 
ATOM     21  C   UNL     1      -0.121   9.761  23.027  0.00  0.00    +0.000 C 
ATOM     22  C   UNL     1      -1.864  11.453  23.372  0.00  0.00    +0.000 A 
ENDBRANCH   1  19
BRANCH   1  23
ATOM     23  N   UNL     1       0.563  10.571  19.289  0.00  0.00    +0.000 N 
ATOM     24  C   UNL     1       1.206   9.351  19.179  0.00  0.00    +0.000 A 
ATOM     25  C   UNL     1       1.424   8.473  20.244  0.00  0.00    +0.000 A 
ATOM     26  C   UNL     1       2.170   7.307  20.058  0.00  0.00    +0.000 A 
ATOM     27  C   UNL     1       2.627   6.987  18.798  0.00  0.00    +0.000 A 
ATOM     28  C   UNL     1       2.284   7.852  17.773  0.00  0.00    +0.000 A 
ATOM     29  N   UNL     1       1.618   9.024  17.939  0.00  0.00    +0.000 NA
ATOM     30  H   UNL     1       0.490  11.023  18.388  0.00  0.00    +0.000 HD
ENDBRANCH   1  23
TORSDOF 4
ENDMDL
MODEL 7
REMARK VINA RESULT:      -7.3      3.117      7.407
REMARK  Name = 
REMARK  7 active torsions:
REMARK  status: ('A' for Active; 'I' for Inactive)
REMARK    1  A    between atoms: C_1  and  C_2
REMARK    2  A    between atoms: C_4  and  C_5
REMARK    3  A    between atoms: C_6  and  C_7
REMARK    4  A    between atoms: C_7  and  N_8
REMARK    5  A    between atoms: C_7  and  C_15
REMARK    6  A    between atoms: C_24  and  O_25
REMARK    7  A    between atoms: C_26  and  C_27
REMARK                            x       y       z     vdW  Elec       q    Type
REMARK                         _______ _______ _______ _____ _____    ______ ____
ROOT
ATOM      1  C   UNL     1      -1.721  12.234  19.459  0.00  0.00    +0.000 C 
ENDROOT
BRANCH   1   2
ATOM      2  C   UNL     1      -3.245  12.277  19.630  0.00  0.00    +0.000 A 
ATOM      3  C   UNL     1      -3.596  12.915  20.797  0.00  0.00    +0.000 A 
ATOM      4  C   UNL     1      -4.743  13.634  20.781  0.00  0.00    +0.000 A 
ATOM      5  C   UNL     1      -5.721  12.710  20.754  0.00  0.00    +0.000 A 
ATOM      6  C   UNL     1      -6.519  12.685  21.867  0.00  0.00    +0.000 A 
ATOM      7  C   UNL     1      -7.581  11.802  21.880  0.00  0.00    +0.000 A 
ATOM      8  C   UNL     1      -7.764  11.044  20.736  0.00  0.00    +0.000 A 
ATOM      9  N   UNL     1      -6.900  11.037  19.639  0.00  0.00    +0.000 NA
ATOM     10  C   UNL     1      -5.749  11.836  19.669  0.00  0.00    +0.000 A 
ATOM     11  C   UNL     1      -4.429  11.948  18.928  0.00  0.00    +0.000 A 
BRANCH  11  12
ATOM     12  O   UNL     1      -4.445  12.214  17.569  0.00  0.00    +0.000 OA
ATOM     13  H   UNL     1      -4.423  11.340  17.125  0.00  0.00    +0.000 HD
ENDBRANCH  11  12
ENDBRANCH   1   2
BRANCH   1  19
ATOM     14  C   UNL     1       2.318   8.019  18.627  0.00  0.00    +0.000 C 
ATOM     15  C   UNL     1       1.239   9.025  18.899  0.00  0.00    +0.000 A 
ATOM     16  C   UNL     1       0.990   9.539  20.164  0.00  0.00    +0.000 A 
ATOM     17  C   UNL     1      -0.041  10.489  20.375  0.00  0.00    +0.000 A 
ATOM     18  C   UNL     1      -0.326  10.837  21.829  0.00  0.00    +0.000 C 
ATOM     19  C   UNL     1      -0.868  10.947  19.290  0.00  0.00    +0.000 A 
ATOM     20  C   UNL     1      -0.730  10.240  18.082  0.00  0.00    +0.000 A 
ATOM     21  C   UNL     1      -1.800  10.156  17.039  0.00  0.00    +0.000 C 
ATOM     22  C   UNL     1       0.372   9.378  17.875  0.00  0.00    +0.000 A 
ENDBRANCH   1  19
BRANCH   1  23
ATOM     23  N   UNL     1      -1.192  13.331  18.635  0.00  0.00    +0.000 N 
ATOM     24  C   UNL     1      -0.267  14.257  19.087  0.00  0.00    +0.000 A 
ATOM     25  C   UNL     1       0.784  13.961  19.960  0.00  0.00    +0.000 A 
ATOM     26  C   UNL     1       1.610  14.980  20.440  0.00  0.00    +0.000 A 
ATOM     27  C   UNL     1       1.432  16.270  19.988  0.00  0.00    +0.000 A 
ATOM     28  C   UNL     1       0.437  16.467  19.045  0.00  0.00    +0.000 A 
ATOM     29  N   UNL     1      -0.422  15.508  18.614  0.00  0.00    +0.000 NA
ATOM     30  H   UNL     1      -1.843  13.757  17.989  0.00  0.00    +0.000 HD
ENDBRANCH   1  23
TORSDOF 4
ENDMDL
MODEL 8
REMARK VINA RESULT:      -7.2      0.687      1.723
REMARK  Name = 
REMARK  7 active torsions:
REMARK  status: ('A' for Active; 'I' for Inactive)
REMARK    1  A    between atoms: C_1  and  C_2
REMARK    2  A    between atoms: C_4  and  C_5
REMARK    3  A    between atoms: C_6  and  C_7
REMARK    4  A    between atoms: C_7  and  N_8
REMARK    5  A    between atoms: C_7  and  C_15
REMARK    6  A    between atoms: C_24  and  O_25
REMARK    7  A    between atoms: C_26  and  C_27
REMARK                            x       y       z     vdW  Elec       q    Type
REMARK                         _______ _______ _______ _____ _____    ______ ____
ROOT
ATOM      1  C   UNL     1       0.253  10.586  19.203  0.00  0.00    +0.000 C 
ENDROOT
BRANCH   1   2
ATOM      2  C   UNL     1       1.018   9.271  19.397  0.00  0.00    +0.000 A 
ATOM      3  C   UNL     1       1.555   8.828  18.211  0.00  0.00    +0.000 A 
ATOM      4  C   UNL     1       2.739   8.178  18.279  0.00  0.00    +0.000 A 
ATOM      5  C   UNL     1       2.439   6.984  18.823  0.00  0.00    +0.000 A 
ATOM      6  C   UNL     1       2.640   5.910  17.996  0.00  0.00    +0.000 A 
ATOM      7  C   UNL     1       2.410   4.648  18.510  0.00  0.00    +0.000 A 
ATOM      8  C   UNL     1       2.030   4.586  19.840  0.00  0.00    +0.000 A 
ATOM      9  N   UNL     1       1.767   5.696  20.646  0.00  0.00    +0.000 NA
ATOM     10  C   UNL     1       1.876   6.982  20.097  0.00  0.00    +0.000 A 
ATOM     11  C   UNL     1       1.433   8.395  20.429  0.00  0.00    +0.000 A 
BRANCH  11  12
ATOM     12  O   UNL     1       1.880   8.979  21.602  0.00  0.00    +0.000 OA
ATOM     13  H   UNL     1       2.549   9.643  21.332  0.00  0.00    +0.000 HD
ENDBRANCH  11  12
ENDBRANCH   1   2
BRANCH   1  19
ATOM     14  C   UNL     1       2.467  15.250  22.053  0.00  0.00    +0.000 C 
ATOM     15  C   UNL     1       1.881  14.127  21.249  0.00  0.00    +0.000 A 
ATOM     16  C   UNL     1       2.428  13.696  20.048  0.00  0.00    +0.000 A 
ATOM     17  C   UNL     1       1.841  12.629  19.321  0.00  0.00    +0.000 A 
ATOM     18  C   UNL     1       2.429  12.373  17.941  0.00  0.00    +0.000 C 
ATOM     19  C   UNL     1       0.658  11.963  19.798  0.00  0.00    +0.000 A 
ATOM     20  C   UNL     1       0.016  12.574  20.890  0.00  0.00    +0.000 A 
ATOM     21  C   UNL     1      -1.439  12.411  21.200  0.00  0.00    +0.000 C 
ATOM     22  C   UNL     1       0.679  13.564  21.653  0.00  0.00    +0.000 A 
ENDBRANCH   1  19
BRANCH   1  23
ATOM     23  N   UNL     1      -0.318  10.740  17.857  0.00  0.00    +0.000 N 
ATOM     24  C   UNL     1      -1.675  10.839  17.602  0.00  0.00    +0.000 A 
ATOM     25  C   UNL     1      -2.586  11.505  18.425  0.00  0.00    +0.000 A 
ATOM     26  C   UNL     1      -3.954  11.469  18.140  0.00  0.00    +0.000 A 
ATOM     27  C   UNL     1      -4.392  10.837  16.997  0.00  0.00    +0.000 A 
ATOM     28  C   UNL     1      -3.421  10.289  16.176  0.00  0.00    +0.000 A 
ATOM     29  N   UNL     1      -2.094  10.252  16.465  0.00  0.00    +0.000 NA
ATOM     30  H   UNL     1       0.153  10.241  17.114  0.00  0.00    +0.000 HD
ENDBRANCH   1  23
TORSDOF 4
ENDMDL
MODEL 9
REMARK VINA RESULT:      -7.1      3.773      7.844
REMARK  Name = 
REMARK  7 active torsions:
REMARK  status: ('A' for Active; 'I' for Inactive)
REMARK    1  A    between atoms: C_1  and  C_2
REMARK    2  A    between atoms: C_4  and  C_5
REMARK    3  A    between atoms: C_6  and  C_7
REMARK    4  A    between atoms: C_7  and  N_8
REMARK    5  A    between atoms: C_7  and  C_15
REMARK    6  A    between atoms: C_24  and  O_25
REMARK    7  A    between atoms: C_26  and  C_27
REMARK                            x       y       z     vdW  Elec       q    Type
REMARK                         _______ _______ _______ _____ _____    ______ ____
ROOT
ATOM      1  C   UNL     1      -1.952  12.384  19.185  0.00  0.00    +0.000 C 
ENDROOT
BRANCH   1   2
ATOM      2  C   UNL     1      -2.656  12.832  20.472  0.00  0.00    +0.000 A 
ATOM      3  C   UNL     1      -2.229  12.098  21.554  0.00  0.00    +0.000 A 
ATOM      4  C   UNL     1      -2.167  12.738  22.744  0.00  0.00    +0.000 A 
ATOM      5  C   UNL     1      -3.453  12.904  23.107  0.00  0.00    +0.000 A 
ATOM      6  C   UNL     1      -3.824  12.220  24.235  0.00  0.00    +0.000 A 
ATOM      7  C   UNL     1      -5.114  12.392  24.699  0.00  0.00    +0.000 A 
ATOM      8  C   UNL     1      -5.907  13.282  23.993  0.00  0.00    +0.000 A 
ATOM      9  N   UNL     1      -5.530  13.918  22.809  0.00  0.00    +0.000 NA
ATOM     10  C   UNL     1      -4.267  13.652  22.260  0.00  0.00    +0.000 A 
ATOM     11  C   UNL     1      -3.550  13.828  20.934  0.00  0.00    +0.000 A 
BRANCH  11  12
ATOM     12  O   UNL     1      -3.377  15.106  20.431  0.00  0.00    +0.000 OA
ATOM     13  H   UNL     1      -3.636  15.058  19.486  0.00  0.00    +0.000 HD
ENDBRANCH  11  12
ENDBRANCH   1   2
BRANCH   1  19
ATOM     14  C   UNL     1      -3.899   9.737  14.289  0.00  0.00    +0.000 C 
ATOM     15  C   UNL     1      -3.408  10.318  15.582  0.00  0.00    +0.000 A 
ATOM     16  C   UNL     1      -2.197   9.958  16.158  0.00  0.00    +0.000 A 
ATOM     17  C   UNL     1      -1.772  10.534  17.382  0.00  0.00    +0.000 A 
ATOM     18  C   UNL     1      -0.518   9.926  17.993  0.00  0.00    +0.000 C 
ATOM     19  C   UNL     1      -2.582  11.504  18.071  0.00  0.00    +0.000 A 
ATOM     20  C   UNL     1      -3.887  11.669  17.574  0.00  0.00    +0.000 A 
ATOM     21  C   UNL     1      -5.035  12.167  18.394  0.00  0.00    +0.000 C 
ATOM     22  C   UNL     1      -4.240  11.165  16.299  0.00  0.00    +0.000 A 
ENDBRANCH   1  19
BRANCH   1  23
ATOM     23  N   UNL     1      -1.068  13.410  18.613  0.00  0.00    +0.000 N 
ATOM     24  C   UNL     1       0.157  13.761  19.154  0.00  0.00    +0.000 A 
ATOM     25  C   UNL     1       1.040  12.863  19.758  0.00  0.00    +0.000 A 
ATOM     26  C   UNL     1       2.211  13.325  20.366  0.00  0.00    +0.000 A 
ATOM     27  C   UNL     1       2.528  14.664  20.299  0.00  0.00    +0.000 A 
ATOM     28  C   UNL     1       1.656  15.476  19.595  0.00  0.00    +0.000 A 
ATOM     29  N   UNL     1       0.480  15.064  19.054  0.00  0.00    +0.000 NA
ATOM     30  H   UNL     1      -1.525  14.213  18.202  0.00  0.00    +0.000 HD
ENDBRANCH   1  23
TORSDOF 4
ENDMDL
