MODEL 1
REMARK VINA RESULT:      -6.6      0.000      0.000
REMARK  Name = 
REMARK  2 active torsions:
REMARK  status: ('A' for Active; 'I' for Inactive)
REMARK    1  A    between atoms: C_1  and  C_2
REMARK    2  A    between atoms: C_2  and  C_3
REMARK                            x       y       z     vdW  Elec       q    Type
REMARK                         _______ _______ _______ _____ _____    ______ ____
ROOT
ATOM      1  C   UNL     1       1.257   2.904  21.320  0.00  0.00    +0.000 C 
ATOM      2  C   UNL     1       1.713   3.045  19.859  0.00  0.00    +0.000 C 
ATOM      3  C   UNL     1       0.567   2.580  18.955  0.00  0.00    +0.000 C 
ATOM      4  O   UNL     1       2.840   2.175  19.641  0.00  0.00    +0.000 OA
ATOM      5  C   UNL     1       4.012   2.871  19.754  0.00  0.00    +0.000 C 
ATOM      6  O   UNL     1       5.123   2.362  19.697  0.00  0.00    +0.000 OA
ATOM      7  C   UNL     1       3.712   4.322  20.041  0.00  0.00    +0.000 C 
ATOM      8  C   UNL     1       4.703   5.346  19.492  0.00  0.00    +0.000 C 
ATOM      9  C   UNL     1       4.543   5.731  18.024  0.00  0.00    +0.000 C 
ATOM     10 BR   UNL     1       5.389   4.377  16.877  0.00  0.00    +0.000 Br
ATOM     11  C   UNL     1       3.101   5.927  17.583  0.00  0.00    +0.000 C 
ATOM     12 BR   UNL     1       2.447   7.669  18.205  0.00  0.00    +0.000 Br
ATOM     13  C   UNL     1       2.162   4.827  18.063  0.00  0.00    +0.000 C 
ATOM     14  C   UNL     1       2.272   4.452  19.554  0.00  0.00    +0.000 C 
ENDROOT
TORSDOF 0
ENDMDL
MODEL 2
REMARK VINA RESULT:      -6.1      2.552      4.666
REMARK  Name = 
REMARK  2 active torsions:
REMARK  status: ('A' for Active; 'I' for Inactive)
REMARK    1  A    between atoms: C_1  and  C_2
REMARK    2  A    between atoms: C_2  and  C_3
REMARK                            x       y       z     vdW  Elec       q    Type
REMARK                         _______ _______ _______ _____ _____    ______ ____
ROOT
ATOM      1  C   UNL     1       7.391   7.060  17.296  0.00  0.00    +0.000 C 
ATOM      2  C   UNL     1       6.918   5.816  18.065  0.00  0.00    +0.000 C 
ATOM      3  C   UNL     1       7.777   5.679  19.326  0.00  0.00    +0.000 C 
ATOM      4  O   UNL     1       7.137   4.654  17.242  0.00  0.00    +0.000 OA
ATOM      5  C   UNL     1       5.988   4.309  16.584  0.00  0.00    +0.000 C 
ATOM      6  O   UNL     1       5.912   3.411  15.758  0.00  0.00    +0.000 OA
ATOM      7  C   UNL     1       4.879   5.254  16.975  0.00  0.00    +0.000 C 
ATOM      8  C   UNL     1       3.465   4.678  16.992  0.00  0.00    +0.000 C 
ATOM      9  C   UNL     1       3.064   3.890  18.236  0.00  0.00    +0.000 C 
ATOM     10 BR   UNL     1       3.752   2.053  18.120  0.00  0.00    +0.000 Br
ATOM     11  C   UNL     1       3.523   4.513  19.545  0.00  0.00    +0.000 C 
ATOM     12 BR   UNL     1       2.354   6.018  20.011  0.00  0.00    +0.000 Br
ATOM     13  C   UNL     1       4.973   4.980  19.522  0.00  0.00    +0.000 C 
ATOM     14  C   UNL     1       5.391   5.817  18.298  0.00  0.00    +0.000 C 
ENDROOT
TORSDOF 0
ENDMDL
MODEL 3
REMARK VINA RESULT:      -6.1      2.413      3.402
REMARK  Name = 
REMARK  2 active torsions:
REMARK  status: ('A' for Active; 'I' for Inactive)
REMARK    1  A    between atoms: C_1  and  C_2
REMARK    2  A    between atoms: C_2  and  C_3
REMARK                            x       y       z     vdW  Elec       q    Type
REMARK                         _______ _______ _______ _____ _____    ______ ____
ROOT
ATOM      1  C   UNL     1       1.561   3.460  17.812  0.00  0.00    +0.000 C 
ATOM      2  C   UNL     1       3.075   3.284  18.001  0.00  0.00    +0.000 C 
ATOM      3  C   UNL     1       3.359   1.793  18.211  0.00  0.00    +0.000 C 
ATOM      4  O   UNL     1       3.477   3.991  19.190  0.00  0.00    +0.000 OA
ATOM      5  C   UNL     1       3.970   5.226  18.870  0.00  0.00    +0.000 C 
ATOM      6  O   UNL     1       4.307   6.066  19.692  0.00  0.00    +0.000 OA
ATOM      7  C   UNL     1       3.946   5.406  17.372  0.00  0.00    +0.000 C 
ATOM      8  C   UNL     1       5.046   6.279  16.772  0.00  0.00    +0.000 C 
ATOM      9  C   UNL     1       6.400   5.612  16.546  0.00  0.00    +0.000 C 
ATOM     10 BR   UNL     1       7.421   5.575  18.225  0.00  0.00    +0.000 Br
ATOM     11  C   UNL     1       6.315   4.201  15.984  0.00  0.00    +0.000 C 
ATOM     12 BR   UNL     1       5.930   4.275  14.061  0.00  0.00    +0.000 Br
ATOM     13  C   UNL     1       5.279   3.328  16.680  0.00  0.00    +0.000 C 
ATOM     14  C   UNL     1       3.889   3.964  16.878  0.00  0.00    +0.000 C 
ENDROOT
TORSDOF 0
ENDMDL
MODEL 4
REMARK VINA RESULT:      -6.1      2.170      3.919
REMARK  Name = 
REMARK  2 active torsions:
REMARK  status: ('A' for Active; 'I' for Inactive)
REMARK    1  A    between atoms: C_1  and  C_2
REMARK    2  A    between atoms: C_2  and  C_3
REMARK                            x       y       z     vdW  Elec       q    Type
REMARK                         _______ _______ _______ _____ _____    ______ ____
ROOT
ATOM      1  C   UNL     1       5.161   4.696  15.824  0.00  0.00    +0.000 C 
ATOM      2  C   UNL     1       5.006   4.412  17.326  0.00  0.00    +0.000 C 
ATOM      3  C   UNL     1       6.351   4.689  18.005  0.00  0.00    +0.000 C 
ATOM      4  O   UNL     1       4.690   3.018  17.503  0.00  0.00    +0.000 OA
ATOM      5  C   UNL     1       3.340   2.846  17.642  0.00  0.00    +0.000 C 
ATOM      6  O   UNL     1       2.792   1.756  17.724  0.00  0.00    +0.000 OA
ATOM      7  C   UNL     1       2.652   4.187  17.589  0.00  0.00    +0.000 C 
ATOM      8  C   UNL     1       1.376   4.332  18.415  0.00  0.00    +0.000 C 
ATOM      9  C   UNL     1       1.555   4.621  19.903  0.00  0.00    +0.000 C 
ATOM     10 BR   UNL     1       1.928   2.952  20.872  0.00  0.00    +0.000 Br
ATOM     11  C   UNL     1       2.646   5.633  20.216  0.00  0.00    +0.000 C 
ATOM     12 BR   UNL     1       1.994   7.447  19.851  0.00  0.00    +0.000 Br
ATOM     13  C   UNL     1       3.941   5.391  19.450  0.00  0.00    +0.000 C 
ATOM     14  C   UNL     1       3.790   5.143  17.936  0.00  0.00    +0.000 C 
ENDROOT
TORSDOF 0
ENDMDL
MODEL 5
REMARK VINA RESULT:      -6.0      2.720      3.523
REMARK  Name = 
REMARK  2 active torsions:
REMARK  status: ('A' for Active; 'I' for Inactive)
REMARK    1  A    between atoms: C_1  and  C_2
REMARK    2  A    between atoms: C_2  and  C_3
REMARK                            x       y       z     vdW  Elec       q    Type
REMARK                         _______ _______ _______ _____ _____    ______ ____
ROOT
ATOM      1  C   UNL     1       2.243   6.392  19.957  0.00  0.00    +0.000 C 
ATOM      2  C   UNL     1       2.786   6.494  18.523  0.00  0.00    +0.000 C 
ATOM      3  C   UNL     1       2.300   7.817  17.923  0.00  0.00    +0.000 C 
ATOM      4  O   UNL     1       2.234   5.416  17.743  0.00  0.00    +0.000 OA
ATOM      5  C   UNL     1       3.117   4.373  17.676  0.00  0.00    +0.000 C 
ATOM      6  O   UNL     1       2.872   3.298  17.146  0.00  0.00    +0.000 OA
ATOM      7  C   UNL     1       4.378   4.729  18.424  0.00  0.00    +0.000 C 
ATOM      8  C   UNL     1       5.678   4.125  17.897  0.00  0.00    +0.000 C 
ATOM      9  C   UNL     1       6.328   4.832  16.712  0.00  0.00    +0.000 C 
ATOM     10 BR   UNL     1       5.456   4.279  15.038  0.00  0.00    +0.000 Br
ATOM     11  C   UNL     1       6.312   6.349  16.804  0.00  0.00    +0.000 C 
ATOM     12 BR   UNL     1       7.707   6.954  18.045  0.00  0.00    +0.000 Br
ATOM     13  C   UNL     1       4.966   6.921  17.230  0.00  0.00    +0.000 C 
ATOM     14  C   UNL     1       4.310   6.253  18.455  0.00  0.00    +0.000 C 
ENDROOT
TORSDOF 0
ENDMDL
MODEL 6
REMARK VINA RESULT:      -6.0      2.164      3.863
REMARK  Name = 
REMARK  2 active torsions:
REMARK  status: ('A' for Active; 'I' for Inactive)
REMARK    1  A    between atoms: C_1  and  C_2
REMARK    2  A    between atoms: C_2  and  C_3
REMARK                            x       y       z     vdW  Elec       q    Type
REMARK                         _______ _______ _______ _____ _____    ______ ____
ROOT
ATOM      1  C   UNL     1       6.763   4.503  17.050  0.00  0.00    +0.000 C 
ATOM      2  C   UNL     1       5.959   4.768  18.333  0.00  0.00    +0.000 C 
ATOM      3  C   UNL     1       6.876   5.481  19.331  0.00  0.00    +0.000 C 
ATOM      4  O   UNL     1       5.570   3.503  18.902  0.00  0.00    +0.000 OA
ATOM      5  C   UNL     1       4.292   3.184  18.532  0.00  0.00    +0.000 C 
ATOM      6  O   UNL     1       3.740   2.128  18.807  0.00  0.00    +0.000 OA
ATOM      7  C   UNL     1       3.724   4.287  17.674  0.00  0.00    +0.000 C 
ATOM      8  C   UNL     1       2.219   4.522  17.772  0.00  0.00    +0.000 C 
ATOM      9  C   UNL     1       1.734   5.358  18.952  0.00  0.00    +0.000 C 
ATOM     10 BR   UNL     1       1.609   4.239  20.564  0.00  0.00    +0.000 Br
ATOM     11  C   UNL     1       2.597   6.572  19.254  0.00  0.00    +0.000 C 
ATOM     12 BR   UNL     1       2.209   8.001  17.967  0.00  0.00    +0.000 Br
ATOM     13  C   UNL     1       4.091   6.274  19.252  0.00  0.00    +0.000 C 
ATOM     14  C   UNL     1       4.614   5.470  18.045  0.00  0.00    +0.000 C 
ENDROOT
TORSDOF 0
ENDMDL
MODEL 7
REMARK VINA RESULT:      -5.7      1.822      3.288
REMARK  Name = 
REMARK  2 active torsions:
REMARK  status: ('A' for Active; 'I' for Inactive)
REMARK    1  A    between atoms: C_1  and  C_2
REMARK    2  A    between atoms: C_2  and  C_3
REMARK                            x       y       z     vdW  Elec       q    Type
REMARK                         _______ _______ _______ _____ _____    ______ ____
ROOT
ATOM      1  C   UNL     1       3.690   1.090  18.688  0.00  0.00    +0.000 C 
ATOM      2  C   UNL     1       3.590   2.527  19.223  0.00  0.00    +0.000 C 
ATOM      3  C   UNL     1       3.689   2.475  20.751  0.00  0.00    +0.000 C 
ATOM      4  O   UNL     1       2.299   3.061  18.873  0.00  0.00    +0.000 OA
ATOM      5  C   UNL     1       2.385   3.817  17.735  0.00  0.00    +0.000 C 
ATOM      6  O   UNL     1       1.424   4.320  17.171  0.00  0.00    +0.000 OA
ATOM      7  C   UNL     1       3.816   3.849  17.258  0.00  0.00    +0.000 C 
ATOM      8  C   UNL     1       4.268   5.120  16.543  0.00  0.00    +0.000 C 
ATOM      9  C   UNL     1       4.666   6.297  17.429  0.00  0.00    +0.000 C 
ATOM     10 BR   UNL     1       3.062   7.266  18.022  0.00  0.00    +0.000 Br
ATOM     11  C   UNL     1       5.493   5.912  18.645  0.00  0.00    +0.000 C 
ATOM     12 BR   UNL     1       7.349   5.574  18.106  0.00  0.00    +0.000 Br
ATOM     13  C   UNL     1       4.949   4.702  19.394  0.00  0.00    +0.000 C 
ATOM     14  C   UNL     1       4.583   3.482  18.525  0.00  0.00    +0.000 C 
ENDROOT
TORSDOF 0
ENDMDL
MODEL 8
REMARK VINA RESULT:      -5.7      2.927      4.886
REMARK  Name = 
REMARK  2 active torsions:
REMARK  status: ('A' for Active; 'I' for Inactive)
REMARK    1  A    between atoms: C_1  and  C_2
REMARK    2  A    between atoms: C_2  and  C_3
REMARK                            x       y       z     vdW  Elec       q    Type
REMARK                         _______ _______ _______ _____ _____    ______ ____
ROOT
ATOM      1  C   UNL     1       7.408   6.480  17.867  0.00  0.00    +0.000 C 
ATOM      2  C   UNL     1       6.263   5.628  17.296  0.00  0.00    +0.000 C 
ATOM      3  C   UNL     1       6.815   4.816  16.120  0.00  0.00    +0.000 C 
ATOM      4  O   UNL     1       5.239   6.507  16.796  0.00  0.00    +0.000 OA
ATOM      5  C   UNL     1       4.248   6.667  17.726  0.00  0.00    +0.000 C 
ATOM      6  O   UNL     1       3.297   7.424  17.594  0.00  0.00    +0.000 OA
ATOM      7  C   UNL     1       4.563   5.838  18.946  0.00  0.00    +0.000 C 
ATOM      8  C   UNL     1       3.370   5.281  19.720  0.00  0.00    +0.000 C 
ATOM      9  C   UNL     1       2.735   4.006  19.171  0.00  0.00    +0.000 C 
ATOM     10 BR   UNL     1       1.507   4.446  17.700  0.00  0.00    +0.000 Br
ATOM     11  C   UNL     1       3.736   2.967  18.690  0.00  0.00    +0.000 C 
ATOM     12 BR   UNL     1       4.508   2.027  20.230  0.00  0.00    +0.000 Br
ATOM     13  C   UNL     1       4.854   3.547  17.833  0.00  0.00    +0.000 C 
ATOM     14  C   UNL     1       5.542   4.809  18.389  0.00  0.00    +0.000 C 
ENDROOT
TORSDOF 0
ENDMDL
MODEL 9
REMARK VINA RESULT:      -5.5      1.504      3.201
REMARK  Name = 
REMARK  2 active torsions:
REMARK  status: ('A' for Active; 'I' for Inactive)
REMARK    1  A    between atoms: C_1  and  C_2
REMARK    2  A    between atoms: C_2  and  C_3
REMARK                            x       y       z     vdW  Elec       q    Type
REMARK                         _______ _______ _______ _____ _____    ______ ____
ROOT
ATOM      1  C   UNL     1       3.464   1.158  18.474  0.00  0.00    +0.000 C 
ATOM      2  C   UNL     1       3.663   2.424  19.322  0.00  0.00    +0.000 C 
ATOM      3  C   UNL     1       4.858   2.192  20.252  0.00  0.00    +0.000 C 
ATOM      4  O   UNL     1       2.491   2.624  20.135  0.00  0.00    +0.000 OA
ATOM      5  C   UNL     1       1.645   3.522  19.544  0.00  0.00    +0.000 C 
ATOM      6  O   UNL     1       0.539   3.814  19.979  0.00  0.00    +0.000 OA
ATOM      7  C   UNL     1       2.251   4.014  18.253  0.00  0.00    +0.000 C 
ATOM      8  C   UNL     1       1.916   5.446  17.843  0.00  0.00    +0.000 C 
ATOM      9  C   UNL     1       2.730   6.554  18.504  0.00  0.00    +0.000 C 
ATOM     10 BR   UNL     1       2.003   6.952  20.286  0.00  0.00    +0.000 Br
ATOM     11  C   UNL     1       4.215   6.249  18.628  0.00  0.00    +0.000 C 
ATOM     12 BR   UNL     1       5.095   6.513  16.894  0.00  0.00    +0.000 Br
ATOM     13  C   UNL     1       4.508   4.845  19.142  0.00  0.00    +0.000 C 
ATOM     14  C   UNL     1       3.731   3.703  18.458  0.00  0.00    +0.000 C 
ENDROOT
TORSDOF 0
ENDMDL
