MODEL 1
REMARK VINA RESULT:      -8.7      0.000      0.000
REMARK  Name = 
REMARK  6 active torsions:
REMARK  status: ('A' for Active; 'I' for Inactive)
REMARK    1  A    between atoms: C_1  and  C_2
REMARK    2  A    between atoms: C_2  and  C_4
REMARK    3  A    between atoms: C_6  and  C_7
REMARK    4  A    between atoms: N_12  and  C_13
REMARK    5  A    between atoms: C_16  and  N_17
REMARK    6  A    between atoms: C_18  and  C_20
REMARK                            x       y       z     vdW  Elec       q    Type
REMARK                         _______ _______ _______ _____ _____    ______ ____
ROOT
ATOM      1  C   UNL     1       2.750   7.180  18.556  0.00  0.00    +0.000 A 
ATOM      2  C   UNL     1       2.328   8.303  17.843  0.00  0.00    +0.000 A 
ATOM      3  C   UNL     1       1.440   9.208  18.432  0.00  0.00    +0.000 A 
ATOM      4  C   UNL     1       0.980   9.026  19.739  0.00  0.00    +0.000 A 
ATOM      5  C   UNL     1       1.470   7.942  20.473  0.00  0.00    +0.000 A 
ATOM      6  C   UNL     1       2.357   7.030  19.890  0.00  0.00    +0.000 A 
ENDROOT
BRANCH   1  11
ATOM      7  C   UNL     1       3.411   4.856  17.760  0.00  0.00    +0.000 A 
ATOM      8  C   UNL     1       4.649   4.382  17.354  0.00  0.00    +0.000 A 
ATOM      9  C   UNL     1       5.455   5.521  17.116  0.00  0.00    +0.000 A 
ATOM     10  N   UNL     1       4.760   6.642  17.365  0.00  0.00    +0.000 NA
ATOM     11  N   UNL     1       3.583   6.226  17.913  0.00  0.00    +0.000 N 
BRANCH   9  12
ATOM     12  C   UNL     1       6.878   5.534  16.620  0.00  0.00    +0.000 C 
ATOM     13  F   UNL     1       7.483   6.728  16.881  0.00  0.00    +0.000 F 
ATOM     14  F   UNL     1       7.650   4.580  17.202  0.00  0.00    +0.000 F 
ATOM     15  F   UNL     1       6.960   5.353  15.275  0.00  0.00    +0.000 F 
ENDBRANCH   9  12
BRANCH   7  17
ATOM     16  C   UNL     1       2.134   3.038  18.962  0.00  0.00    +0.000 C 
ATOM     17  C   UNL     1       2.166   4.123  17.915  0.00  0.00    +0.000 C 
ATOM     18  O   UNL     1       1.168   4.303  17.219  0.00  0.00    +0.000 OA
ENDBRANCH   7  17
ENDBRANCH   1  11
BRANCH   4  19
ATOM     19  N   UNL     1       0.045   9.880  20.368  0.00  0.00    +0.000 N 
ATOM     20  C   UNL     1       0.350  10.990  21.132  0.00  0.00    +0.000 C 
ATOM     21  O   UNL     1       1.480  11.413  21.358  0.00  0.00    +0.000 OA
ATOM     22  H   UNL     1      -0.934   9.670  20.210  0.00  0.00    +0.000 HD
BRANCH  20  23
ATOM     23  C   UNL     1      -0.774  11.749  21.744  0.00  0.00    +0.000 A 
ATOM     24  C   UNL     1      -1.143  12.960  21.131  0.00  0.00    +0.000 A 
ATOM     25  C   UNL     1      -2.163  13.749  21.658  0.00  0.00    +0.000 A 
ATOM     26  C   UNL     1      -2.834  13.334  22.805  0.00  0.00    +0.000 A 
ATOM     27  C   UNL     1      -2.488  12.128  23.416  0.00  0.00    +0.000 A 
ATOM     28  C   UNL     1      -1.464  11.341  22.885  0.00  0.00    +0.000 A 
ATOM     29  F   UNL     1      -1.162  10.188  23.503  0.00  0.00    +0.000 F 
ENDBRANCH  20  23
ENDBRANCH   4  19
TORSDOF 5
ENDMDL
MODEL 2
REMARK VINA RESULT:      -8.5      0.718      1.397
REMARK  Name = 
REMARK  6 active torsions:
REMARK  status: ('A' for Active; 'I' for Inactive)
REMARK    1  A    between atoms: C_1  and  C_2
REMARK    2  A    between atoms: C_2  and  C_4
REMARK    3  A    between atoms: C_6  and  C_7
REMARK    4  A    between atoms: N_12  and  C_13
REMARK    5  A    between atoms: C_16  and  N_17
REMARK    6  A    between atoms: C_18  and  C_20
REMARK                            x       y       z     vdW  Elec       q    Type
REMARK                         _______ _______ _______ _____ _____    ______ ____
ROOT
ATOM      1  C   UNL     1       2.857   6.829  18.427  0.00  0.00    +0.000 A 
ATOM      2  C   UNL     1       2.387   6.662  19.731  0.00  0.00    +0.000 A 
ATOM      3  C   UNL     1       1.630   7.672  20.332  0.00  0.00    +0.000 A 
ATOM      4  C   UNL     1       1.308   8.844  19.643  0.00  0.00    +0.000 A 
ATOM      5  C   UNL     1       1.714   8.968  18.311  0.00  0.00    +0.000 A 
ATOM      6  C   UNL     1       2.475   7.963  17.703  0.00  0.00    +0.000 A 
ENDROOT
BRANCH   1  11
ATOM      7  C   UNL     1       3.480   4.469  17.711  0.00  0.00    +0.000 A 
ATOM      8  C   UNL     1       4.724   3.938  17.411  0.00  0.00    +0.000 A 
ATOM      9  C   UNL     1       5.595   5.039  17.225  0.00  0.00    +0.000 A 
ATOM     10  N   UNL     1       4.930   6.191  17.406  0.00  0.00    +0.000 NA
ATOM     11  N   UNL     1       3.696   5.832  17.862  0.00  0.00    +0.000 N 
BRANCH   9  12
ATOM     12  C   UNL     1       7.052   4.986  16.845  0.00  0.00    +0.000 C 
ATOM     13  F   UNL     1       7.224   4.405  15.624  0.00  0.00    +0.000 F 
ATOM     14  F   UNL     1       7.623   6.217  16.766  0.00  0.00    +0.000 F 
ATOM     15  F   UNL     1       7.790   4.255  17.721  0.00  0.00    +0.000 F 
ENDBRANCH   9  12
BRANCH   7  17
ATOM     16  C   UNL     1       2.129   2.521  18.586  0.00  0.00    +0.000 C 
ATOM     17  C   UNL     1       2.196   3.790  17.773  0.00  0.00    +0.000 C 
ATOM     18  O   UNL     1       1.189   4.161  17.172  0.00  0.00    +0.000 OA
ENDBRANCH   7  17
ENDBRANCH   1  11
BRANCH   4  19
ATOM     19  N   UNL     1       0.589   9.919  20.216  0.00  0.00    +0.000 N 
ATOM     20  C   UNL     1       0.732  10.391  21.506  0.00  0.00    +0.000 C 
ATOM     21  O   UNL     1       1.524   9.959  22.340  0.00  0.00    +0.000 OA
ATOM     22  H   UNL     1      -0.062  10.401  19.606  0.00  0.00    +0.000 HD
BRANCH  20  23
ATOM     23  C   UNL     1      -0.142  11.513  21.943  0.00  0.00    +0.000 A 
ATOM     24  C   UNL     1       0.118  12.782  21.393  0.00  0.00    +0.000 A 
ATOM     25  C   UNL     1      -0.632  13.894  21.771  0.00  0.00    +0.000 A 
ATOM     26  C   UNL     1      -1.657  13.751  22.702  0.00  0.00    +0.000 A 
ATOM     27  C   UNL     1      -1.934  12.496  23.246  0.00  0.00    +0.000 A 
ATOM     28  C   UNL     1      -1.179  11.385  22.865  0.00  0.00    +0.000 A 
ATOM     29  F   UNL     1      -1.478  10.196  23.411  0.00  0.00    +0.000 F 
ENDBRANCH  20  23
ENDBRANCH   4  19
TORSDOF 5
ENDMDL
MODEL 3
REMARK VINA RESULT:      -8.5      1.076      1.398
REMARK  Name = 
REMARK  6 active torsions:
REMARK  status: ('A' for Active; 'I' for Inactive)
REMARK    1  A    between atoms: C_1  and  C_2
REMARK    2  A    between atoms: C_2  and  C_4
REMARK    3  A    between atoms: C_6  and  C_7
REMARK    4  A    between atoms: N_12  and  C_13
REMARK    5  A    between atoms: C_16  and  N_17
REMARK    6  A    between atoms: C_18  and  C_20
REMARK                            x       y       z     vdW  Elec       q    Type
REMARK                         _______ _______ _______ _____ _____    ______ ____
ROOT
ATOM      1  C   UNL     1       2.880   6.879  18.416  0.00  0.00    +0.000 A 
ATOM      2  C   UNL     1       2.631   8.055  17.706  0.00  0.00    +0.000 A 
ATOM      3  C   UNL     1       1.858   9.066  18.283  0.00  0.00    +0.000 A 
ATOM      4  C   UNL     1       1.344   8.936  19.577  0.00  0.00    +0.000 A 
ATOM      5  C   UNL     1       1.665   7.790  20.310  0.00  0.00    +0.000 A 
ATOM      6  C   UNL     1       2.437   6.772  19.738  0.00  0.00    +0.000 A 
ENDROOT
BRANCH   1  11
ATOM      7  C   UNL     1       3.265   4.486  17.646  0.00  0.00    +0.000 A 
ATOM      8  C   UNL     1       4.437   3.866  17.244  0.00  0.00    +0.000 A 
ATOM      9  C   UNL     1       5.370   4.901  16.990  0.00  0.00    +0.000 A 
ATOM     10  N   UNL     1       4.809   6.097  17.227  0.00  0.00    +0.000 NA
ATOM     11  N   UNL     1       3.594   5.827  17.782  0.00  0.00    +0.000 N 
BRANCH   9  12
ATOM     12  C   UNL     1       6.783   4.743  16.490  0.00  0.00    +0.000 C 
ATOM     13  F   UNL     1       7.334   5.949  16.174  0.00  0.00    +0.000 F 
ATOM     14  F   UNL     1       7.607   4.174  17.408  0.00  0.00    +0.000 F 
ATOM     15  F   UNL     1       6.852   3.987  15.363  0.00  0.00    +0.000 F 
ENDBRANCH   9  12
BRANCH   7  17
ATOM     16  C   UNL     1       1.794   2.825  18.857  0.00  0.00    +0.000 C 
ATOM     17  C   UNL     1       1.943   3.904  17.813  0.00  0.00    +0.000 C 
ATOM     18  O   UNL     1       0.966   4.204  17.129  0.00  0.00    +0.000 OA
ENDBRANCH   7  17
ENDBRANCH   1  11
BRANCH   4  19
ATOM     19  N   UNL     1       0.515   9.903  20.192  0.00  0.00    +0.000 N 
ATOM     20  C   UNL     1       0.646  10.376  21.484  0.00  0.00    +0.000 C 
ATOM     21  O   UNL     1       1.518  10.041  22.281  0.00  0.00    +0.000 OA
ATOM     22  H   UNL     1      -0.215  10.303  19.615  0.00  0.00    +0.000 HD
BRANCH  20  23
ATOM     23  C   UNL     1      -0.347  11.371  21.969  0.00  0.00    +0.000 A 
ATOM     24  C   UNL     1      -1.285  10.933  22.922  0.00  0.00    +0.000 A 
ATOM     25  C   UNL     1      -2.270  11.791  23.407  0.00  0.00    +0.000 A 
ATOM     26  C   UNL     1      -2.329  13.103  22.947  0.00  0.00    +0.000 A 
ATOM     27  C   UNL     1      -1.397  13.556  22.011  0.00  0.00    +0.000 A 
ATOM     28  C   UNL     1      -0.412  12.692  21.528  0.00  0.00    +0.000 A 
ATOM     29  F   UNL     1       0.465  13.166  20.630  0.00  0.00    +0.000 F 
ENDBRANCH  20  23
ENDBRANCH   4  19
TORSDOF 5
ENDMDL
MODEL 4
REMARK VINA RESULT:      -8.5      2.771      4.151
REMARK  Name = 
REMARK  6 active torsions:
REMARK  status: ('A' for Active; 'I' for Inactive)
REMARK    1  A    between atoms: C_1  and  C_2
REMARK    2  A    between atoms: C_2  and  C_4
REMARK    3  A    between atoms: C_6  and  C_7
REMARK    4  A    between atoms: N_12  and  C_13
REMARK    5  A    between atoms: C_16  and  N_17
REMARK    6  A    between atoms: C_18  and  C_20
REMARK                            x       y       z     vdW  Elec       q    Type
REMARK                         _______ _______ _______ _____ _____    ______ ____
ROOT
ATOM      1  C   UNL     1       4.493   5.678  16.875  0.00  0.00    +0.000 A 
ATOM      2  C   UNL     1       3.715   4.935  17.766  0.00  0.00    +0.000 A 
ATOM      3  C   UNL     1       2.901   5.592  18.693  0.00  0.00    +0.000 A 
ATOM      4  C   UNL     1       2.829   6.988  18.734  0.00  0.00    +0.000 A 
ATOM      5  C   UNL     1       3.549   7.721  17.787  0.00  0.00    +0.000 A 
ATOM      6  C   UNL     1       4.368   7.071  16.856  0.00  0.00    +0.000 A 
ENDROOT
BRANCH   1  11
ATOM      7  C   UNL     1       6.752   4.813  16.089  0.00  0.00    +0.000 A 
ATOM      8  C   UNL     1       7.140   4.375  14.833  0.00  0.00    +0.000 A 
ATOM      9  C   UNL     1       5.949   4.151  14.102  0.00  0.00    +0.000 A 
ATOM     10  N   UNL     1       4.879   4.439  14.859  0.00  0.00    +0.000 NA
ATOM     11  N   UNL     1       5.379   4.997  15.998  0.00  0.00    +0.000 N 
BRANCH   9  12
ATOM     12  C   UNL     1       5.837   3.631  12.692  0.00  0.00    +0.000 C 
ATOM     13  F   UNL     1       6.708   4.268  11.858  0.00  0.00    +0.000 F 
ATOM     14  F   UNL     1       6.115   2.304  12.593  0.00  0.00    +0.000 F 
ATOM     15  F   UNL     1       4.599   3.823  12.165  0.00  0.00    +0.000 F 
ENDBRANCH   9  12
BRANCH   7  17
ATOM     16  C   UNL     1       7.566   6.330  17.939  0.00  0.00    +0.000 C 
ATOM     17  C   UNL     1       7.563   4.971  17.285  0.00  0.00    +0.000 C 
ATOM     18  O   UNL     1       8.273   4.086  17.759  0.00  0.00    +0.000 OA
ENDBRANCH   7  17
ENDBRANCH   1  11
BRANCH   4  19
ATOM     19  N   UNL     1       2.063   7.706  19.681  0.00  0.00    +0.000 N 
ATOM     20  C   UNL     1       1.308   8.834  19.422  0.00  0.00    +0.000 C 
ATOM     21  O   UNL     1       1.173   9.367  18.324  0.00  0.00    +0.000 OA
ATOM     22  H   UNL     1       2.044   7.332  20.623  0.00  0.00    +0.000 HD
BRANCH  20  23
ATOM     23  C   UNL     1       0.595   9.476  20.560  0.00  0.00    +0.000 A 
ATOM     24  C   UNL     1       0.326   8.674  21.684  0.00  0.00    +0.000 A 
ATOM     25  C   UNL     1      -0.366   9.186  22.781  0.00  0.00    +0.000 A 
ATOM     26  C   UNL     1      -0.795  10.510  22.769  0.00  0.00    +0.000 A 
ATOM     27  C   UNL     1      -0.523  11.321  21.666  0.00  0.00    +0.000 A 
ATOM     28  C   UNL     1       0.170  10.803  20.569  0.00  0.00    +0.000 A 
ATOM     29  F   UNL     1       0.410  11.615  19.528  0.00  0.00    +0.000 F 
ENDBRANCH  20  23
ENDBRANCH   4  19
TORSDOF 5
ENDMDL
MODEL 5
REMARK VINA RESULT:      -8.5      0.983      1.485
REMARK  Name = 
REMARK  6 active torsions:
REMARK  status: ('A' for Active; 'I' for Inactive)
REMARK    1  A    between atoms: C_1  and  C_2
REMARK    2  A    between atoms: C_2  and  C_4
REMARK    3  A    between atoms: C_6  and  C_7
REMARK    4  A    between atoms: N_12  and  C_13
REMARK    5  A    between atoms: C_16  and  N_17
REMARK    6  A    between atoms: C_18  and  C_20
REMARK                            x       y       z     vdW  Elec       q    Type
REMARK                         _______ _______ _______ _____ _____    ______ ____
ROOT
ATOM      1  C   UNL     1       2.793   7.190  18.565  0.00  0.00    +0.000 A 
ATOM      2  C   UNL     1       2.386   8.265  17.773  0.00  0.00    +0.000 A 
ATOM      3  C   UNL     1       1.453   9.181  18.268  0.00  0.00    +0.000 A 
ATOM      4  C   UNL     1       0.933   9.058  19.560  0.00  0.00    +0.000 A 
ATOM      5  C   UNL     1       1.407   8.026  20.375  0.00  0.00    +0.000 A 
ATOM      6  C   UNL     1       2.338   7.103  19.885  0.00  0.00    +0.000 A 
ENDROOT
BRANCH   1  11
ATOM      7  C   UNL     1       3.545   4.841  17.945  0.00  0.00    +0.000 A 
ATOM      8  C   UNL     1       4.809   4.377  17.616  0.00  0.00    +0.000 A 
ATOM      9  C   UNL     1       5.594   5.522  17.333  0.00  0.00    +0.000 A 
ATOM     10  N   UNL     1       4.860   6.635  17.484  0.00  0.00    +0.000 NA
ATOM     11  N   UNL     1       3.674   6.222  18.015  0.00  0.00    +0.000 N 
BRANCH   9  12
ATOM     12  C   UNL     1       7.034   5.544  16.889  0.00  0.00    +0.000 C 
ATOM     13  F   UNL     1       7.134   5.488  15.530  0.00  0.00    +0.000 F 
ATOM     14  F   UNL     1       7.689   6.670  17.274  0.00  0.00    +0.000 F 
ATOM     15  F   UNL     1       7.739   4.485  17.365  0.00  0.00    +0.000 F 
ENDBRANCH   9  12
BRANCH   7  17
ATOM     16  C   UNL     1       2.118   3.357  19.409  0.00  0.00    +0.000 C 
ATOM     17  C   UNL     1       2.315   4.084  18.102  0.00  0.00    +0.000 C 
ATOM     18  O   UNL     1       1.460   3.966  17.226  0.00  0.00    +0.000 OA
ENDBRANCH   7  17
ENDBRANCH   1  11
BRANCH   4  19
ATOM     19  N   UNL     1      -0.048   9.924  20.096  0.00  0.00    +0.000 N 
ATOM     20  C   UNL     1       0.172  10.912  21.037  0.00  0.00    +0.000 C 
ATOM     21  O   UNL     1       1.260  11.198  21.530  0.00  0.00    +0.000 OA
ATOM     22  H   UNL     1      -0.986   9.827  19.725  0.00  0.00    +0.000 HD
BRANCH  20  23
ATOM     23  C   UNL     1      -0.996  11.703  21.509  0.00  0.00    +0.000 A 
ATOM     24  C   UNL     1      -1.391  11.531  22.848  0.00  0.00    +0.000 A 
ATOM     25  C   UNL     1      -2.495  12.208  23.363  0.00  0.00    +0.000 A 
ATOM     26  C   UNL     1      -3.217  13.073  22.544  0.00  0.00    +0.000 A 
ATOM     27  C   UNL     1      -2.829  13.263  21.218  0.00  0.00    +0.000 A 
ATOM     28  C   UNL     1      -1.722  12.581  20.706  0.00  0.00    +0.000 A 
ATOM     29  F   UNL     1      -1.382  12.792  19.425  0.00  0.00    +0.000 F 
ENDBRANCH  20  23
ENDBRANCH   4  19
TORSDOF 5
ENDMDL
MODEL 6
REMARK VINA RESULT:      -8.5      2.720      4.049
REMARK  Name = 
REMARK  6 active torsions:
REMARK  status: ('A' for Active; 'I' for Inactive)
REMARK    1  A    between atoms: C_1  and  C_2
REMARK    2  A    between atoms: C_2  and  C_4
REMARK    3  A    between atoms: C_6  and  C_7
REMARK    4  A    between atoms: N_12  and  C_13
REMARK    5  A    between atoms: C_16  and  N_17
REMARK    6  A    between atoms: C_18  and  C_20
REMARK                            x       y       z     vdW  Elec       q    Type
REMARK                         _______ _______ _______ _____ _____    ______ ____
ROOT
ATOM      1  C   UNL     1       4.497   5.661  16.867  0.00  0.00    +0.000 A 
ATOM      2  C   UNL     1       3.787   4.923  17.816  0.00  0.00    +0.000 A 
ATOM      3  C   UNL     1       2.972   5.581  18.741  0.00  0.00    +0.000 A 
ATOM      4  C   UNL     1       2.831   6.972  18.723  0.00  0.00    +0.000 A 
ATOM      5  C   UNL     1       3.482   7.695  17.720  0.00  0.00    +0.000 A 
ATOM      6  C   UNL     1       4.302   7.044  16.791  0.00  0.00    +0.000 A 
ENDROOT
BRANCH   1  11
ATOM      7  C   UNL     1       6.760   4.803  16.085  0.00  0.00    +0.000 A 
ATOM      8  C   UNL     1       7.153   4.369  14.828  0.00  0.00    +0.000 A 
ATOM      9  C   UNL     1       5.963   4.146  14.092  0.00  0.00    +0.000 A 
ATOM     10  N   UNL     1       4.891   4.430  14.848  0.00  0.00    +0.000 NA
ATOM     11  N   UNL     1       5.386   4.984  15.990  0.00  0.00    +0.000 N 
BRANCH   9  12
ATOM     12  C   UNL     1       5.857   3.630  12.680  0.00  0.00    +0.000 C 
ATOM     13  F   UNL     1       4.606   3.827  12.174  0.00  0.00    +0.000 F 
ATOM     14  F   UNL     1       6.716   4.246  11.826  0.00  0.00    +0.000 F 
ATOM     15  F   UNL     1       6.094   2.295  12.597  0.00  0.00    +0.000 F 
ENDBRANCH   9  12
BRANCH   7  17
ATOM     16  C   UNL     1       7.570   6.316  17.938  0.00  0.00    +0.000 C 
ATOM     17  C   UNL     1       7.567   4.958  17.283  0.00  0.00    +0.000 C 
ATOM     18  O   UNL     1       8.274   4.071  17.758  0.00  0.00    +0.000 OA
ENDBRANCH   7  17
ENDBRANCH   1  11
BRANCH   4  19
ATOM     19  N   UNL     1       2.061   7.695  19.664  0.00  0.00    +0.000 N 
ATOM     20  C   UNL     1       1.335   8.841  19.404  0.00  0.00    +0.000 C 
ATOM     21  O   UNL     1       1.232   9.388  18.310  0.00  0.00    +0.000 OA
ATOM     22  H   UNL     1       2.018   7.310  20.600  0.00  0.00    +0.000 HD
BRANCH  20  23
ATOM     23  C   UNL     1       0.613   9.484  20.535  0.00  0.00    +0.000 A 
ATOM     24  C   UNL     1       0.561  10.889  20.550  0.00  0.00    +0.000 A 
ATOM     25  C   UNL     1      -0.067  11.573  21.589  0.00  0.00    +0.000 A 
ATOM     26  C   UNL     1      -0.657  10.859  22.628  0.00  0.00    +0.000 A 
ATOM     27  C   UNL     1      -0.625   9.464  22.619  0.00  0.00    +0.000 A 
ATOM     28  C   UNL     1       0.006   8.783  21.576  0.00  0.00    +0.000 A 
ATOM     29  F   UNL     1       0.014   7.441  21.606  0.00  0.00    +0.000 F 
ENDBRANCH  20  23
ENDBRANCH   4  19
TORSDOF 5
ENDMDL
MODEL 7
REMARK VINA RESULT:      -8.4      1.396      1.889
REMARK  Name = 
REMARK  6 active torsions:
REMARK  status: ('A' for Active; 'I' for Inactive)
REMARK    1  A    between atoms: C_1  and  C_2
REMARK    2  A    between atoms: C_2  and  C_4
REMARK    3  A    between atoms: C_6  and  C_7
REMARK    4  A    between atoms: N_12  and  C_13
REMARK    5  A    between atoms: C_16  and  N_17
REMARK    6  A    between atoms: C_18  and  C_20
REMARK                            x       y       z     vdW  Elec       q    Type
REMARK                         _______ _______ _______ _____ _____    ______ ____
ROOT
ATOM      1  C   UNL     1       2.893   6.868  18.358  0.00  0.00    +0.000 A 
ATOM      2  C   UNL     1       2.464   6.653  19.669  0.00  0.00    +0.000 A 
ATOM      3  C   UNL     1       1.752   7.651  20.341  0.00  0.00    +0.000 A 
ATOM      4  C   UNL     1       1.436   8.861  19.716  0.00  0.00    +0.000 A 
ATOM      5  C   UNL     1       1.800   9.036  18.378  0.00  0.00    +0.000 A 
ATOM      6  C   UNL     1       2.515   8.043  17.699  0.00  0.00    +0.000 A 
ENDROOT
BRANCH   1  11
ATOM      7  C   UNL     1       3.447   4.524  17.542  0.00  0.00    +0.000 A 
ATOM      8  C   UNL     1       4.667   3.988  17.160  0.00  0.00    +0.000 A 
ATOM      9  C   UNL     1       5.541   5.085  16.960  0.00  0.00    +0.000 A 
ATOM     10  N   UNL     1       4.901   6.238  17.210  0.00  0.00    +0.000 NA
ATOM     11  N   UNL     1       3.689   5.879  17.721  0.00  0.00    +0.000 N 
BRANCH   9  12
ATOM     12  C   UNL     1       6.975   5.027  16.500  0.00  0.00    +0.000 C 
ATOM     13  F   UNL     1       7.564   6.255  16.560  0.00  0.00    +0.000 F 
ATOM     14  F   UNL     1       7.740   4.198  17.258  0.00  0.00    +0.000 F 
ATOM     15  F   UNL     1       7.089   4.613  15.211  0.00  0.00    +0.000 F 
ENDBRANCH   9  12
BRANCH   7  17
ATOM     16  C   UNL     1       2.149   2.486  18.280  0.00  0.00    +0.000 C 
ATOM     17  C   UNL     1       2.161   3.858  17.654  0.00  0.00    +0.000 C 
ATOM     18  O   UNL     1       1.104   4.323  17.230  0.00  0.00    +0.000 OA
ENDBRANCH   7  17
ENDBRANCH   1  11
BRANCH   4  19
ATOM     19  N   UNL     1       0.763   9.925  20.361  0.00  0.00    +0.000 N 
ATOM     20  C   UNL     1      -0.488  10.408  20.030  0.00  0.00    +0.000 C 
ATOM     21  O   UNL     1      -1.211   9.970  19.140  0.00  0.00    +0.000 OA
ATOM     22  H   UNL     1       1.234  10.339  21.157  0.00  0.00    +0.000 HD
BRANCH  20  23
ATOM     23  C   UNL     1      -1.020  11.563  20.805  0.00  0.00    +0.000 A 
ATOM     24  C   UNL     1      -1.055  11.436  22.205  0.00  0.00    +0.000 A 
ATOM     25  C   UNL     1      -1.566  12.456  23.005  0.00  0.00    +0.000 A 
ATOM     26  C   UNL     1      -2.047  13.621  22.414  0.00  0.00    +0.000 A 
ATOM     27  C   UNL     1      -2.007  13.766  21.026  0.00  0.00    +0.000 A 
ATOM     28  C   UNL     1      -1.494  12.740  20.229  0.00  0.00    +0.000 A 
ATOM     29  F   UNL     1      -1.473  12.919  18.899  0.00  0.00    +0.000 F 
ENDBRANCH  20  23
ENDBRANCH   4  19
TORSDOF 5
ENDMDL
MODEL 8
REMARK VINA RESULT:      -8.4      1.073      1.117
REMARK  Name = 
REMARK  6 active torsions:
REMARK  status: ('A' for Active; 'I' for Inactive)
REMARK    1  A    between atoms: C_1  and  C_2
REMARK    2  A    between atoms: C_2  and  C_4
REMARK    3  A    between atoms: C_6  and  C_7
REMARK    4  A    between atoms: N_12  and  C_13
REMARK    5  A    between atoms: C_16  and  N_17
REMARK    6  A    between atoms: C_18  and  C_20
REMARK                            x       y       z     vdW  Elec       q    Type
REMARK                         _______ _______ _______ _____ _____    ______ ____
ROOT
ATOM      1  C   UNL     1       2.914   6.769  18.391  0.00  0.00    +0.000 A 
ATOM      2  C   UNL     1       2.674   7.978  17.735  0.00  0.00    +0.000 A 
ATOM      3  C   UNL     1       1.982   9.000  18.390  0.00  0.00    +0.000 A 
ATOM      4  C   UNL     1       1.540   8.848  19.708  0.00  0.00    +0.000 A 
ATOM      5  C   UNL     1       1.854   7.665  20.383  0.00  0.00    +0.000 A 
ATOM      6  C   UNL     1       2.545   6.636  19.733  0.00  0.00    +0.000 A 
ENDROOT
BRANCH   1  11
ATOM      7  C   UNL     1       3.153   4.386  17.535  0.00  0.00    +0.000 A 
ATOM      8  C   UNL     1       4.271   3.736  17.035  0.00  0.00    +0.000 A 
ATOM      9  C   UNL     1       5.222   4.744  16.743  0.00  0.00    +0.000 A 
ATOM     10  N   UNL     1       4.725   5.953  17.050  0.00  0.00    +0.000 NA
ATOM     11  N   UNL     1       3.542   5.711  17.682  0.00  0.00    +0.000 N 
BRANCH   9  12
ATOM     12  C   UNL     1       6.590   4.550  16.142  0.00  0.00    +0.000 C 
ATOM     13  F   UNL     1       7.068   5.711  15.611  0.00  0.00    +0.000 F 
ATOM     14  F   UNL     1       7.513   4.137  17.050  0.00  0.00    +0.000 F 
ATOM     15  F   UNL     1       6.587   3.642  15.130  0.00  0.00    +0.000 F 
ENDBRANCH   9  12
BRANCH   7  17
ATOM     16  C   UNL     1       1.704   2.762  18.819  0.00  0.00    +0.000 C 
ATOM     17  C   UNL     1       1.825   3.848  17.778  0.00  0.00    +0.000 C 
ATOM     18  O   UNL     1       0.818   4.189  17.160  0.00  0.00    +0.000 OA
ENDBRANCH   7  17
ENDBRANCH   1  11
BRANCH   4  19
ATOM     19  N   UNL     1       0.793   9.826  20.403  0.00  0.00    +0.000 N 
ATOM     20  C   UNL     1      -0.452  10.302  20.039  0.00  0.00    +0.000 C 
ATOM     21  O   UNL     1      -1.104   9.926  19.069  0.00  0.00    +0.000 OA
ATOM     22  H   UNL     1       1.200  10.179  21.261  0.00  0.00    +0.000 HD
BRANCH  20  23
ATOM     23  C   UNL     1      -1.070  11.363  20.880  0.00  0.00    +0.000 A 
ATOM     24  C   UNL     1      -1.632  12.467  20.213  0.00  0.00    +0.000 A 
ATOM     25  C   UNL     1      -2.202  13.521  20.924  0.00  0.00    +0.000 A 
ATOM     26  C   UNL     1      -2.222  13.483  22.316  0.00  0.00    +0.000 A 
ATOM     27  C   UNL     1      -1.680  12.388  22.990  0.00  0.00    +0.000 A 
ATOM     28  C   UNL     1      -1.109  11.334  22.272  0.00  0.00    +0.000 A 
ATOM     29  F   UNL     1      -0.599  10.300  22.960  0.00  0.00    +0.000 F 
ENDBRANCH  20  23
ENDBRANCH   4  19
TORSDOF 5
ENDMDL
MODEL 9
REMARK VINA RESULT:      -8.4      1.013      1.752
REMARK  Name = 
REMARK  6 active torsions:
REMARK  status: ('A' for Active; 'I' for Inactive)
REMARK    1  A    between atoms: C_1  and  C_2
REMARK    2  A    between atoms: C_2  and  C_4
REMARK    3  A    between atoms: C_6  and  C_7
REMARK    4  A    between atoms: N_12  and  C_13
REMARK    5  A    between atoms: C_16  and  N_17
REMARK    6  A    between atoms: C_18  and  C_20
REMARK                            x       y       z     vdW  Elec       q    Type
REMARK                         _______ _______ _______ _____ _____    ______ ____
ROOT
ATOM      1  C   UNL     1       2.717   7.109  18.523  0.00  0.00    +0.000 A 
ATOM      2  C   UNL     1       2.306   6.933  19.846  0.00  0.00    +0.000 A 
ATOM      3  C   UNL     1       1.543   7.920  20.475  0.00  0.00    +0.000 A 
ATOM      4  C   UNL     1       1.157   9.080  19.796  0.00  0.00    +0.000 A 
ATOM      5  C   UNL     1       1.505   9.211  18.449  0.00  0.00    +0.000 A 
ATOM      6  C   UNL     1       2.271   8.228  17.812  0.00  0.00    +0.000 A 
ENDROOT
BRANCH   1  11
ATOM      7  C   UNL     1       3.406   4.761  17.829  0.00  0.00    +0.000 A 
ATOM      8  C   UNL     1       4.651   4.281  17.455  0.00  0.00    +0.000 A 
ATOM      9  C   UNL     1       5.450   5.417  17.178  0.00  0.00    +0.000 A 
ATOM     10  N   UNL     1       4.743   6.540  17.374  0.00  0.00    +0.000 NA
ATOM     11  N   UNL     1       3.564   6.137  17.927  0.00  0.00    +0.000 N 
BRANCH   9  12
ATOM     12  C   UNL     1       6.878   5.422  16.695  0.00  0.00    +0.000 C 
ATOM     13  F   UNL     1       7.614   4.456  17.315  0.00  0.00    +0.000 F 
ATOM     14  F   UNL     1       6.986   5.187  15.361  0.00  0.00    +0.000 F 
ATOM     15  F   UNL     1       7.506   6.600  16.949  0.00  0.00    +0.000 F 
ENDBRANCH   9  12
BRANCH   7  17
ATOM     16  C   UNL     1       2.036   3.178  19.244  0.00  0.00    +0.000 C 
ATOM     17  C   UNL     1       2.165   4.024  18.002  0.00  0.00    +0.000 C 
ATOM     18  O   UNL     1       1.248   4.014  17.182  0.00  0.00    +0.000 OA
ENDBRANCH   7  17
ENDBRANCH   1  11
BRANCH   4  19
ATOM     19  N   UNL     1       0.429  10.134  20.395  0.00  0.00    +0.000 N 
ATOM     20  C   UNL     1       0.435  10.460  21.738  0.00  0.00    +0.000 C 
ATOM     21  O   UNL     1       1.094   9.895  22.606  0.00  0.00    +0.000 OA
ATOM     22  H   UNL     1      -0.116  10.717  19.770  0.00  0.00    +0.000 HD
BRANCH  20  23
ATOM     23  C   UNL     1      -0.427  11.585  22.189  0.00  0.00    +0.000 A 
ATOM     24  C   UNL     1      -1.575  11.257  22.934  0.00  0.00    +0.000 A 
ATOM     25  C   UNL     1      -2.454  12.247  23.369  0.00  0.00    +0.000 A 
ATOM     26  C   UNL     1      -2.195  13.581  23.068  0.00  0.00    +0.000 A 
ATOM     27  C   UNL     1      -1.053  13.922  22.341  0.00  0.00    +0.000 A 
ATOM     28  C   UNL     1      -0.176  12.926  21.907  0.00  0.00    +0.000 A 
ATOM     29  F   UNL     1       0.911  13.296  21.211  0.00  0.00    +0.000 F 
ENDBRANCH  20  23
ENDBRANCH   4  19
TORSDOF 5
ENDMDL
