MODEL 1
REMARK VINA RESULT:      -8.3      0.000      0.000
REMARK  Name = 
REMARK  7 active torsions:
REMARK  status: ('A' for Active; 'I' for Inactive)
REMARK    1  A    between atoms: C_1  and  C_2
REMARK    2  A    between atoms: C_2  and  C_3
REMARK    3  A    between atoms: C_9  and  N_10
REMARK    4  A    between atoms: C_11  and  C_13
REMARK    5  A    between atoms: C_13  and  C_14
REMARK    6  A    between atoms: C_14  and  C_15
REMARK    7  A    between atoms: C_21  and  C_22
REMARK                            x       y       z     vdW  Elec       q    Type
REMARK                         _______ _______ _______ _____ _____    ______ ____
ROOT
ATOM      1  C   UNL     1       1.522   3.921  18.457  0.00  0.00    +0.000 C 
ATOM      2  C   UNL     1       2.318   2.999  17.504  0.00  0.00    +0.000 C 
ATOM      3  C   UNL     1       3.833   3.268  17.445  0.00  0.00    +0.000 C 
ATOM      4  C   UNL     1       4.175   4.732  17.502  0.00  0.00    +0.000 A 
ATOM      5  C   UNL     1       3.216   5.671  17.812  0.00  0.00    +0.000 A 
ATOM      6  S   UNL     1       3.828   7.241  17.803  0.00  0.00    +0.000 S 
ATOM      7  C   UNL     1       5.409   6.724  17.420  0.00  0.00    +0.000 A 
ATOM      8  C   UNL     1       5.493   5.335  17.309  0.00  0.00    +0.000 A 
ATOM      9  C   UNL     1       1.770   5.403  18.091  0.00  0.00    +0.000 C 
ENDROOT
BRANCH   8  10
ATOM     10  C   UNL     1       6.694   4.535  17.040  0.00  0.00    +0.000 C 
ATOM     11  N   UNL     1       7.501   4.211  18.099  0.00  0.00    +0.000 N 
ATOM     12  O   UNL     1       6.975   4.085  15.934  0.00  0.00    +0.000 OA
ATOM     13  H   UNL     1       7.147   4.234  19.045  0.00  0.00    +0.000 HD
ATOM     14  H   UNL     1       8.165   3.476  17.881  0.00  0.00    +0.000 HD
ENDBRANCH   8  10
BRANCH   7  15
ATOM     15  N   UNL     1       6.389   7.690  17.188  0.00  0.00    +0.000 N 
ATOM     16  C   UNL     1       7.568   7.838  17.923  0.00  0.00    +0.000 C 
ATOM     17  O   UNL     1       7.951   7.145  18.854  0.00  0.00    +0.000 OA
ATOM     18  H   UNL     1       6.236   8.299  16.393  0.00  0.00    +0.000 HD
BRANCH  16  19
ATOM     19  C   UNL     1       8.424   8.996  17.425  0.00  0.00    +0.000 C 
BRANCH  19  20
ATOM     20  C   UNL     1       8.943   9.813  18.612  0.00  0.00    +0.000 C 
BRANCH  20  21
ATOM     21  C   UNL     1       9.613  11.100  18.193  0.00  0.00    +0.000 A 
ATOM     22  C   UNL     1      11.003  11.144  18.034  0.00  0.00    +0.000 A 
ATOM     23  C   UNL     1      11.635  12.325  17.641  0.00  0.00    +0.000 A 
ATOM     24  C   UNL     1      10.882  13.474  17.408  0.00  0.00    +0.000 A 
ATOM     25  C   UNL     1       9.496  13.443  17.557  0.00  0.00    +0.000 A 
ATOM     26  C   UNL     1       8.864  12.258  17.955  0.00  0.00    +0.000 A 
ENDBRANCH  20  21
ENDBRANCH  19  20
ENDBRANCH  16  19
ENDBRANCH   7  15
BRANCH   1  28
ATOM     27  C   UNL     1       1.313   2.322  20.466  0.00  0.00    +0.000 C 
ATOM     28  C   UNL     1       1.783   3.680  19.960  0.00  0.00    +0.000 C 
ENDBRANCH   1  28
TORSDOF 6
ENDMDL
MODEL 2
REMARK VINA RESULT:      -8.2      0.694      1.176
REMARK  Name = 
REMARK  7 active torsions:
REMARK  status: ('A' for Active; 'I' for Inactive)
REMARK    1  A    between atoms: C_1  and  C_2
REMARK    2  A    between atoms: C_2  and  C_3
REMARK    3  A    between atoms: C_9  and  N_10
REMARK    4  A    between atoms: C_11  and  C_13
REMARK    5  A    between atoms: C_13  and  C_14
REMARK    6  A    between atoms: C_14  and  C_15
REMARK    7  A    between atoms: C_21  and  C_22
REMARK                            x       y       z     vdW  Elec       q    Type
REMARK                         _______ _______ _______ _____ _____    ______ ____
ROOT
ATOM      1  C   UNL     1       2.055   3.476  18.166  0.00  0.00    +0.000 C 
ATOM      2  C   UNL     1       2.874   2.747  17.076  0.00  0.00    +0.000 C 
ATOM      3  C   UNL     1       4.356   3.156  16.985  0.00  0.00    +0.000 C 
ATOM      4  C   UNL     1       4.576   4.629  17.202  0.00  0.00    +0.000 A 
ATOM      5  C   UNL     1       3.559   5.435  17.664  0.00  0.00    +0.000 A 
ATOM      6  S   UNL     1       4.035   7.044  17.816  0.00  0.00    +0.000 S 
ATOM      7  C   UNL     1       5.631   6.719  17.307  0.00  0.00    +0.000 A 
ATOM      8  C   UNL     1       5.825   5.366  17.026  0.00  0.00    +0.000 A 
ATOM      9  C   UNL     1       2.157   5.007  17.970  0.00  0.00    +0.000 C 
ENDROOT
BRANCH   8  10
ATOM     10  C   UNL     1       7.074   4.715  16.612  0.00  0.00    +0.000 C 
ATOM     11  N   UNL     1       7.899   4.224  17.590  0.00  0.00    +0.000 N 
ATOM     12  O   UNL     1       7.383   4.524  15.440  0.00  0.00    +0.000 OA
ATOM     13  H   UNL     1       7.543   4.027  18.516  0.00  0.00    +0.000 HD
ATOM     14  H   UNL     1       8.607   3.593  17.232  0.00  0.00    +0.000 HD
ENDBRANCH   8  10
BRANCH   7  15
ATOM     15  N   UNL     1       6.512   7.791  17.150  0.00  0.00    +0.000 N 
ATOM     16  C   UNL     1       7.704   7.966  17.857  0.00  0.00    +0.000 C 
ATOM     17  O   UNL     1       8.186   7.216  18.693  0.00  0.00    +0.000 OA
ATOM     18  H   UNL     1       6.273   8.464  16.432  0.00  0.00    +0.000 HD
BRANCH  16  19
ATOM     19  C   UNL     1       8.433   9.244  17.462  0.00  0.00    +0.000 C 
BRANCH  19  20
ATOM     20  C   UNL     1       8.987   9.940  18.709  0.00  0.00    +0.000 C 
BRANCH  20  21
ATOM     21  C   UNL     1       9.679  11.245  18.398  0.00  0.00    +0.000 A 
ATOM     22  C   UNL     1       8.938  12.331  17.917  0.00  0.00    +0.000 A 
ATOM     23  C   UNL     1       9.563  13.546  17.630  0.00  0.00    +0.000 A 
ATOM     24  C   UNL     1      10.937  13.683  17.818  0.00  0.00    +0.000 A 
ATOM     25  C   UNL     1      11.687  12.612  18.301  0.00  0.00    +0.000 A 
ATOM     26  C   UNL     1      11.058  11.392  18.585  0.00  0.00    +0.000 A 
ENDBRANCH  20  21
ENDBRANCH  19  20
ENDBRANCH  16  19
ENDBRANCH   7  15
BRANCH   1  28
ATOM     27  C   UNL     1       3.556   2.083  19.730  0.00  0.00    +0.000 C 
ATOM     28  C   UNL     1       2.416   3.088  19.617  0.00  0.00    +0.000 C 
ENDBRANCH   1  28
TORSDOF 6
ENDMDL
MODEL 3
REMARK VINA RESULT:      -7.9      1.260      1.573
REMARK  Name = 
REMARK  7 active torsions:
REMARK  status: ('A' for Active; 'I' for Inactive)
REMARK    1  A    between atoms: C_1  and  C_2
REMARK    2  A    between atoms: C_2  and  C_3
REMARK    3  A    between atoms: C_9  and  N_10
REMARK    4  A    between atoms: C_11  and  C_13
REMARK    5  A    between atoms: C_13  and  C_14
REMARK    6  A    between atoms: C_14  and  C_15
REMARK    7  A    between atoms: C_21  and  C_22
REMARK                            x       y       z     vdW  Elec       q    Type
REMARK                         _______ _______ _______ _____ _____    ______ ____
ROOT
ATOM      1  C   UNL     1       1.599   3.570  18.106  0.00  0.00    +0.000 C 
ATOM      2  C   UNL     1       2.821   2.654  17.866  0.00  0.00    +0.000 C 
ATOM      3  C   UNL     1       4.166   3.207  18.375  0.00  0.00    +0.000 C 
ATOM      4  C   UNL     1       4.311   4.690  18.164  0.00  0.00    +0.000 A 
ATOM      5  C   UNL     1       3.236   5.457  17.774  0.00  0.00    +0.000 A 
ATOM      6  S   UNL     1       3.641   7.082  17.590  0.00  0.00    +0.000 S 
ATOM      7  C   UNL     1       5.262   6.830  18.061  0.00  0.00    +0.000 A 
ATOM      8  C   UNL     1       5.511   5.495  18.382  0.00  0.00    +0.000 A 
ATOM      9  C   UNL     1       1.852   4.964  17.485  0.00  0.00    +0.000 C 
ENDROOT
BRANCH   8  10
ATOM     10  C   UNL     1       6.770   4.918  18.871  0.00  0.00    +0.000 C 
ATOM     11  N   UNL     1       7.562   4.249  17.974  0.00  0.00    +0.000 N 
ATOM     12  O   UNL     1       7.182   5.063  20.017  0.00  0.00    +0.000 OA
ATOM     13  H   UNL     1       7.464   4.405  16.981  0.00  0.00    +0.000 HD
ATOM     14  H   UNL     1       8.502   4.088  18.318  0.00  0.00    +0.000 HD
ENDBRANCH   8  10
BRANCH   7  15
ATOM     15  N   UNL     1       6.148   7.907  18.004  0.00  0.00    +0.000 N 
ATOM     16  C   UNL     1       7.357   7.922  17.303  0.00  0.00    +0.000 C 
ATOM     17  O   UNL     1       7.822   7.027  16.612  0.00  0.00    +0.000 OA
ATOM     18  H   UNL     1       5.855   8.752  18.479  0.00  0.00    +0.000 HD
BRANCH  16  19
ATOM     19  C   UNL     1       8.099   9.244  17.450  0.00  0.00    +0.000 C 
BRANCH  19  20
ATOM     20  C   UNL     1       8.821   9.295  18.799  0.00  0.00    +0.000 C 
BRANCH  20  21
ATOM     21  C   UNL     1       9.576  10.584  19.015  0.00  0.00    +0.000 A 
ATOM     22  C   UNL     1       9.621  11.163  20.289  0.00  0.00    +0.000 A 
ATOM     23  C   UNL     1      10.321  12.351  20.505  0.00  0.00    +0.000 A 
ATOM     24  C   UNL     1      10.979  12.974  19.447  0.00  0.00    +0.000 A 
ATOM     25  C   UNL     1      10.947  12.406  18.174  0.00  0.00    +0.000 A 
ATOM     26  C   UNL     1      10.242  11.215  17.959  0.00  0.00    +0.000 A 
ENDBRANCH  20  21
ENDBRANCH  19  20
ENDBRANCH  16  19
ENDBRANCH   7  15
BRANCH   1  28
ATOM     27  C   UNL     1       1.308   2.420  20.393  0.00  0.00    +0.000 C 
ATOM     28  C   UNL     1       1.167   3.703  19.583  0.00  0.00    +0.000 C 
ENDBRANCH   1  28
TORSDOF 6
ENDMDL
MODEL 4
REMARK VINA RESULT:      -7.8      1.145      1.484
REMARK  Name = 
REMARK  7 active torsions:
REMARK  status: ('A' for Active; 'I' for Inactive)
REMARK    1  A    between atoms: C_1  and  C_2
REMARK    2  A    between atoms: C_2  and  C_3
REMARK    3  A    between atoms: C_9  and  N_10
REMARK    4  A    between atoms: C_11  and  C_13
REMARK    5  A    between atoms: C_13  and  C_14
REMARK    6  A    between atoms: C_14  and  C_15
REMARK    7  A    between atoms: C_21  and  C_22
REMARK                            x       y       z     vdW  Elec       q    Type
REMARK                         _______ _______ _______ _____ _____    ______ ____
ROOT
ATOM      1  C   UNL     1       1.887   3.571  18.218  0.00  0.00    +0.000 C 
ATOM      2  C   UNL     1       2.776   2.773  17.236  0.00  0.00    +0.000 C 
ATOM      3  C   UNL     1       4.262   3.179  17.219  0.00  0.00    +0.000 C 
ATOM      4  C   UNL     1       4.469   4.663  17.352  0.00  0.00    +0.000 A 
ATOM      5  C   UNL     1       3.425   5.496  17.689  0.00  0.00    +0.000 A 
ATOM      6  S   UNL     1       3.892   7.112  17.766  0.00  0.00    +0.000 S 
ATOM      7  C   UNL     1       5.518   6.759  17.389  0.00  0.00    +0.000 A 
ATOM      8  C   UNL     1       5.729   5.391  17.212  0.00  0.00    +0.000 A 
ATOM      9  C   UNL     1       2.005   5.085  17.928  0.00  0.00    +0.000 C 
ENDROOT
BRANCH   8  10
ATOM     10  C   UNL     1       7.001   4.717  16.928  0.00  0.00    +0.000 C 
ATOM     11  N   UNL     1       7.421   4.659  15.624  0.00  0.00    +0.000 N 
ATOM     12  O   UNL     1       7.740   4.265  17.798  0.00  0.00    +0.000 OA
ATOM     13  H   UNL     1       7.061   5.305  14.936  0.00  0.00    +0.000 HD
ATOM     14  H   UNL     1       8.397   4.397  15.533  0.00  0.00    +0.000 HD
ENDBRANCH   8  10
BRANCH   7  15
ATOM     15  N   UNL     1       6.409   7.820  17.221  0.00  0.00    +0.000 N 
ATOM     16  C   UNL     1       7.617   7.977  17.907  0.00  0.00    +0.000 C 
ATOM     17  O   UNL     1       8.104   7.216  18.730  0.00  0.00    +0.000 OA
ATOM     18  H   UNL     1       6.166   8.501  16.511  0.00  0.00    +0.000 HD
BRANCH  16  19
ATOM     19  C   UNL     1       8.355   9.248  17.505  0.00  0.00    +0.000 C 
BRANCH  19  20
ATOM     20  C   UNL     1       9.264   9.712  18.647  0.00  0.00    +0.000 C 
BRANCH  20  21
ATOM     21  C   UNL     1       9.161  11.193  18.918  0.00  0.00    +0.000 A 
ATOM     22  C   UNL     1       8.915  12.080  17.864  0.00  0.00    +0.000 A 
ATOM     23  C   UNL     1       8.810  13.452  18.100  0.00  0.00    +0.000 A 
ATOM     24  C   UNL     1       8.956  13.949  19.393  0.00  0.00    +0.000 A 
ATOM     25  C   UNL     1       9.196  13.076  20.454  0.00  0.00    +0.000 A 
ATOM     26  C   UNL     1       9.303  11.700  20.214  0.00  0.00    +0.000 A 
ENDBRANCH  20  21
ENDBRANCH  19  20
ENDBRANCH  16  19
ENDBRANCH   7  15
BRANCH   1  28
ATOM     27  C   UNL     1       1.864   4.459  20.636  0.00  0.00    +0.000 C 
ATOM     28  C   UNL     1       2.148   3.280  19.712  0.00  0.00    +0.000 C 
ENDBRANCH   1  28
TORSDOF 6
ENDMDL
MODEL 5
REMARK VINA RESULT:      -7.4      6.913     10.128
REMARK  Name = 
REMARK  7 active torsions:
REMARK  status: ('A' for Active; 'I' for Inactive)
REMARK    1  A    between atoms: C_1  and  C_2
REMARK    2  A    between atoms: C_2  and  C_3
REMARK    3  A    between atoms: C_9  and  N_10
REMARK    4  A    between atoms: C_11  and  C_13
REMARK    5  A    between atoms: C_13  and  C_14
REMARK    6  A    between atoms: C_14  and  C_15
REMARK    7  A    between atoms: C_21  and  C_22
REMARK                            x       y       z     vdW  Elec       q    Type
REMARK                         _______ _______ _______ _____ _____    ______ ____
ROOT
ATOM      1  C   UNL     1      -2.463  13.304  22.985  0.00  0.00    +0.000 C 
ATOM      2  C   UNL     1      -2.702  13.880  21.570  0.00  0.00    +0.000 C 
ATOM      3  C   UNL     1      -2.629  12.855  20.423  0.00  0.00    +0.000 C 
ATOM      4  C   UNL     1      -1.549  11.825  20.621  0.00  0.00    +0.000 A 
ATOM      5  C   UNL     1      -0.888  11.715  21.824  0.00  0.00    +0.000 A 
ATOM      6  S   UNL     1       0.283  10.505  21.805  0.00  0.00    +0.000 S 
ATOM      7  C   UNL     1      -0.073  10.054  20.198  0.00  0.00    +0.000 A 
ATOM      8  C   UNL     1      -1.108  10.818  19.658  0.00  0.00    +0.000 A 
ATOM      9  C   UNL     1      -1.102  12.570  23.035  0.00  0.00    +0.000 C 
ENDROOT
BRANCH   8  10
ATOM     10  C   UNL     1      -1.713  10.682  18.327  0.00  0.00    +0.000 C 
ATOM     11  N   UNL     1      -1.305  11.546  17.344  0.00  0.00    +0.000 N 
ATOM     12  O   UNL     1      -2.508   9.796  18.030  0.00  0.00    +0.000 OA
ATOM     13  H   UNL     1      -0.424  12.036  17.419  0.00  0.00    +0.000 HD
ATOM     14  H   UNL     1      -1.581  11.248  16.415  0.00  0.00    +0.000 HD
ENDBRANCH   8  10
BRANCH   7  15
ATOM     15  N   UNL     1       0.716   9.077  19.589  0.00  0.00    +0.000 N 
ATOM     16  C   UNL     1       1.553   9.285  18.489  0.00  0.00    +0.000 C 
ATOM     17  O   UNL     1       1.756  10.338  17.903  0.00  0.00    +0.000 OA
ATOM     18  H   UNL     1       0.702   8.160  20.018  0.00  0.00    +0.000 HD
BRANCH  16  19
ATOM     19  C   UNL     1       2.272   8.013  18.056  0.00  0.00    +0.000 C 
BRANCH  19  20
ATOM     20  C   UNL     1       2.689   7.200  19.285  0.00  0.00    +0.000 C 
BRANCH  20  21
ATOM     21  C   UNL     1       2.120   5.802  19.287  0.00  0.00    +0.000 A 
ATOM     22  C   UNL     1       2.037   5.080  18.091  0.00  0.00    +0.000 A 
ATOM     23  C   UNL     1       1.520   3.783  18.078  0.00  0.00    +0.000 A 
ATOM     24  C   UNL     1       1.076   3.200  19.263  0.00  0.00    +0.000 A 
ATOM     25  C   UNL     1       1.158   3.905  20.463  0.00  0.00    +0.000 A 
ATOM     26  C   UNL     1       1.675   5.207  20.472  0.00  0.00    +0.000 A 
ENDBRANCH  20  21
ENDBRANCH  19  20
ENDBRANCH  16  19
ENDBRANCH   7  15
BRANCH   1  28
ATOM     27  C   UNL     1      -4.972  13.042  23.510  0.00  0.00    +0.000 C 
ATOM     28  C   UNL     1      -3.593  12.394  23.515  0.00  0.00    +0.000 C 
ENDBRANCH   1  28
TORSDOF 6
ENDMDL
MODEL 6
REMARK VINA RESULT:      -7.4      1.355      1.652
REMARK  Name = 
REMARK  7 active torsions:
REMARK  status: ('A' for Active; 'I' for Inactive)
REMARK    1  A    between atoms: C_1  and  C_2
REMARK    2  A    between atoms: C_2  and  C_3
REMARK    3  A    between atoms: C_9  and  N_10
REMARK    4  A    between atoms: C_11  and  C_13
REMARK    5  A    between atoms: C_13  and  C_14
REMARK    6  A    between atoms: C_14  and  C_15
REMARK    7  A    between atoms: C_21  and  C_22
REMARK                            x       y       z     vdW  Elec       q    Type
REMARK                         _______ _______ _______ _____ _____    ______ ____
ROOT
ATOM      1  C   UNL     1       1.215   3.414  19.416  0.00  0.00    +0.000 C 
ATOM      2  C   UNL     1       1.235   3.032  17.918  0.00  0.00    +0.000 C 
ATOM      3  C   UNL     1       2.593   3.209  17.214  0.00  0.00    +0.000 C 
ATOM      4  C   UNL     1       3.335   4.438  17.666  0.00  0.00    +0.000 A 
ATOM      5  C   UNL     1       2.911   5.158  18.760  0.00  0.00    +0.000 A 
ATOM      6  S   UNL     1       3.888   6.495  19.067  0.00  0.00    +0.000 S 
ATOM      7  C   UNL     1       4.940   6.143  17.770  0.00  0.00    +0.000 A 
ATOM      8  C   UNL     1       4.564   4.983  17.091  0.00  0.00    +0.000 A 
ATOM      9  C   UNL     1       1.704   4.870  19.598  0.00  0.00    +0.000 C 
ENDROOT
BRANCH   8  10
ATOM     10  C   UNL     1       5.254   4.350  15.961  0.00  0.00    +0.000 C 
ATOM     11  N   UNL     1       5.169   4.955  14.734  0.00  0.00    +0.000 N 
ATOM     12  O   UNL     1       5.959   3.351  16.069  0.00  0.00    +0.000 OA
ATOM     13  H   UNL     1       4.925   5.933  14.656  0.00  0.00    +0.000 HD
ATOM     14  H   UNL     1       5.849   4.603  14.069  0.00  0.00    +0.000 HD
ENDBRANCH   8  10
BRANCH   7  15
ATOM     15  N   UNL     1       5.967   7.043  17.481  0.00  0.00    +0.000 N 
ATOM     16  C   UNL     1       7.299   6.906  17.881  0.00  0.00    +0.000 C 
ATOM     17  O   UNL     1       7.789   5.983  18.514  0.00  0.00    +0.000 OA
ATOM     18  H   UNL     1       5.718   7.832  16.896  0.00  0.00    +0.000 HD
BRANCH  16  19
ATOM     19  C   UNL     1       8.170   8.066  17.415  0.00  0.00    +0.000 C 
BRANCH  19  20
ATOM     20  C   UNL     1       7.586   9.394  17.906  0.00  0.00    +0.000 C 
BRANCH  20  21
ATOM     21  C   UNL     1       8.644  10.378  18.341  0.00  0.00    +0.000 A 
ATOM     22  C   UNL     1       9.434  10.103  19.464  0.00  0.00    +0.000 A 
ATOM     23  C   UNL     1      10.421  11.001  19.875  0.00  0.00    +0.000 A 
ATOM     24  C   UNL     1      10.624  12.184  19.168  0.00  0.00    +0.000 A 
ATOM     25  C   UNL     1       9.848  12.468  18.044  0.00  0.00    +0.000 A 
ATOM     26  C   UNL     1       8.856  11.567  17.636  0.00  0.00    +0.000 A 
ENDBRANCH  20  21
ENDBRANCH  19  20
ENDBRANCH  16  19
ENDBRANCH   7  15
BRANCH   1  28
ATOM     27  C   UNL     1       2.310   3.032  21.717  0.00  0.00    +0.000 C 
ATOM     28  C   UNL     1       1.998   2.456  20.341  0.00  0.00    +0.000 C 
ENDBRANCH   1  28
TORSDOF 6
ENDMDL
MODEL 7
REMARK VINA RESULT:      -7.2      7.332      9.970
REMARK  Name = 
REMARK  7 active torsions:
REMARK  status: ('A' for Active; 'I' for Inactive)
REMARK    1  A    between atoms: C_1  and  C_2
REMARK    2  A    between atoms: C_2  and  C_3
REMARK    3  A    between atoms: C_9  and  N_10
REMARK    4  A    between atoms: C_11  and  C_13
REMARK    5  A    between atoms: C_13  and  C_14
REMARK    6  A    between atoms: C_14  and  C_15
REMARK    7  A    between atoms: C_21  and  C_22
REMARK                            x       y       z     vdW  Elec       q    Type
REMARK                         _______ _______ _______ _____ _____    ______ ____
ROOT
ATOM      1  C   UNL     1      -2.774  13.559  23.210  0.00  0.00    +0.000 C 
ATOM      2  C   UNL     1      -2.673  14.476  21.970  0.00  0.00    +0.000 C 
ATOM      3  C   UNL     1      -2.598  13.744  20.617  0.00  0.00    +0.000 C 
ATOM      4  C   UNL     1      -1.766  12.490  20.671  0.00  0.00    +0.000 A 
ATOM      5  C   UNL     1      -1.340  11.975  21.875  0.00  0.00    +0.000 A 
ATOM      6  S   UNL     1      -0.417  10.579  21.685  0.00  0.00    +0.000 S 
ATOM      7  C   UNL     1      -0.581  10.587  19.986  0.00  0.00    +0.000 A 
ATOM      8  C   UNL     1      -1.361  11.656  19.541  0.00  0.00    +0.000 A 
ATOM      9  C   UNL     1      -1.593  12.561  23.229  0.00  0.00    +0.000 C 
ENDROOT
BRANCH   8  10
ATOM     10  C   UNL     1      -1.755  11.954  18.159  0.00  0.00    +0.000 C 
ATOM     11  N   UNL     1      -0.953  12.791  17.428  0.00  0.00    +0.000 N 
ATOM     12  O   UNL     1      -2.722  11.442  17.603  0.00  0.00    +0.000 OA
ATOM     13  H   UNL     1       0.010  12.945  17.692  0.00  0.00    +0.000 HD
ATOM     14  H   UNL     1      -1.152  12.763  16.434  0.00  0.00    +0.000 HD
ENDBRANCH   8  10
BRANCH   7  15
ATOM     15  N   UNL     1       0.110   9.628  19.244  0.00  0.00    +0.000 N 
ATOM     16  C   UNL     1       1.205   9.882  18.415  0.00  0.00    +0.000 C 
ATOM     17  O   UNL     1       1.753  10.958  18.222  0.00  0.00    +0.000 OA
ATOM     18  H   UNL     1      -0.194   8.669  19.362  0.00  0.00    +0.000 HD
BRANCH  16  19
ATOM     19  C   UNL     1       1.727   8.622  17.736  0.00  0.00    +0.000 C 
BRANCH  19  20
ATOM     20  C   UNL     1       2.569   7.805  18.720  0.00  0.00    +0.000 C 
BRANCH  20  21
ATOM     21  C   UNL     1       3.053   6.499  18.138  0.00  0.00    +0.000 A 
ATOM     22  C   UNL     1       2.227   5.369  18.175  0.00  0.00    +0.000 A 
ATOM     23  C   UNL     1       2.658   4.156  17.634  0.00  0.00    +0.000 A 
ATOM     24  C   UNL     1       3.922   4.061  17.057  0.00  0.00    +0.000 A 
ATOM     25  C   UNL     1       4.754   5.180  17.009  0.00  0.00    +0.000 A 
ATOM     26  C   UNL     1       4.320   6.395  17.555  0.00  0.00    +0.000 A 
ENDBRANCH  20  21
ENDBRANCH  19  20
ENDBRANCH  16  19
ENDBRANCH   7  15
BRANCH   1  28
ATOM     27  C   UNL     1      -4.446  12.395  24.788  0.00  0.00    +0.000 C 
ATOM     28  C   UNL     1      -4.119  12.815  23.359  0.00  0.00    +0.000 C 
ENDBRANCH   1  28
TORSDOF 6
ENDMDL
MODEL 8
REMARK VINA RESULT:      -7.1      6.972     10.182
REMARK  Name = 
REMARK  7 active torsions:
REMARK  status: ('A' for Active; 'I' for Inactive)
REMARK    1  A    between atoms: C_1  and  C_2
REMARK    2  A    between atoms: C_2  and  C_3
REMARK    3  A    between atoms: C_9  and  N_10
REMARK    4  A    between atoms: C_11  and  C_13
REMARK    5  A    between atoms: C_13  and  C_14
REMARK    6  A    between atoms: C_14  and  C_15
REMARK    7  A    between atoms: C_21  and  C_22
REMARK                            x       y       z     vdW  Elec       q    Type
REMARK                         _______ _______ _______ _____ _____    ______ ____
ROOT
ATOM      1  C   UNL     1      -2.603  13.387  22.912  0.00  0.00    +0.000 C 
ATOM      2  C   UNL     1      -2.688  14.026  21.507  0.00  0.00    +0.000 C 
ATOM      3  C   UNL     1      -2.574  13.040  20.329  0.00  0.00    +0.000 C 
ATOM      4  C   UNL     1      -1.574  11.942  20.574  0.00  0.00    +0.000 A 
ATOM      5  C   UNL     1      -1.025  11.751  21.822  0.00  0.00    +0.000 A 
ATOM      6  S   UNL     1       0.074  10.475  21.851  0.00  0.00    +0.000 S 
ATOM      7  C   UNL     1      -0.168  10.104  20.203  0.00  0.00    +0.000 A 
ATOM      8  C   UNL     1      -1.110  10.946  19.610  0.00  0.00    +0.000 A 
ATOM      9  C   UNL     1      -1.294  12.573  23.045  0.00  0.00    +0.000 C 
ENDROOT
BRANCH   8  10
ATOM     10  C   UNL     1      -1.605  10.894  18.230  0.00  0.00    +0.000 C 
ATOM     11  N   UNL     1      -2.371   9.818  17.861  0.00  0.00    +0.000 N 
ATOM     12  O   UNL     1      -1.430  11.791  17.411  0.00  0.00    +0.000 OA
ATOM     13  H   UNL     1      -2.840   9.255  18.557  0.00  0.00    +0.000 HD
ATOM     14  H   UNL     1      -2.863   9.963  16.987  0.00  0.00    +0.000 HD
ENDBRANCH   8  10
BRANCH   7  15
ATOM     15  N   UNL     1       0.615   9.105  19.623  0.00  0.00    +0.000 N 
ATOM     16  C   UNL     1       1.556   9.302  18.609  0.00  0.00    +0.000 C 
ATOM     17  O   UNL     1       1.870  10.363  18.088  0.00  0.00    +0.000 OA
ATOM     18  H   UNL     1       0.509   8.174  20.009  0.00  0.00    +0.000 HD
BRANCH  16  19
ATOM     19  C   UNL     1       2.236   8.007  18.185  0.00  0.00    +0.000 C 
BRANCH  19  20
ATOM     20  C   UNL     1       2.588   7.169  19.418  0.00  0.00    +0.000 C 
BRANCH  20  21
ATOM     21  C   UNL     1       2.071   5.753  19.335  0.00  0.00    +0.000 A 
ATOM     22  C   UNL     1       1.652   5.094  20.497  0.00  0.00    +0.000 A 
ATOM     23  C   UNL     1       1.165   3.787  20.435  0.00  0.00    +0.000 A 
ATOM     24  C   UNL     1       1.098   3.126  19.210  0.00  0.00    +0.000 A 
ATOM     25  C   UNL     1       1.507   3.773  18.044  0.00  0.00    +0.000 A 
ATOM     26  C   UNL     1       1.998   5.083  18.109  0.00  0.00    +0.000 A 
ENDBRANCH  20  21
ENDBRANCH  19  20
ENDBRANCH  16  19
ENDBRANCH   7  15
BRANCH   1  28
ATOM     27  C   UNL     1      -4.262  12.695  24.758  0.00  0.00    +0.000 C 
ATOM     28  C   UNL     1      -3.822  12.526  23.308  0.00  0.00    +0.000 C 
ENDBRANCH   1  28
TORSDOF 6
ENDMDL
MODEL 9
REMARK VINA RESULT:      -7.1      4.919      7.778
REMARK  Name = 
REMARK  7 active torsions:
REMARK  status: ('A' for Active; 'I' for Inactive)
REMARK    1  A    between atoms: C_1  and  C_2
REMARK    2  A    between atoms: C_2  and  C_3
REMARK    3  A    between atoms: C_9  and  N_10
REMARK    4  A    between atoms: C_11  and  C_13
REMARK    5  A    between atoms: C_13  and  C_14
REMARK    6  A    between atoms: C_14  and  C_15
REMARK    7  A    between atoms: C_21  and  C_22
REMARK                            x       y       z     vdW  Elec       q    Type
REMARK                         _______ _______ _______ _____ _____    ______ ____
ROOT
ATOM      1  C   UNL     1       6.354   4.351  15.065  0.00  0.00    +0.000 C 
ATOM      2  C   UNL     1       5.932   3.201  16.008  0.00  0.00    +0.000 C 
ATOM      3  C   UNL     1       4.547   3.362  16.661  0.00  0.00    +0.000 C 
ATOM      4  C   UNL     1       4.245   4.782  17.058  0.00  0.00    +0.000 A 
ATOM      5  C   UNL     1       5.051   5.819  16.645  0.00  0.00    +0.000 A 
ATOM      6  S   UNL     1       4.524   7.312  17.222  0.00  0.00    +0.000 S 
ATOM      7  C   UNL     1       3.174   6.634  18.017  0.00  0.00    +0.000 A 
ATOM      8  C   UNL     1       3.101   5.252  17.838  0.00  0.00    +0.000 A 
ATOM      9  C   UNL     1       6.293   5.702  15.816  0.00  0.00    +0.000 C 
ENDROOT
BRANCH   8  10
ATOM     10  C   UNL     1       2.058   4.345  18.332  0.00  0.00    +0.000 C 
ATOM     11  N   UNL     1       2.084   3.995  19.656  0.00  0.00    +0.000 N 
ATOM     12  O   UNL     1       1.127   3.942  17.641  0.00  0.00    +0.000 OA
ATOM     13  H   UNL     1       2.582   4.559  20.331  0.00  0.00    +0.000 HD
ATOM     14  H   UNL     1       1.219   3.569  19.972  0.00  0.00    +0.000 HD
ENDBRANCH   8  10
BRANCH   7  15
ATOM     15  N   UNL     1       2.368   7.469  18.792  0.00  0.00    +0.000 N 
ATOM     16  C   UNL     1       1.834   8.691  18.376  0.00  0.00    +0.000 C 
ATOM     17  O   UNL     1       1.953   9.214  17.277  0.00  0.00    +0.000 OA
ATOM     18  H   UNL     1       2.127   7.127  19.714  0.00  0.00    +0.000 HD
BRANCH  16  19
ATOM     19  C   UNL     1       1.007   9.367  19.462  0.00  0.00    +0.000 C 
BRANCH  19  20
ATOM     20  C   UNL     1       0.635  10.789  19.031  0.00  0.00    +0.000 C 
BRANCH  20  21
ATOM     21  C   UNL     1      -0.830  10.941  18.702  0.00  0.00    +0.000 A 
ATOM     22  C   UNL     1      -1.405  10.155  17.696  0.00  0.00    +0.000 A 
ATOM     23  C   UNL     1      -2.760  10.279  17.384  0.00  0.00    +0.000 A 
ATOM     24  C   UNL     1      -3.551  11.195  18.073  0.00  0.00    +0.000 A 
ATOM     25  C   UNL     1      -2.994  11.981  19.081  0.00  0.00    +0.000 A 
ATOM     26  C   UNL     1      -1.633  11.857  19.390  0.00  0.00    +0.000 A 
ENDBRANCH  20  21
ENDBRANCH  19  20
ENDBRANCH  16  19
ENDBRANCH   7  15
BRANCH   1  28
ATOM     27  C   UNL     1       6.063   3.479  12.658  0.00  0.00    +0.000 C 
ATOM     28  C   UNL     1       5.564   4.428  13.741  0.00  0.00    +0.000 C 
ENDBRANCH   1  28
TORSDOF 6
ENDMDL
