MODEL 1
REMARK VINA RESULT:      -8.7      0.000      0.000
REMARK  Name = 
REMARK  11 active torsions:
REMARK  status: ('A' for Active; 'I' for Inactive)
REMARK    1  A    between atoms: C_1  and  C_2
REMARK    2  A    between atoms: C_4  and  C_5
REMARK    3  A    between atoms: C_9  and  C_10
REMARK    4  A    between atoms: C_10  and  N_11
REMARK    5  A    between atoms: N_11  and  C_12
REMARK    6  A    between atoms: N_15  and  C_16
REMARK    7  A    between atoms: C_22  and  S_23
REMARK    8  A    between atoms: S_23  and  N_26
REMARK    9  A    between atoms: N_26  and  C_27
REMARK   10  A    between atoms: C_27  and  C_28
REMARK   11  A    between atoms: C_28  and  N_29
REMARK                            x       y       z     vdW  Elec       q    Type
REMARK                         _______ _______ _______ _____ _____    ______ ____
ROOT
ATOM      1  C   UNL     1       1.393   3.473  20.496  0.00  0.00    +0.000 C 
ATOM      2  C   UNL     1       1.851   4.768  19.889  0.00  0.00    +0.000 A 
ATOM      3  C   UNL     1       1.399   5.964  20.491  0.00  0.00    +0.000 A 
ATOM      4  C   UNL     1       1.701   7.246  19.986  0.00  0.00    +0.000 A 
ATOM      5  C   UNL     1       2.506   7.302  18.842  0.00  0.00    +0.000 A 
ATOM      6  C   UNL     1       2.987   6.140  18.236  0.00  0.00    +0.000 A 
ATOM      7  C   UNL     1       2.668   4.873  18.752  0.00  0.00    +0.000 A 
ENDROOT
BRANCH   4   8
ATOM      8  C   UNL     1       1.173   8.473  20.632  0.00  0.00    +0.000 A 
ATOM      9  C   UNL     1       1.002   8.566  22.025  0.00  0.00    +0.000 A 
ATOM     10  C   UNL     1       0.499   9.725  22.622  0.00  0.00    +0.000 A 
ATOM     11  C   UNL     1       0.139  10.819  21.842  0.00  0.00    +0.000 A 
ATOM     12  C   UNL     1       0.294  10.765  20.453  0.00  0.00    +0.000 A 
ATOM     13  C   UNL     1       0.820   9.598  19.870  0.00  0.00    +0.000 A 
BRANCH  12  14
ATOM     14  C   UNL     1      -0.110  11.923  19.580  0.00  0.00    +0.000 C 
BRANCH  14  15
ATOM     15  N   UNL     1      -0.510  11.474  18.249  0.00  0.00    +0.000 NA
ATOM     16  H   UNL     1      -0.322  10.475  18.169  0.00  0.00    +0.000 HD
BRANCH  15  17
ATOM     17  C   UNL     1      -1.926  11.739  17.962  0.00  0.00    +0.000 C 
ATOM     18  C   UNL     1      -2.760  12.007  19.223  0.00  0.00    +0.000 C 
ATOM     19  C   UNL     1      -4.235  12.176  18.877  0.00  0.00    +0.000 C 
ATOM     20  N   UNL     1      -4.754  11.001  18.173  0.00  0.00    +0.000 NA
ATOM     21  C   UNL     1      -6.176  11.184  17.880  0.00  0.00    +0.000 C 
ATOM     22  C   UNL     1      -4.004  10.738  16.937  0.00  0.00    +0.000 C 
ATOM     23  C   UNL     1      -2.514  10.532  17.219  0.00  0.00    +0.000 C 
ENDBRANCH  15  17
ENDBRANCH  14  15
ENDBRANCH  12  14
ENDBRANCH   4   8
BRANCH   7  24
ATOM     24  S   UNL     1       3.273   3.460  17.829  0.00  0.00    +0.000 S 
ATOM     25  O   UNL     1       4.146   2.671  18.665  0.00  0.00    +0.000 OA
ATOM     26  O   UNL     1       2.129   2.872  17.160  0.00  0.00    +0.000 OA
BRANCH  24  27
ATOM     27  N   UNL     1       4.197   4.180  16.614  0.00  0.00    +0.000 NA
ATOM     28  H   UNL     1       4.217   5.193  16.722  0.00  0.00    +0.000 HD
BRANCH  27  29
ATOM     29  C   UNL     1       5.489   3.561  16.236  0.00  0.00    +0.000 C 
BRANCH  29  30
ATOM     30  C   UNL     1       6.624   4.572  16.506  0.00  0.00    +0.000 C 
BRANCH  30  31
ATOM     31  N   UNL     1       6.485   5.437  17.692  0.00  0.00    +0.000 NA
ATOM     32  C   UNL     1       6.252   6.833  17.272  0.00  0.00    +0.000 C 
ATOM     33  C   UNL     1       7.586   7.537  17.426  0.00  0.00    +0.000 C 
ATOM     34  C   UNL     1       8.122   6.909  18.690  0.00  0.00    +0.000 C 
ATOM     35  C   UNL     1       7.663   5.457  18.585  0.00  0.00    +0.000 C 
ENDBRANCH  30  31
ENDBRANCH  29  30
ENDBRANCH  27  29
ENDBRANCH  24  27
ENDBRANCH   7  24
TORSDOF 9
ENDMDL
MODEL 2
REMARK VINA RESULT:      -8.5      1.173      1.685
REMARK  Name = 
REMARK  11 active torsions:
REMARK  status: ('A' for Active; 'I' for Inactive)
REMARK    1  A    between atoms: C_1  and  C_2
REMARK    2  A    between atoms: C_4  and  C_5
REMARK    3  A    between atoms: C_9  and  C_10
REMARK    4  A    between atoms: C_10  and  N_11
REMARK    5  A    between atoms: N_11  and  C_12
REMARK    6  A    between atoms: N_15  and  C_16
REMARK    7  A    between atoms: C_22  and  S_23
REMARK    8  A    between atoms: S_23  and  N_26
REMARK    9  A    between atoms: N_26  and  C_27
REMARK   10  A    between atoms: C_27  and  C_28
REMARK   11  A    between atoms: C_28  and  N_29
REMARK                            x       y       z     vdW  Elec       q    Type
REMARK                         _______ _______ _______ _____ _____    ______ ____
ROOT
ATOM      1  C   UNL     1       1.074   3.087  20.700  0.00  0.00    +0.000 C 
ATOM      2  C   UNL     1       1.911   4.284  20.352  0.00  0.00    +0.000 A 
ATOM      3  C   UNL     1       1.375   5.559  20.644  0.00  0.00    +0.000 A 
ATOM      4  C   UNL     1       2.027   6.765  20.314  0.00  0.00    +0.000 A 
ATOM      5  C   UNL     1       3.272   6.660  19.682  0.00  0.00    +0.000 A 
ATOM      6  C   UNL     1       3.839   5.416  19.399  0.00  0.00    +0.000 A 
ATOM      7  C   UNL     1       3.170   4.227  19.732  0.00  0.00    +0.000 A 
ENDROOT
BRANCH   4   8
ATOM      8  C   UNL     1       1.407   8.081  20.607  0.00  0.00    +0.000 A 
ATOM      9  C   UNL     1       1.138   8.500  21.923  0.00  0.00    +0.000 A 
ATOM     10  C   UNL     1       0.550   9.739  22.188  0.00  0.00    +0.000 A 
ATOM     11  C   UNL     1       0.202  10.590  21.145  0.00  0.00    +0.000 A 
ATOM     12  C   UNL     1       0.453  10.210  19.822  0.00  0.00    +0.000 A 
ATOM     13  C   UNL     1       1.063   8.967  19.574  0.00  0.00    +0.000 A 
BRANCH  12  14
ATOM     14  C   UNL     1       0.063  11.097  18.671  0.00  0.00    +0.000 C 
BRANCH  14  15
ATOM     15  N   UNL     1      -0.560  10.333  17.594  0.00  0.00    +0.000 NA
ATOM     16  H   UNL     1      -0.269   9.358  17.672  0.00  0.00    +0.000 HD
BRANCH  15  17
ATOM     17  C   UNL     1      -2.027  10.416  17.615  0.00  0.00    +0.000 C 
ATOM     18  C   UNL     1      -2.638  10.689  16.235  0.00  0.00    +0.000 C 
ATOM     19  C   UNL     1      -4.150  10.864  16.330  0.00  0.00    +0.000 C 
ATOM     20  N   UNL     1      -4.503  11.942  17.258  0.00  0.00    +0.000 NA
ATOM     21  C   UNL     1      -5.956  12.101  17.306  0.00  0.00    +0.000 C 
ATOM     22  C   UNL     1      -3.967  11.692  18.603  0.00  0.00    +0.000 C 
ATOM     23  C   UNL     1      -2.445  11.533  18.580  0.00  0.00    +0.000 C 
ENDBRANCH  15  17
ENDBRANCH  14  15
ENDBRANCH  12  14
ENDBRANCH   4   8
BRANCH   7  24
ATOM     24  S   UNL     1       3.963   2.698  19.234  0.00  0.00    +0.000 S 
ATOM     25  O   UNL     1       4.844   2.243  20.282  0.00  0.00    +0.000 OA
ATOM     26  O   UNL     1       2.927   1.843  18.690  0.00  0.00    +0.000 OA
BRANCH  24  27
ATOM     27  N   UNL     1       4.899   3.180  17.914  0.00  0.00    +0.000 NA
ATOM     28  H   UNL     1       5.581   2.464  17.669  0.00  0.00    +0.000 HD
BRANCH  27  29
ATOM     29  C   UNL     1       4.231   3.835  16.765  0.00  0.00    +0.000 C 
BRANCH  29  30
ATOM     30  C   UNL     1       5.252   3.990  15.617  0.00  0.00    +0.000 C 
BRANCH  30  31
ATOM     31  N   UNL     1       5.891   5.310  15.460  0.00  0.00    +0.000 NA
ATOM     32  C   UNL     1       7.279   5.261  15.962  0.00  0.00    +0.000 C 
ATOM     33  C   UNL     1       7.242   5.902  17.335  0.00  0.00    +0.000 C 
ATOM     34  C   UNL     1       6.253   7.024  17.125  0.00  0.00    +0.000 C 
ATOM     35  C   UNL     1       5.221   6.412  16.181  0.00  0.00    +0.000 C 
ENDBRANCH  30  31
ENDBRANCH  29  30
ENDBRANCH  27  29
ENDBRANCH  24  27
ENDBRANCH   7  24
TORSDOF 9
ENDMDL
MODEL 3
REMARK VINA RESULT:      -8.4      2.729      4.657
REMARK  Name = 
REMARK  11 active torsions:
REMARK  status: ('A' for Active; 'I' for Inactive)
REMARK    1  A    between atoms: C_1  and  C_2
REMARK    2  A    between atoms: C_4  and  C_5
REMARK    3  A    between atoms: C_9  and  C_10
REMARK    4  A    between atoms: C_10  and  N_11
REMARK    5  A    between atoms: N_11  and  C_12
REMARK    6  A    between atoms: N_15  and  C_16
REMARK    7  A    between atoms: C_22  and  S_23
REMARK    8  A    between atoms: S_23  and  N_26
REMARK    9  A    between atoms: N_26  and  C_27
REMARK   10  A    between atoms: C_27  and  C_28
REMARK   11  A    between atoms: C_28  and  N_29
REMARK                            x       y       z     vdW  Elec       q    Type
REMARK                         _______ _______ _______ _____ _____    ______ ____
ROOT
ATOM      1  C   UNL     1       4.902   6.899  16.003  0.00  0.00    +0.000 C 
ATOM      2  C   UNL     1       4.120   6.753  17.277  0.00  0.00    +0.000 A 
ATOM      3  C   UNL     1       3.139   7.733  17.553  0.00  0.00    +0.000 A 
ATOM      4  C   UNL     1       2.378   7.751  18.740  0.00  0.00    +0.000 A 
ATOM      5  C   UNL     1       2.618   6.725  19.663  0.00  0.00    +0.000 A 
ATOM      6  C   UNL     1       3.565   5.731  19.411  0.00  0.00    +0.000 A 
ATOM      7  C   UNL     1       4.316   5.735  18.224  0.00  0.00    +0.000 A 
ENDROOT
BRANCH   4   8
ATOM      8  C   UNL     1       1.384   8.822  19.002  0.00  0.00    +0.000 A 
ATOM      9  C   UNL     1       0.728   9.499  17.959  0.00  0.00    +0.000 A 
ATOM     10  C   UNL     1      -0.203  10.509  18.217  0.00  0.00    +0.000 A 
ATOM     11  C   UNL     1      -0.493  10.880  19.525  0.00  0.00    +0.000 A 
ATOM     12  C   UNL     1       0.138  10.230  20.591  0.00  0.00    +0.000 A 
ATOM     13  C   UNL     1       1.058   9.203  20.313  0.00  0.00    +0.000 A 
BRANCH  12  14
ATOM     14  C   UNL     1      -0.136  10.627  22.016  0.00  0.00    +0.000 C 
BRANCH  14  15
ATOM     15  N   UNL     1       0.022  12.067  22.209  0.00  0.00    +0.000 NA
ATOM     16  H   UNL     1       0.225  12.498  21.307  0.00  0.00    +0.000 HD
BRANCH  15  17
ATOM     17  C   UNL     1      -1.165  12.693  22.805  0.00  0.00    +0.000 C 
ATOM     18  C   UNL     1      -2.226  11.679  23.252  0.00  0.00    +0.000 C 
ATOM     19  C   UNL     1      -3.474  12.384  23.770  0.00  0.00    +0.000 C 
ATOM     20  N   UNL     1      -4.035  13.284  22.759  0.00  0.00    +0.000 NA
ATOM     21  C   UNL     1      -5.244  13.924  23.277  0.00  0.00    +0.000 C 
ATOM     22  C   UNL     1      -3.057  14.297  22.337  0.00  0.00    +0.000 C 
ATOM     23  C   UNL     1      -1.786  13.651  21.780  0.00  0.00    +0.000 C 
ENDBRANCH  15  17
ENDBRANCH  14  15
ENDBRANCH  12  14
ENDBRANCH   4   8
BRANCH   7  24
ATOM     24  S   UNL     1       5.562   4.456  18.063  0.00  0.00    +0.000 S 
ATOM     25  O   UNL     1       5.223   3.583  16.964  0.00  0.00    +0.000 OA
ATOM     26  O   UNL     1       6.852   5.111  18.141  0.00  0.00    +0.000 OA
BRANCH  24  27
ATOM     27  N   UNL     1       5.396   3.595  19.506  0.00  0.00    +0.000 NA
ATOM     28  H   UNL     1       5.225   4.225  20.289  0.00  0.00    +0.000 HD
BRANCH  27  29
ATOM     29  C   UNL     1       4.589   2.352  19.508  0.00  0.00    +0.000 C 
BRANCH  29  30
ATOM     30  C   UNL     1       3.638   2.377  20.724  0.00  0.00    +0.000 C 
BRANCH  30  31
ATOM     31  N   UNL     1       2.213   2.097  20.469  0.00  0.00    +0.000 NA
ATOM     32  C   UNL     1       1.971   2.000  19.015  0.00  0.00    +0.000 C 
ATOM     33  C   UNL     1       1.358   3.327  18.612  0.00  0.00    +0.000 C 
ATOM     34  C   UNL     1       0.468   3.627  19.794  0.00  0.00    +0.000 C 
ATOM     35  C   UNL     1       1.279   3.120  20.984  0.00  0.00    +0.000 C 
ENDBRANCH  30  31
ENDBRANCH  29  30
ENDBRANCH  27  29
ENDBRANCH  24  27
ENDBRANCH   7  24
TORSDOF 9
ENDMDL
MODEL 4
REMARK VINA RESULT:      -8.3      2.864      4.779
REMARK  Name = 
REMARK  11 active torsions:
REMARK  status: ('A' for Active; 'I' for Inactive)
REMARK    1  A    between atoms: C_1  and  C_2
REMARK    2  A    between atoms: C_4  and  C_5
REMARK    3  A    between atoms: C_9  and  C_10
REMARK    4  A    between atoms: C_10  and  N_11
REMARK    5  A    between atoms: N_11  and  C_12
REMARK    6  A    between atoms: N_15  and  C_16
REMARK    7  A    between atoms: C_22  and  S_23
REMARK    8  A    between atoms: S_23  and  N_26
REMARK    9  A    between atoms: N_26  and  C_27
REMARK   10  A    between atoms: C_27  and  C_28
REMARK   11  A    between atoms: C_28  and  N_29
REMARK                            x       y       z     vdW  Elec       q    Type
REMARK                         _______ _______ _______ _____ _____    ______ ____
ROOT
ATOM      1  C   UNL     1       4.912   6.880  16.150  0.00  0.00    +0.000 C 
ATOM      2  C   UNL     1       4.127   6.726  17.421  0.00  0.00    +0.000 A 
ATOM      3  C   UNL     1       3.150   7.707  17.704  0.00  0.00    +0.000 A 
ATOM      4  C   UNL     1       2.388   7.719  18.890  0.00  0.00    +0.000 A 
ATOM      5  C   UNL     1       2.622   6.684  19.804  0.00  0.00    +0.000 A 
ATOM      6  C   UNL     1       3.565   5.687  19.544  0.00  0.00    +0.000 A 
ATOM      7  C   UNL     1       4.318   5.698  18.359  0.00  0.00    +0.000 A 
ENDROOT
BRANCH   4   8
ATOM      8  C   UNL     1       1.399   8.791  19.160  0.00  0.00    +0.000 A 
ATOM      9  C   UNL     1       0.878   9.599  18.133  0.00  0.00    +0.000 A 
ATOM     10  C   UNL     1      -0.050  10.609  18.399  0.00  0.00    +0.000 A 
ATOM     11  C   UNL     1      -0.473  10.850  19.701  0.00  0.00    +0.000 A 
ATOM     12  C   UNL     1       0.022  10.069  20.751  0.00  0.00    +0.000 A 
ATOM     13  C   UNL     1       0.940   9.044  20.463  0.00  0.00    +0.000 A 
BRANCH  12  14
ATOM     14  C   UNL     1      -0.397  10.324  22.173  0.00  0.00    +0.000 C 
BRANCH  14  15
ATOM     15  N   UNL     1      -0.072  11.685  22.591  0.00  0.00    +0.000 NA
ATOM     16  H   UNL     1       0.669  12.044  21.989  0.00  0.00    +0.000 HD
BRANCH  15  17
ATOM     17  C   UNL     1      -1.232  12.586  22.543  0.00  0.00    +0.000 C 
ATOM     18  C   UNL     1      -1.000  13.912  23.280  0.00  0.00    +0.000 C 
ATOM     19  C   UNL     1      -2.264  14.763  23.285  0.00  0.00    +0.000 C 
ATOM     20  N   UNL     1      -3.388  14.043  23.889  0.00  0.00    +0.000 NA
ATOM     21  C   UNL     1      -4.577  14.897  23.902  0.00  0.00    +0.000 C 
ATOM     22  C   UNL     1      -3.665  12.785  23.182  0.00  0.00    +0.000 C 
ATOM     23  C   UNL     1      -2.438  11.870  23.164  0.00  0.00    +0.000 C 
ENDBRANCH  15  17
ENDBRANCH  14  15
ENDBRANCH  12  14
ENDBRANCH   4   8
BRANCH   7  24
ATOM     24  S   UNL     1       5.558   4.415  18.188  0.00  0.00    +0.000 S 
ATOM     25  O   UNL     1       5.649   4.008  16.806  0.00  0.00    +0.000 OA
ATOM     26  O   UNL     1       6.724   4.853  18.929  0.00  0.00    +0.000 OA
BRANCH  24  27
ATOM     27  N   UNL     1       4.898   3.143  19.082  0.00  0.00    +0.000 NA
ATOM     28  H   UNL     1       4.355   3.494  19.870  0.00  0.00    +0.000 HD
BRANCH  27  29
ATOM     29  C   UNL     1       4.293   2.000  18.359  0.00  0.00    +0.000 C 
BRANCH  29  30
ATOM     30  C   UNL     1       2.785   2.271  18.170  0.00  0.00    +0.000 C 
BRANCH  30  31
ATOM     31  N   UNL     1       1.890   1.892  19.279  0.00  0.00    +0.000 NA
ATOM     32  C   UNL     1       0.608   2.616  19.162  0.00  0.00    +0.000 C 
ATOM     33  C   UNL     1       0.687   3.753  20.162  0.00  0.00    +0.000 C 
ATOM     34  C   UNL     1       1.409   3.100  21.316  0.00  0.00    +0.000 C 
ATOM     35  C   UNL     1       2.418   2.183  20.628  0.00  0.00    +0.000 C 
ENDBRANCH  30  31
ENDBRANCH  29  30
ENDBRANCH  27  29
ENDBRANCH  24  27
ENDBRANCH   7  24
TORSDOF 9
ENDMDL
MODEL 5
REMARK VINA RESULT:      -8.3      0.688      1.294
REMARK  Name = 
REMARK  11 active torsions:
REMARK  status: ('A' for Active; 'I' for Inactive)
REMARK    1  A    between atoms: C_1  and  C_2
REMARK    2  A    between atoms: C_4  and  C_5
REMARK    3  A    between atoms: C_9  and  C_10
REMARK    4  A    between atoms: C_10  and  N_11
REMARK    5  A    between atoms: N_11  and  C_12
REMARK    6  A    between atoms: N_15  and  C_16
REMARK    7  A    between atoms: C_22  and  S_23
REMARK    8  A    between atoms: S_23  and  N_26
REMARK    9  A    between atoms: N_26  and  C_27
REMARK   10  A    between atoms: C_27  and  C_28
REMARK   11  A    between atoms: C_28  and  N_29
REMARK                            x       y       z     vdW  Elec       q    Type
REMARK                         _______ _______ _______ _____ _____    ______ ____
ROOT
ATOM      1  C   UNL     1       2.086   3.566  21.266  0.00  0.00    +0.000 C 
ATOM      2  C   UNL     1       2.184   4.738  20.330  0.00  0.00    +0.000 A 
ATOM      3  C   UNL     1       1.755   5.993  20.815  0.00  0.00    +0.000 A 
ATOM      4  C   UNL     1       1.733   7.161  20.024  0.00  0.00    +0.000 A 
ATOM      5  C   UNL     1       2.182   7.039  18.704  0.00  0.00    +0.000 A 
ATOM      6  C   UNL     1       2.633   5.818  18.201  0.00  0.00    +0.000 A 
ATOM      7  C   UNL     1       2.640   4.666  19.004  0.00  0.00    +0.000 A 
ENDROOT
BRANCH   4   8
ATOM      8  C   UNL     1       1.239   8.450  20.567  0.00  0.00    +0.000 A 
ATOM      9  C   UNL     1       1.046   8.653  21.945  0.00  0.00    +0.000 A 
ATOM     10  C   UNL     1       0.575   9.870  22.445  0.00  0.00    +0.000 A 
ATOM     11  C   UNL     1       0.271  10.915  21.579  0.00  0.00    +0.000 A 
ATOM     12  C   UNL     1       0.449  10.753  20.201  0.00  0.00    +0.000 A 
ATOM     13  C   UNL     1       0.941   9.528  19.717  0.00  0.00    +0.000 A 
BRANCH  12  14
ATOM     14  C   UNL     1       0.103  11.856  19.238  0.00  0.00    +0.000 C 
BRANCH  14  15
ATOM     15  N   UNL     1      -0.424  11.325  17.984  0.00  0.00    +0.000 NA
ATOM     16  H   UNL     1       0.084  10.473  17.749  0.00  0.00    +0.000 HD
BRANCH  15  17
ATOM     17  C   UNL     1      -1.865  11.042  18.050  0.00  0.00    +0.000 C 
ATOM     18  C   UNL     1      -2.536  10.997  16.671  0.00  0.00    +0.000 C 
ATOM     19  C   UNL     1      -4.042  10.800  16.802  0.00  0.00    +0.000 C 
ATOM     20  N   UNL     1      -4.647  11.853  17.621  0.00  0.00    +0.000 NA
ATOM     21  C   UNL     1      -6.094  11.650  17.705  0.00  0.00    +0.000 C 
ATOM     22  C   UNL     1      -4.055  11.899  18.965  0.00  0.00    +0.000 C 
ATOM     23  C   UNL     1      -2.542  12.121  18.904  0.00  0.00    +0.000 C 
ENDBRANCH  15  17
ENDBRANCH  14  15
ENDBRANCH  12  14
ENDBRANCH   4   8
BRANCH   7  24
ATOM     24  S   UNL     1       3.157   3.142  18.213  0.00  0.00    +0.000 S 
ATOM     25  O   UNL     1       2.973   2.036  19.120  0.00  0.00    +0.000 OA
ATOM     26  O   UNL     1       2.577   3.139  16.885  0.00  0.00    +0.000 OA
BRANCH  24  27
ATOM     27  N   UNL     1       4.813   3.386  17.990  0.00  0.00    +0.000 NA
ATOM     28  H   UNL     1       5.357   2.714  18.529  0.00  0.00    +0.000 HD
BRANCH  27  29
ATOM     29  C   UNL     1       5.319   3.654  16.623  0.00  0.00    +0.000 C 
BRANCH  29  30
ATOM     30  C   UNL     1       5.669   5.153  16.505  0.00  0.00    +0.000 C 
BRANCH  30  31
ATOM     31  N   UNL     1       7.078   5.532  16.720  0.00  0.00    +0.000 NA
ATOM     32  C   UNL     1       7.667   4.701  17.789  0.00  0.00    +0.000 C 
ATOM     33  C   UNL     1       7.673   5.572  19.030  0.00  0.00    +0.000 C 
ATOM     34  C   UNL     1       8.022   6.925  18.455  0.00  0.00    +0.000 C 
ATOM     35  C   UNL     1       7.286   6.941  17.118  0.00  0.00    +0.000 C 
ENDBRANCH  30  31
ENDBRANCH  29  30
ENDBRANCH  27  29
ENDBRANCH  24  27
ENDBRANCH   7  24
TORSDOF 9
ENDMDL
MODEL 6
REMARK VINA RESULT:      -8.2      1.917      3.460
REMARK  Name = 
REMARK  11 active torsions:
REMARK  status: ('A' for Active; 'I' for Inactive)
REMARK    1  A    between atoms: C_1  and  C_2
REMARK    2  A    between atoms: C_4  and  C_5
REMARK    3  A    between atoms: C_9  and  C_10
REMARK    4  A    between atoms: C_10  and  N_11
REMARK    5  A    between atoms: N_11  and  C_12
REMARK    6  A    between atoms: N_15  and  C_16
REMARK    7  A    between atoms: C_22  and  S_23
REMARK    8  A    between atoms: S_23  and  N_26
REMARK    9  A    between atoms: N_26  and  C_27
REMARK   10  A    between atoms: C_27  and  C_28
REMARK   11  A    between atoms: C_28  and  N_29
REMARK                            x       y       z     vdW  Elec       q    Type
REMARK                         _______ _______ _______ _____ _____    ______ ____
ROOT
ATOM      1  C   UNL     1       1.526   3.675  20.510  0.00  0.00    +0.000 C 
ATOM      2  C   UNL     1       1.877   5.006  19.910  0.00  0.00    +0.000 A 
ATOM      3  C   UNL     1       1.348   6.159  20.533  0.00  0.00    +0.000 A 
ATOM      4  C   UNL     1       1.547   7.464  20.038  0.00  0.00    +0.000 A 
ATOM      5  C   UNL     1       2.324   7.592  18.881  0.00  0.00    +0.000 A 
ATOM      6  C   UNL     1       2.878   6.475  18.253  0.00  0.00    +0.000 A 
ATOM      7  C   UNL     1       2.663   5.183  18.760  0.00  0.00    +0.000 A 
ENDROOT
BRANCH   4   8
ATOM      8  C   UNL     1       0.941   8.642  20.707  0.00  0.00    +0.000 A 
ATOM      9  C   UNL     1       0.770   8.701  22.101  0.00  0.00    +0.000 A 
ATOM     10  C   UNL     1       0.194   9.813  22.720  0.00  0.00    +0.000 A 
ATOM     11  C   UNL     1      -0.241  10.894  21.961  0.00  0.00    +0.000 A 
ATOM     12  C   UNL     1      -0.089  10.874  20.570  0.00  0.00    +0.000 A 
ATOM     13  C   UNL     1       0.510   9.755  19.966  0.00  0.00    +0.000 A 
BRANCH  12  14
ATOM     14  C   UNL     1      -0.573  12.017  19.720  0.00  0.00    +0.000 C 
BRANCH  14  15
ATOM     15  N   UNL     1       0.113  12.052  18.431  0.00  0.00    +0.000 NA
ATOM     16  H   UNL     1      -0.586  12.074  17.688  0.00  0.00    +0.000 HD
BRANCH  15  17
ATOM     17  C   UNL     1       1.015  13.203  18.299  0.00  0.00    +0.000 C 
ATOM     18  C   UNL     1       2.484  12.857  18.578  0.00  0.00    +0.000 C 
ATOM     19  C   UNL     1       3.359  14.104  18.525  0.00  0.00    +0.000 C 
ATOM     20  N   UNL     1       2.894  15.121  19.472  0.00  0.00    +0.000 NA
ATOM     21  C   UNL     1       3.771  16.291  19.415  0.00  0.00    +0.000 C 
ATOM     22  C   UNL     1       1.502  15.507  19.208  0.00  0.00    +0.000 C 
ATOM     23  C   UNL     1       0.563  14.299  19.273  0.00  0.00    +0.000 C 
ENDBRANCH  15  17
ENDBRANCH  14  15
ENDBRANCH  12  14
ENDBRANCH   4   8
BRANCH   7  24
ATOM     24  S   UNL     1       3.354   3.827  17.811  0.00  0.00    +0.000 S 
ATOM     25  O   UNL     1       4.242   3.053  18.645  0.00  0.00    +0.000 OA
ATOM     26  O   UNL     1       2.255   3.210  17.095  0.00  0.00    +0.000 OA
BRANCH  24  27
ATOM     27  N   UNL     1       4.273   4.626  16.641  0.00  0.00    +0.000 NA
ATOM     28  H   UNL     1       4.400   5.607  16.884  0.00  0.00    +0.000 HD
BRANCH  27  29
ATOM     29  C   UNL     1       5.472   3.952  16.092  0.00  0.00    +0.000 C 
BRANCH  29  30
ATOM     30  C   UNL     1       6.733   4.614  16.688  0.00  0.00    +0.000 C 
BRANCH  30  31
ATOM     31  N   UNL     1       6.529   5.605  17.761  0.00  0.00    +0.000 NA
ATOM     32  C   UNL     1       6.425   6.959  17.182  0.00  0.00    +0.000 C 
ATOM     33  C   UNL     1       7.778   7.607  17.407  0.00  0.00    +0.000 C 
ATOM     34  C   UNL     1       8.144   7.088  18.778  0.00  0.00    +0.000 C 
ATOM     35  C   UNL     1       7.609   5.658  18.768  0.00  0.00    +0.000 C 
ENDBRANCH  30  31
ENDBRANCH  29  30
ENDBRANCH  27  29
ENDBRANCH  24  27
ENDBRANCH   7  24
TORSDOF 9
ENDMDL
MODEL 7
REMARK VINA RESULT:      -8.1      4.022      8.833
REMARK  Name = 
REMARK  11 active torsions:
REMARK  status: ('A' for Active; 'I' for Inactive)
REMARK    1  A    between atoms: C_1  and  C_2
REMARK    2  A    between atoms: C_4  and  C_5
REMARK    3  A    between atoms: C_9  and  C_10
REMARK    4  A    between atoms: C_10  and  N_11
REMARK    5  A    between atoms: N_11  and  C_12
REMARK    6  A    between atoms: N_15  and  C_16
REMARK    7  A    between atoms: C_22  and  S_23
REMARK    8  A    between atoms: S_23  and  N_26
REMARK    9  A    between atoms: N_26  and  C_27
REMARK   10  A    between atoms: C_27  and  C_28
REMARK   11  A    between atoms: C_28  and  N_29
REMARK                            x       y       z     vdW  Elec       q    Type
REMARK                         _______ _______ _______ _____ _____    ______ ____
ROOT
ATOM      1  C   UNL     1       0.387   9.367  22.588  0.00  0.00    +0.000 C 
ATOM      2  C   UNL     1       0.884   8.921  21.243  0.00  0.00    +0.000 A 
ATOM      3  C   UNL     1       1.285   7.573  21.113  0.00  0.00    +0.000 A 
ATOM      4  C   UNL     1       1.829   7.040  19.926  0.00  0.00    +0.000 A 
ATOM      5  C   UNL     1       1.948   7.911  18.836  0.00  0.00    +0.000 A 
ATOM      6  C   UNL     1       1.542   9.243  18.926  0.00  0.00    +0.000 A 
ATOM      7  C   UNL     1       1.008   9.755  20.120  0.00  0.00    +0.000 A 
ENDROOT
BRANCH   4   8
ATOM      8  C   UNL     1       2.271   5.625  19.848  0.00  0.00    +0.000 A 
ATOM      9  C   UNL     1       2.201   4.762  20.956  0.00  0.00    +0.000 A 
ATOM     10  C   UNL     1       2.624   3.432  20.873  0.00  0.00    +0.000 A 
ATOM     11  C   UNL     1       3.142   2.932  19.684  0.00  0.00    +0.000 A 
ATOM     12  C   UNL     1       3.228   3.759  18.558  0.00  0.00    +0.000 A 
ATOM     13  C   UNL     1       2.780   5.089  18.655  0.00  0.00    +0.000 A 
BRANCH  12  14
ATOM     14  C   UNL     1       3.807   3.254  17.265  0.00  0.00    +0.000 C 
BRANCH  14  15
ATOM     15  N   UNL     1       5.259   3.416  17.231  0.00  0.00    +0.000 NA
ATOM     16  H   UNL     1       5.590   3.212  16.288  0.00  0.00    +0.000 HD
BRANCH  15  17
ATOM     17  C   UNL     1       5.689   4.763  17.630  0.00  0.00    +0.000 C 
ATOM     18  C   UNL     1       5.448   5.821  16.545  0.00  0.00    +0.000 C 
ATOM     19  C   UNL     1       6.002   7.176  16.970  0.00  0.00    +0.000 C 
ATOM     20  N   UNL     1       7.431   7.093  17.282  0.00  0.00    +0.000 NA
ATOM     21  C   UNL     1       7.936   8.413  17.660  0.00  0.00    +0.000 C 
ATOM     22  C   UNL     1       7.695   6.116  18.347  0.00  0.00    +0.000 C 
ATOM     23  C   UNL     1       7.185   4.723  17.970  0.00  0.00    +0.000 C 
ENDBRANCH  15  17
ENDBRANCH  14  15
ENDBRANCH  12  14
ENDBRANCH   4   8
BRANCH   7  24
ATOM     24  S   UNL     1       0.608  11.503  20.132  0.00  0.00    +0.000 S 
ATOM     25  O   UNL     1      -0.820  11.675  20.247  0.00  0.00    +0.000 OA
ATOM     26  O   UNL     1       1.526  12.140  21.055  0.00  0.00    +0.000 OA
BRANCH  24  27
ATOM     27  N   UNL     1       1.088  12.002  18.591  0.00  0.00    +0.000 NA
ATOM     28  H   UNL     1       0.292  12.341  18.053  0.00  0.00    +0.000 HD
BRANCH  27  29
ATOM     29  C   UNL     1       2.329  12.799  18.453  0.00  0.00    +0.000 C 
BRANCH  29  30
ATOM     30  C   UNL     1       1.951  14.287  18.296  0.00  0.00    +0.000 C 
BRANCH  30  31
ATOM     31  N   UNL     1       2.863  15.279  18.897  0.00  0.00    +0.000 NA
ATOM     32  C   UNL     1       3.695  15.899  17.847  0.00  0.00    +0.000 C 
ATOM     33  C   UNL     1       5.046  15.215  17.936  0.00  0.00    +0.000 C 
ATOM     34  C   UNL     1       5.210  15.050  19.428  0.00  0.00    +0.000 C 
ATOM     35  C   UNL     1       3.795  14.732  19.905  0.00  0.00    +0.000 C 
ENDBRANCH  30  31
ENDBRANCH  29  30
ENDBRANCH  27  29
ENDBRANCH  24  27
ENDBRANCH   7  24
TORSDOF 9
ENDMDL
MODEL 8
REMARK VINA RESULT:      -7.9      1.173      1.636
REMARK  Name = 
REMARK  11 active torsions:
REMARK  status: ('A' for Active; 'I' for Inactive)
REMARK    1  A    between atoms: C_1  and  C_2
REMARK    2  A    between atoms: C_4  and  C_5
REMARK    3  A    between atoms: C_9  and  C_10
REMARK    4  A    between atoms: C_10  and  N_11
REMARK    5  A    between atoms: N_11  and  C_12
REMARK    6  A    between atoms: N_15  and  C_16
REMARK    7  A    between atoms: C_22  and  S_23
REMARK    8  A    between atoms: S_23  and  N_26
REMARK    9  A    between atoms: N_26  and  C_27
REMARK   10  A    between atoms: C_27  and  C_28
REMARK   11  A    between atoms: C_28  and  N_29
REMARK                            x       y       z     vdW  Elec       q    Type
REMARK                         _______ _______ _______ _____ _____    ______ ____
ROOT
ATOM      1  C   UNL     1       1.940   3.625  21.228  0.00  0.00    +0.000 C 
ATOM      2  C   UNL     1       2.174   4.899  20.469  0.00  0.00    +0.000 A 
ATOM      3  C   UNL     1       1.618   6.084  21.002  0.00  0.00    +0.000 A 
ATOM      4  C   UNL     1       1.708   7.336  20.360  0.00  0.00    +0.000 A 
ATOM      5  C   UNL     1       2.404   7.378  19.145  0.00  0.00    +0.000 A 
ATOM      6  C   UNL     1       2.983   6.229  18.603  0.00  0.00    +0.000 A 
ATOM      7  C   UNL     1       2.877   4.991  19.256  0.00  0.00    +0.000 A 
ENDROOT
BRANCH   4   8
ATOM      8  C   UNL     1       1.076   8.547  20.940  0.00  0.00    +0.000 A 
ATOM      9  C   UNL     1       0.939   8.722  22.329  0.00  0.00    +0.000 A 
ATOM     10  C   UNL     1       0.339   9.864  22.865  0.00  0.00    +0.000 A 
ATOM     11  C   UNL     1      -0.157  10.857  22.027  0.00  0.00    +0.000 A 
ATOM     12  C   UNL     1      -0.041  10.720  20.639  0.00  0.00    +0.000 A 
ATOM     13  C   UNL     1       0.584   9.573  20.118  0.00  0.00    +0.000 A 
BRANCH  12  14
ATOM     14  C   UNL     1      -0.590  11.766  19.707  0.00  0.00    +0.000 C 
BRANCH  14  15
ATOM     15  N   UNL     1      -2.046  11.846  19.793  0.00  0.00    +0.000 NA
ATOM     16  H   UNL     1      -2.308  12.798  20.047  0.00  0.00    +0.000 HD
BRANCH  15  17
ATOM     17  C   UNL     1      -2.710  11.465  18.539  0.00  0.00    +0.000 C 
ATOM     18  C   UNL     1      -2.862   9.947  18.370  0.00  0.00    +0.000 C 
ATOM     19  C   UNL     1      -3.465   9.605  17.013  0.00  0.00    +0.000 C 
ATOM     20  N   UNL     1      -2.658  10.154  15.919  0.00  0.00    +0.000 NA
ATOM     21  C   UNL     1      -3.249   9.785  14.632  0.00  0.00    +0.000 C 
ATOM     22  C   UNL     1      -2.526  11.613  16.026  0.00  0.00    +0.000 C 
ATOM     23  C   UNL     1      -1.900  12.023  17.361  0.00  0.00    +0.000 C 
ENDBRANCH  15  17
ENDBRANCH  14  15
ENDBRANCH  12  14
ENDBRANCH   4   8
BRANCH   7  24
ATOM     24  S   UNL     1       3.586   3.578  18.411  0.00  0.00    +0.000 S 
ATOM     25  O   UNL     1       4.861   3.248  19.001  0.00  0.00    +0.000 OA
ATOM     26  O   UNL     1       2.533   2.591  18.280  0.00  0.00    +0.000 OA
BRANCH  24  27
ATOM     27  N   UNL     1       3.851   4.174  16.853  0.00  0.00    +0.000 NA
ATOM     28  H   UNL     1       3.334   5.039  16.701  0.00  0.00    +0.000 HD
BRANCH  27  29
ATOM     29  C   UNL     1       5.228   4.159  16.307  0.00  0.00    +0.000 C 
BRANCH  29  30
ATOM     30  C   UNL     1       5.655   5.609  15.988  0.00  0.00    +0.000 C 
BRANCH  30  31
ATOM     31  N   UNL     1       7.027   6.002  16.356  0.00  0.00    +0.000 NA
ATOM     32  C   UNL     1       7.697   4.891  17.063  0.00  0.00    +0.000 C 
ATOM     33  C   UNL     1       7.641   5.248  18.535  0.00  0.00    +0.000 C 
ATOM     34  C   UNL     1       7.866   6.741  18.499  0.00  0.00    +0.000 C 
ATOM     35  C   UNL     1       7.117   7.181  17.243  0.00  0.00    +0.000 C 
ENDBRANCH  30  31
ENDBRANCH  29  30
ENDBRANCH  27  29
ENDBRANCH  24  27
ENDBRANCH   7  24
TORSDOF 9
ENDMDL
MODEL 9
REMARK VINA RESULT:      -7.9      3.878      9.440
REMARK  Name = 
REMARK  11 active torsions:
REMARK  status: ('A' for Active; 'I' for Inactive)
REMARK    1  A    between atoms: C_1  and  C_2
REMARK    2  A    between atoms: C_4  and  C_5
REMARK    3  A    between atoms: C_9  and  C_10
REMARK    4  A    between atoms: C_10  and  N_11
REMARK    5  A    between atoms: N_11  and  C_12
REMARK    6  A    between atoms: N_15  and  C_16
REMARK    7  A    between atoms: C_22  and  S_23
REMARK    8  A    between atoms: S_23  and  N_26
REMARK    9  A    between atoms: N_26  and  C_27
REMARK   10  A    between atoms: C_27  and  C_28
REMARK   11  A    between atoms: C_28  and  N_29
REMARK                            x       y       z     vdW  Elec       q    Type
REMARK                         _______ _______ _______ _____ _____    ______ ____
ROOT
ATOM      1  C   UNL     1      -0.304   9.104  22.634  0.00  0.00    +0.000 C 
ATOM      2  C   UNL     1       0.441   8.773  21.372  0.00  0.00    +0.000 A 
ATOM      3  C   UNL     1       0.901   7.446  21.218  0.00  0.00    +0.000 A 
ATOM      4  C   UNL     1       1.666   7.017  20.114  0.00  0.00    +0.000 A 
ATOM      5  C   UNL     1       1.952   7.972  19.131  0.00  0.00    +0.000 A 
ATOM      6  C   UNL     1       1.494   9.286  19.243  0.00  0.00    +0.000 A 
ATOM      7  C   UNL     1       0.739   9.694  20.354  0.00  0.00    +0.000 A 
ENDROOT
BRANCH   4   8
ATOM      8  C   UNL     1       2.158   5.620  20.013  0.00  0.00    +0.000 A 
ATOM      9  C   UNL     1       2.112   4.735  21.105  0.00  0.00    +0.000 A 
ATOM     10  C   UNL     1       2.582   3.423  21.000  0.00  0.00    +0.000 A 
ATOM     11  C   UNL     1       3.125   2.964  19.805  0.00  0.00    +0.000 A 
ATOM     12  C   UNL     1       3.189   3.814  18.696  0.00  0.00    +0.000 A 
ATOM     13  C   UNL     1       2.693   5.125  18.813  0.00  0.00    +0.000 A 
BRANCH  12  14
ATOM     14  C   UNL     1       3.794   3.353  17.398  0.00  0.00    +0.000 C 
BRANCH  14  15
ATOM     15  N   UNL     1       5.247   3.499  17.404  0.00  0.00    +0.000 NA
ATOM     16  H   UNL     1       5.606   3.249  16.483  0.00  0.00    +0.000 HD
BRANCH  15  17
ATOM     17  C   UNL     1       5.679   4.860  17.754  0.00  0.00    +0.000 C 
ATOM     18  C   UNL     1       5.439   5.878  16.632  0.00  0.00    +0.000 C 
ATOM     19  C   UNL     1       5.995   7.247  17.008  0.00  0.00    +0.000 C 
ATOM     20  N   UNL     1       7.424   7.174  17.323  0.00  0.00    +0.000 NA
ATOM     21  C   UNL     1       7.930   8.506  17.654  0.00  0.00    +0.000 C 
ATOM     22  C   UNL     1       7.685   6.236  18.423  0.00  0.00    +0.000 C 
ATOM     23  C   UNL     1       7.174   4.831  18.097  0.00  0.00    +0.000 C 
ENDBRANCH  15  17
ENDBRANCH  14  15
ENDBRANCH  12  14
ENDBRANCH   4   8
BRANCH   7  24
ATOM     24  S   UNL     1       0.290  11.429  20.422  0.00  0.00    +0.000 S 
ATOM     25  O   UNL     1      -1.121  11.555  20.701  0.00  0.00    +0.000 OA
ATOM     26  O   UNL     1       1.286  12.091  21.240  0.00  0.00    +0.000 OA
BRANCH  24  27
ATOM     27  N   UNL     1       0.576  11.946  18.841  0.00  0.00    +0.000 NA
ATOM     28  H   UNL     1      -0.197  11.691  18.228  0.00  0.00    +0.000 HD
BRANCH  27  29
ATOM     29  C   UNL     1       1.133  13.302  18.622  0.00  0.00    +0.000 C 
BRANCH  29  30
ATOM     30  C   UNL     1       0.000  14.338  18.786  0.00  0.00    +0.000 C 
BRANCH  30  31
ATOM     31  N   UNL     1       0.383  15.682  19.259  0.00  0.00    +0.000 NA
ATOM     32  C   UNL     1      -0.737  16.624  19.059  0.00  0.00    +0.000 C 
ATOM     33  C   UNL     1      -0.390  17.415  17.813  0.00  0.00    +0.000 C 
ATOM     34  C   UNL     1       1.102  17.593  17.966  0.00  0.00    +0.000 C 
ATOM     35  C   UNL     1       1.554  16.269  18.576  0.00  0.00    +0.000 C 
ENDBRANCH  30  31
ENDBRANCH  29  30
ENDBRANCH  27  29
ENDBRANCH  24  27
ENDBRANCH   7  24
TORSDOF 9
ENDMDL
