MODEL 1
REMARK VINA RESULT:      -8.1      0.000      0.000
REMARK  Name = 
REMARK  4 active torsions:
REMARK  status: ('A' for Active; 'I' for Inactive)
REMARK    1  A    between atoms: C_2  and  C_18
REMARK    2  A    between atoms: N_3  and  C_4
REMARK    3  A    between atoms: C_4  and  C_5
REMARK    4  A    between atoms: C_5  and  C_6
REMARK                            x       y       z     vdW  Elec       q    Type
REMARK                         _______ _______ _______ _____ _____    ______ ____
ROOT
ATOM      1  C   UNL     1       4.140   4.603  17.170  0.00  0.00    +0.000 A 
ATOM      2  C   UNL     1       3.802   3.267  17.369  0.00  0.00    +0.000 A 
ATOM      3  N   UNL     1       2.928   3.208  18.409  0.00  0.00    +0.000 N 
ATOM      4  C   UNL     1       2.677   4.464  18.893  0.00  0.00    +0.000 A 
ATOM      5  C   UNL     1       1.839   4.778  19.966  0.00  0.00    +0.000 A 
ATOM      6  C   UNL     1       1.707   6.132  20.274  0.00  0.00    +0.000 A 
ATOM      7  C   UNL     1       2.430   7.093  19.558  0.00  0.00    +0.000 A 
ATOM      8  C   UNL     1       3.294   6.729  18.509  0.00  0.00    +0.000 A 
ATOM      9  C   UNL     1       3.415   5.371  18.152  0.00  0.00    +0.000 A 
ATOM     10  C   UNL     1       1.117   3.660  20.661  0.00  0.00    +0.000 C 
ATOM     11  C   UNL     1       1.894   2.335  20.484  0.00  0.00    +0.000 C 
ATOM     12  C   UNL     1       2.279   2.055  19.014  0.00  0.00    +0.000 C 
ENDROOT
BRANCH   1  13
ATOM     13  C   UNL     1       5.074   5.122  16.114  0.00  0.00    +0.000 C 
BRANCH  13  14
ATOM     14  C   UNL     1       6.187   4.128  15.759  0.00  0.00    +0.000 C 
BRANCH  14  17
ATOM     15  O   UNL     1       7.430   5.225  13.517  0.00  0.00    +0.000 OA
ATOM     16  C   UNL     1       6.738   4.212  13.354  0.00  0.00    +0.000 C 
ATOM     17  N   UNL     1       6.077   3.612  14.405  0.00  0.00    +0.000 N 
ATOM     18  H   UNL     1       5.611   2.725  14.256  0.00  0.00    +0.000 HD
BRANCH  16  19
ATOM     19  C   UNL     1       6.525   3.512  11.990  0.00  0.00    +0.000 C 
ATOM     20  C   UNL     1       7.446   2.310  11.638  0.00  0.00    +0.000 C 
ATOM     21  C   UNL     1       6.229   1.663  10.950  0.00  0.00    +0.000 C 
ATOM     22  C   UNL     1       5.342   2.512  11.880  0.00  0.00    +0.000 C 
ENDBRANCH  16  19
ENDBRANCH  14  17
ENDBRANCH  13  14
ENDBRANCH   1  13
TORSDOF 4
ENDMDL
MODEL 2
REMARK VINA RESULT:      -7.9      1.317      1.653
REMARK  Name = 
REMARK  4 active torsions:
REMARK  status: ('A' for Active; 'I' for Inactive)
REMARK    1  A    between atoms: C_2  and  C_18
REMARK    2  A    between atoms: N_3  and  C_4
REMARK    3  A    between atoms: C_4  and  C_5
REMARK    4  A    between atoms: C_5  and  C_6
REMARK                            x       y       z     vdW  Elec       q    Type
REMARK                         _______ _______ _______ _____ _____    ______ ____
ROOT
ATOM      1  C   UNL     1       5.029   5.248  18.524  0.00  0.00    +0.000 A 
ATOM      2  C   UNL     1       5.086   3.894  18.848  0.00  0.00    +0.000 A 
ATOM      3  N   UNL     1       4.002   3.605  19.618  0.00  0.00    +0.000 N 
ATOM      4  C   UNL     1       3.235   4.724  19.801  0.00  0.00    +0.000 A 
ATOM      5  C   UNL     1       2.056   4.797  20.548  0.00  0.00    +0.000 A 
ATOM      6  C   UNL     1       1.418   6.038  20.579  0.00  0.00    +0.000 A 
ATOM      7  C   UNL     1       1.984   7.139  19.927  0.00  0.00    +0.000 A 
ATOM      8  C   UNL     1       3.194   7.030  19.217  0.00  0.00    +0.000 A 
ATOM      9  C   UNL     1       3.838   5.779  19.138  0.00  0.00    +0.000 A 
ATOM     10  C   UNL     1       1.547   3.548  21.207  0.00  0.00    +0.000 C 
ATOM     11  C   UNL     1       2.717   2.570  21.465  0.00  0.00    +0.000 C 
ATOM     12  C   UNL     1       3.598   2.342  20.216  0.00  0.00    +0.000 C 
ENDROOT
BRANCH   1  13
ATOM     13  C   UNL     1       6.027   5.986  17.677  0.00  0.00    +0.000 C 
BRANCH  13  14
ATOM     14  C   UNL     1       5.467   6.392  16.309  0.00  0.00    +0.000 C 
BRANCH  14  17
ATOM     15  O   UNL     1       7.581   5.549  14.698  0.00  0.00    +0.000 OA
ATOM     16  C   UNL     1       6.512   4.929  14.616  0.00  0.00    +0.000 C 
ATOM     17  N   UNL     1       5.412   5.287  15.367  0.00  0.00    +0.000 N 
ATOM     18  H   UNL     1       4.592   4.693  15.356  0.00  0.00    +0.000 HD
BRANCH  16  19
ATOM     19  C   UNL     1       6.276   3.715  13.685  0.00  0.00    +0.000 C 
ATOM     20  C   UNL     1       4.902   3.606  12.968  0.00  0.00    +0.000 C 
ATOM     21  C   UNL     1       5.655   3.031  11.753  0.00  0.00    +0.000 C 
ATOM     22  C   UNL     1       6.903   3.774  12.266  0.00  0.00    +0.000 C 
ENDBRANCH  16  19
ENDBRANCH  14  17
ENDBRANCH  13  14
ENDBRANCH   1  13
TORSDOF 4
ENDMDL
MODEL 3
REMARK VINA RESULT:      -7.7      1.604      2.971
REMARK  Name = 
REMARK  4 active torsions:
REMARK  status: ('A' for Active; 'I' for Inactive)
REMARK    1  A    between atoms: C_2  and  C_18
REMARK    2  A    between atoms: N_3  and  C_4
REMARK    3  A    between atoms: C_4  and  C_5
REMARK    4  A    between atoms: C_5  and  C_6
REMARK                            x       y       z     vdW  Elec       q    Type
REMARK                         _______ _______ _______ _____ _____    ______ ____
ROOT
ATOM      1  C   UNL     1       3.624   6.026  18.009  0.00  0.00    +0.000 A 
ATOM      2  C   UNL     1       3.008   6.365  19.212  0.00  0.00    +0.000 A 
ATOM      3  N   UNL     1       2.591   5.215  19.805  0.00  0.00    +0.000 N 
ATOM      4  C   UNL     1       2.921   4.133  19.034  0.00  0.00    +0.000 A 
ATOM      5  C   UNL     1       2.636   2.797  19.329  0.00  0.00    +0.000 A 
ATOM      6  C   UNL     1       3.090   1.850  18.411  0.00  0.00    +0.000 A 
ATOM      7  C   UNL     1       3.748   2.255  17.245  0.00  0.00    +0.000 A 
ATOM      8  C   UNL     1       3.981   3.615  16.968  0.00  0.00    +0.000 A 
ATOM      9  C   UNL     1       3.566   4.590  17.897  0.00  0.00    +0.000 A 
ATOM     10  C   UNL     1       1.920   2.484  20.611  0.00  0.00    +0.000 C 
ATOM     11  C   UNL     1       1.085   3.703  21.064  0.00  0.00    +0.000 C 
ATOM     12  C   UNL     1       1.894   5.020  21.067  0.00  0.00    +0.000 C 
ENDROOT
BRANCH   1  13
ATOM     13  C   UNL     1       4.239   6.994  17.038  0.00  0.00    +0.000 C 
BRANCH  13  14
ATOM     14  C   UNL     1       5.740   6.762  16.833  0.00  0.00    +0.000 C 
BRANCH  14  17
ATOM     15  O   UNL     1       7.692   4.776  16.678  0.00  0.00    +0.000 OA
ATOM     16  C   UNL     1       7.014   4.997  15.666  0.00  0.00    +0.000 C 
ATOM     17  N   UNL     1       6.036   5.969  15.651  0.00  0.00    +0.000 N 
ATOM     18  H   UNL     1       5.429   6.048  14.844  0.00  0.00    +0.000 HD
BRANCH  16  19
ATOM     19  C   UNL     1       7.174   4.238  14.326  0.00  0.00    +0.000 C 
ATOM     20  C   UNL     1       5.882   3.789  13.587  0.00  0.00    +0.000 C 
ATOM     21  C   UNL     1       6.609   4.101  12.265  0.00  0.00    +0.000 C 
ATOM     22  C   UNL     1       7.487   5.084  13.062  0.00  0.00    +0.000 C 
ENDBRANCH  16  19
ENDBRANCH  14  17
ENDBRANCH  13  14
ENDBRANCH   1  13
TORSDOF 4
ENDMDL
MODEL 4
REMARK VINA RESULT:      -7.6      1.456      2.021
REMARK  Name = 
REMARK  4 active torsions:
REMARK  status: ('A' for Active; 'I' for Inactive)
REMARK    1  A    between atoms: C_2  and  C_18
REMARK    2  A    between atoms: N_3  and  C_4
REMARK    3  A    between atoms: C_4  and  C_5
REMARK    4  A    between atoms: C_5  and  C_6
REMARK                            x       y       z     vdW  Elec       q    Type
REMARK                         _______ _______ _______ _____ _____    ______ ____
ROOT
ATOM      1  C   UNL     1       3.836   5.839  17.578  0.00  0.00    +0.000 A 
ATOM      2  C   UNL     1       3.843   4.561  17.022  0.00  0.00    +0.000 A 
ATOM      3  N   UNL     1       3.022   3.778  17.771  0.00  0.00    +0.000 N 
ATOM      4  C   UNL     1       2.472   4.502  18.794  0.00  0.00    +0.000 A 
ATOM      5  C   UNL     1       1.593   4.016  19.765  0.00  0.00    +0.000 A 
ATOM      6  C   UNL     1       1.133   4.939  20.703  0.00  0.00    +0.000 A 
ATOM      7  C   UNL     1       1.587   6.262  20.673  0.00  0.00    +0.000 A 
ATOM      8  C   UNL     1       2.503   6.702  19.700  0.00  0.00    +0.000 A 
ATOM      9  C   UNL     1       2.954   5.798  18.717  0.00  0.00    +0.000 A 
ATOM     10  C   UNL     1       1.179   2.574  19.697  0.00  0.00    +0.000 C 
ATOM     11  C   UNL     1       2.259   1.745  18.964  0.00  0.00    +0.000 C 
ATOM     12  C   UNL     1       2.686   2.370  17.617  0.00  0.00    +0.000 C 
ENDROOT
BRANCH   1  13
ATOM     13  C   UNL     1       4.602   7.023  17.057  0.00  0.00    +0.000 C 
BRANCH  13  14
ATOM     14  C   UNL     1       6.070   6.701  16.757  0.00  0.00    +0.000 C 
BRANCH  14  17
ATOM     15  O   UNL     1       7.816   4.542  16.495  0.00  0.00    +0.000 OA
ATOM     16  C   UNL     1       7.123   4.845  15.515  0.00  0.00    +0.000 C 
ATOM     17  N   UNL     1       6.243   5.905  15.553  0.00  0.00    +0.000 N 
ATOM     18  H   UNL     1       5.615   6.056  14.773  0.00  0.00    +0.000 HD
BRANCH  16  19
ATOM     19  C   UNL     1       7.158   4.099  14.159  0.00  0.00    +0.000 C 
ATOM     20  C   UNL     1       5.803   3.814  13.452  0.00  0.00    +0.000 C 
ATOM     21  C   UNL     1       6.524   4.066  12.114  0.00  0.00    +0.000 C 
ATOM     22  C   UNL     1       7.531   4.927  12.900  0.00  0.00    +0.000 C 
ENDBRANCH  16  19
ENDBRANCH  14  17
ENDBRANCH  13  14
ENDBRANCH   1  13
TORSDOF 4
ENDMDL
MODEL 5
REMARK VINA RESULT:      -7.6      2.699      4.411
REMARK  Name = 
REMARK  4 active torsions:
REMARK  status: ('A' for Active; 'I' for Inactive)
REMARK    1  A    between atoms: C_2  and  C_18
REMARK    2  A    between atoms: N_3  and  C_4
REMARK    3  A    between atoms: C_4  and  C_5
REMARK    4  A    between atoms: C_5  and  C_6
REMARK                            x       y       z     vdW  Elec       q    Type
REMARK                         _______ _______ _______ _____ _____    ______ ____
ROOT
ATOM      1  C   UNL     1       4.221   4.144  17.007  0.00  0.00    +0.000 A 
ATOM      2  C   UNL     1       3.759   2.892  17.406  0.00  0.00    +0.000 A 
ATOM      3  N   UNL     1       2.896   3.077  18.439  0.00  0.00    +0.000 N 
ATOM      4  C   UNL     1       2.772   4.409  18.726  0.00  0.00    +0.000 A 
ATOM      5  C   UNL     1       1.979   4.962  19.736  0.00  0.00    +0.000 A 
ATOM      6  C   UNL     1       1.982   6.353  19.834  0.00  0.00    +0.000 A 
ATOM      7  C   UNL     1       2.786   7.120  18.983  0.00  0.00    +0.000 A 
ATOM      8  C   UNL     1       3.599   6.520  18.004  0.00  0.00    +0.000 A 
ATOM      9  C   UNL     1       3.585   5.118  17.859  0.00  0.00    +0.000 A 
ATOM     10  C   UNL     1       1.161   4.037  20.590  0.00  0.00    +0.000 C 
ATOM     11  C   UNL     1       1.806   2.632  20.619  0.00  0.00    +0.000 C 
ATOM     12  C   UNL     1       2.146   2.096  19.210  0.00  0.00    +0.000 C 
ENDROOT
BRANCH   1  13
ATOM     13  C   UNL     1       5.189   4.403  15.887  0.00  0.00    +0.000 C 
BRANCH  13  14
ATOM     14  C   UNL     1       6.652   4.393  16.346  0.00  0.00    +0.000 C 
BRANCH  14  17
ATOM     15  O   UNL     1       6.988   5.919  18.656  0.00  0.00    +0.000 OA
ATOM     16  C   UNL     1       7.380   6.401  17.585  0.00  0.00    +0.000 C 
ATOM     17  N   UNL     1       7.242   5.720  16.394  0.00  0.00    +0.000 N 
ATOM     18  H   UNL     1       7.671   6.095  15.557  0.00  0.00    +0.000 HD
BRANCH  16  19
ATOM     19  C   UNL     1       8.051   7.790  17.447  0.00  0.00    +0.000 C 
ATOM     20  C   UNL     1       7.133   9.044  17.462  0.00  0.00    +0.000 C 
ATOM     21  C   UNL     1       8.250   9.771  18.235  0.00  0.00    +0.000 C 
ATOM     22  C   UNL     1       8.723   8.385  18.714  0.00  0.00    +0.000 C 
ENDBRANCH  16  19
ENDBRANCH  14  17
ENDBRANCH  13  14
ENDBRANCH   1  13
TORSDOF 4
ENDMDL
MODEL 6
REMARK VINA RESULT:      -7.6      1.869      2.389
REMARK  Name = 
REMARK  4 active torsions:
REMARK  status: ('A' for Active; 'I' for Inactive)
REMARK    1  A    between atoms: C_2  and  C_18
REMARK    2  A    between atoms: N_3  and  C_4
REMARK    3  A    between atoms: C_4  and  C_5
REMARK    4  A    between atoms: C_5  and  C_6
REMARK                            x       y       z     vdW  Elec       q    Type
REMARK                         _______ _______ _______ _____ _____    ______ ____
ROOT
ATOM      1  C   UNL     1       5.478   4.654  19.159  0.00  0.00    +0.000 A 
ATOM      2  C   UNL     1       5.085   3.352  19.458  0.00  0.00    +0.000 A 
ATOM      3  N   UNL     1       3.755   3.247  19.194  0.00  0.00    +0.000 N 
ATOM      4  C   UNL     1       3.267   4.437  18.726  0.00  0.00    +0.000 A 
ATOM      5  C   UNL     1       1.941   4.696  18.367  0.00  0.00    +0.000 A 
ATOM      6  C   UNL     1       1.668   5.976  17.887  0.00  0.00    +0.000 A 
ATOM      7  C   UNL     1       2.681   6.940  17.828  0.00  0.00    +0.000 A 
ATOM      8  C   UNL     1       3.996   6.648  18.235  0.00  0.00    +0.000 A 
ATOM      9  C   UNL     1       4.306   5.350  18.689  0.00  0.00    +0.000 A 
ATOM     10  C   UNL     1       0.940   3.582  18.476  0.00  0.00    +0.000 C 
ATOM     11  C   UNL     1       1.401   2.555  19.535  0.00  0.00    +0.000 C 
ATOM     12  C   UNL     1       2.866   2.105  19.339  0.00  0.00    +0.000 C 
ENDROOT
BRANCH   1  13
ATOM     13  C   UNL     1       6.871   5.200  19.296  0.00  0.00    +0.000 C 
BRANCH  13  14
ATOM     14  C   UNL     1       7.828   4.674  18.220  0.00  0.00    +0.000 C 
BRANCH  14  17
ATOM     15  O   UNL     1       7.457   6.660  16.298  0.00  0.00    +0.000 OA
ATOM     16  C   UNL     1       7.053   5.520  16.034  0.00  0.00    +0.000 C 
ATOM     17  N   UNL     1       7.184   4.481  16.931  0.00  0.00    +0.000 N 
ATOM     18  H   UNL     1       6.943   3.542  16.640  0.00  0.00    +0.000 HD
BRANCH  16  19
ATOM     19  C   UNL     1       6.363   5.125  14.705  0.00  0.00    +0.000 C 
ATOM     20  C   UNL     1       7.270   4.795  13.486  0.00  0.00    +0.000 C 
ATOM     21  C   UNL     1       6.242   3.716  13.098  0.00  0.00    +0.000 C 
ATOM     22  C   UNL     1       5.834   3.671  14.582  0.00  0.00    +0.000 C 
ENDBRANCH  16  19
ENDBRANCH  14  17
ENDBRANCH  13  14
ENDBRANCH   1  13
TORSDOF 4
ENDMDL
MODEL 7
REMARK VINA RESULT:      -7.6      1.759      2.092
REMARK  Name = 
REMARK  4 active torsions:
REMARK  status: ('A' for Active; 'I' for Inactive)
REMARK    1  A    between atoms: C_2  and  C_18
REMARK    2  A    between atoms: N_3  and  C_4
REMARK    3  A    between atoms: C_4  and  C_5
REMARK    4  A    between atoms: C_5  and  C_6
REMARK                            x       y       z     vdW  Elec       q    Type
REMARK                         _______ _______ _______ _____ _____    ______ ____
ROOT
ATOM      1  C   UNL     1       5.816   5.137  18.754  0.00  0.00    +0.000 A 
ATOM      2  C   UNL     1       5.585   3.882  19.312  0.00  0.00    +0.000 A 
ATOM      3  N   UNL     1       4.239   3.711  19.409  0.00  0.00    +0.000 N 
ATOM      4  C   UNL     1       3.582   4.810  18.925  0.00  0.00    +0.000 A 
ATOM      5  C   UNL     1       2.196   4.985  18.881  0.00  0.00    +0.000 A 
ATOM      6  C   UNL     1       1.740   6.177  18.319  0.00  0.00    +0.000 A 
ATOM      7  C   UNL     1       2.650   7.145  17.879  0.00  0.00    +0.000 A 
ATOM      8  C   UNL     1       4.039   6.944  17.977  0.00  0.00    +0.000 A 
ATOM      9  C   UNL     1       4.526   5.731  18.506  0.00  0.00    +0.000 A 
ATOM     10  C   UNL     1       1.318   3.876  19.386  0.00  0.00    +0.000 C 
ATOM     11  C   UNL     1       2.085   3.022  20.421  0.00  0.00    +0.000 C 
ATOM     12  C   UNL     1       3.480   2.581  19.924  0.00  0.00    +0.000 C 
ENDROOT
BRANCH   1  13
ATOM     13  C   UNL     1       7.166   5.728  18.460  0.00  0.00    +0.000 C 
BRANCH  13  14
ATOM     14  C   UNL     1       7.310   6.200  17.009  0.00  0.00    +0.000 C 
BRANCH  14  17
ATOM     15  O   UNL     1       5.404   6.093  14.976  0.00  0.00    +0.000 OA
ATOM     16  C   UNL     1       6.207   5.155  15.062  0.00  0.00    +0.000 C 
ATOM     17  N   UNL     1       7.174   5.121  16.044  0.00  0.00    +0.000 N 
ATOM     18  H   UNL     1       7.881   4.396  16.018  0.00  0.00    +0.000 HD
BRANCH  16  19
ATOM     19  C   UNL     1       6.227   3.934  14.111  0.00  0.00    +0.000 C 
ATOM     20  C   UNL     1       4.950   3.645  13.273  0.00  0.00    +0.000 C 
ATOM     21  C   UNL     1       5.881   3.198  12.130  0.00  0.00    +0.000 C 
ATOM     22  C   UNL     1       6.962   4.100  12.754  0.00  0.00    +0.000 C 
ENDBRANCH  16  19
ENDBRANCH  14  17
ENDBRANCH  13  14
ENDBRANCH   1  13
TORSDOF 4
ENDMDL
MODEL 8
REMARK VINA RESULT:      -7.4      1.310      1.522
REMARK  Name = 
REMARK  4 active torsions:
REMARK  status: ('A' for Active; 'I' for Inactive)
REMARK    1  A    between atoms: C_2  and  C_18
REMARK    2  A    between atoms: N_3  and  C_4
REMARK    3  A    between atoms: C_4  and  C_5
REMARK    4  A    between atoms: C_5  and  C_6
REMARK                            x       y       z     vdW  Elec       q    Type
REMARK                         _______ _______ _______ _____ _____    ______ ____
ROOT
ATOM      1  C   UNL     1       5.645   4.287  17.031  0.00  0.00    +0.000 A 
ATOM      2  C   UNL     1       5.040   3.034  17.093  0.00  0.00    +0.000 A 
ATOM      3  N   UNL     1       3.745   3.215  17.466  0.00  0.00    +0.000 N 
ATOM      4  C   UNL     1       3.481   4.547  17.643  0.00  0.00    +0.000 A 
ATOM      5  C   UNL     1       2.259   5.096  18.038  0.00  0.00    +0.000 A 
ATOM      6  C   UNL     1       2.205   6.486  18.130  0.00  0.00    +0.000 A 
ATOM      7  C   UNL     1       3.347   7.255  17.881  0.00  0.00    +0.000 A 
ATOM      8  C   UNL     1       4.569   6.659  17.522  0.00  0.00    +0.000 A 
ATOM      9  C   UNL     1       4.640   5.258  17.385  0.00  0.00    +0.000 A 
ATOM     10  C   UNL     1       1.103   4.169  18.280  0.00  0.00    +0.000 C 
ATOM     11  C   UNL     1       1.621   2.761  18.656  0.00  0.00    +0.000 C 
ATOM     12  C   UNL     1       2.693   2.233  17.677  0.00  0.00    +0.000 C 
ENDROOT
BRANCH   1  13
ATOM     13  C   UNL     1       7.075   4.550  16.648  0.00  0.00    +0.000 C 
BRANCH  13  14
ATOM     14  C   UNL     1       7.209   5.316  15.327  0.00  0.00    +0.000 C 
BRANCH  14  17
ATOM     15  O   UNL     1       8.108   5.632  12.706  0.00  0.00    +0.000 OA
ATOM     16  C   UNL     1       7.239   4.776  12.918  0.00  0.00    +0.000 C 
ATOM     17  N   UNL     1       6.729   4.562  14.181  0.00  0.00    +0.000 N 
ATOM     18  H   UNL     1       6.102   3.783  14.336  0.00  0.00    +0.000 HD
BRANCH  16  19
ATOM     19  C   UNL     1       6.627   3.866  11.825  0.00  0.00    +0.000 C 
ATOM     20  C   UNL     1       7.182   2.420  11.689  0.00  0.00    +0.000 C 
ATOM     21  C   UNL     1       5.746   1.971  11.356  0.00  0.00    +0.000 C 
ATOM     22  C   UNL     1       5.256   3.207  12.133  0.00  0.00    +0.000 C 
ENDBRANCH  16  19
ENDBRANCH  14  17
ENDBRANCH  13  14
ENDBRANCH   1  13
TORSDOF 4
ENDMDL
MODEL 9
REMARK VINA RESULT:      -7.4      0.916      2.394
REMARK  Name = 
REMARK  4 active torsions:
REMARK  status: ('A' for Active; 'I' for Inactive)
REMARK    1  A    between atoms: C_2  and  C_18
REMARK    2  A    between atoms: N_3  and  C_4
REMARK    3  A    between atoms: C_4  and  C_5
REMARK    4  A    between atoms: C_5  and  C_6
REMARK                            x       y       z     vdW  Elec       q    Type
REMARK                         _______ _______ _______ _____ _____    ______ ____
ROOT
ATOM      1  C   UNL     1       4.360   5.418  17.367  0.00  0.00    +0.000 A 
ATOM      2  C   UNL     1       3.858   6.365  18.257  0.00  0.00    +0.000 A 
ATOM      3  N   UNL     1       3.062   5.717  19.149  0.00  0.00    +0.000 N 
ATOM      4  C   UNL     1       3.032   4.376  18.876  0.00  0.00    +0.000 A 
ATOM      5  C   UNL     1       2.307   3.411  19.580  0.00  0.00    +0.000 A 
ATOM      6  C   UNL     1       2.444   2.093  19.144  0.00  0.00    +0.000 A 
ATOM      7  C   UNL     1       3.235   1.796  18.029  0.00  0.00    +0.000 A 
ATOM      8  C   UNL     1       3.919   2.805  17.325  0.00  0.00    +0.000 A 
ATOM      9  C   UNL     1       3.827   4.140  17.768  0.00  0.00    +0.000 A 
ATOM     10  C   UNL     1       1.490   3.850  20.760  0.00  0.00    +0.000 C 
ATOM     11  C   UNL     1       1.099   5.338  20.611  0.00  0.00    +0.000 C 
ATOM     12  C   UNL     1       2.302   6.246  20.271  0.00  0.00    +0.000 C 
ENDROOT
BRANCH   1  13
ATOM     13  C   UNL     1       5.293   5.701  16.224  0.00  0.00    +0.000 C 
BRANCH  13  14
ATOM     14  C   UNL     1       6.206   4.516  15.889  0.00  0.00    +0.000 C 
BRANCH  14  17
ATOM     15  O   UNL     1       7.565   5.327  13.593  0.00  0.00    +0.000 OA
ATOM     16  C   UNL     1       6.712   4.438  13.474  0.00  0.00    +0.000 C 
ATOM     17  N   UNL     1       5.984   3.986  14.554  0.00  0.00    +0.000 N 
ATOM     18  H   UNL     1       5.375   3.185  14.441  0.00  0.00    +0.000 HD
BRANCH  16  19
ATOM     19  C   UNL     1       6.357   3.745  12.136  0.00  0.00    +0.000 C 
ATOM     20  C   UNL     1       6.831   2.279  11.930  0.00  0.00    +0.000 C 
ATOM     21  C   UNL     1       5.511   2.028  11.176  0.00  0.00    +0.000 C 
ATOM     22  C   UNL     1       4.912   3.198  11.979  0.00  0.00    +0.000 C 
ENDBRANCH  16  19
ENDBRANCH  14  17
ENDBRANCH  13  14
ENDBRANCH   1  13
TORSDOF 4
ENDMDL
