MODEL 1
REMARK VINA RESULT:      -7.6      0.000      0.000
REMARK  Name = 
REMARK  7 active torsions:
REMARK  status: ('A' for Active; 'I' for Inactive)
REMARK    1  A    between atoms: C_1  and  O_2
REMARK    2  A    between atoms: O_2  and  C_3
REMARK    3  A    between atoms: C_8  and  C_10
REMARK    4  A    between atoms: C_12  and  C_13
REMARK    5  A    between atoms: C_13  and  O_14
REMARK    6  A    between atoms: O_14  and  C_15
REMARK    7  A    between atoms: C_18  and  N_19
REMARK                            x       y       z     vdW  Elec       q    Type
REMARK                         _______ _______ _______ _____ _____    ______ ____
ROOT
ATOM      1  C   UNL     1       8.841   9.946  18.781  0.00  0.00    +0.000 A 
ATOM      2  C   UNL     1       8.827   8.525  18.825  0.00  0.00    +0.000 A 
ATOM      3  C   UNL     1       8.017   8.153  17.783  0.00  0.00    +0.000 A 
ATOM      4  O   UNL     1       7.530   9.266  17.178  0.00  0.00    +0.000 OA
ATOM      5  N   UNL     1       8.014  10.385  17.816  0.00  0.00    +0.000 NA
ENDROOT
BRANCH   1  11
ATOM      6  C   UNL     1      11.176  14.024  19.510  0.00  0.00    +0.000 C 
ATOM      7  C   UNL     1      11.799  14.021  18.105  0.00  0.00    +0.000 C 
ATOM      8  C   UNL     1      11.136  12.965  17.211  0.00  0.00    +0.000 C 
ATOM      9  C   UNL     1      11.205  11.589  17.866  0.00  0.00    +0.000 C 
ATOM     10  N   UNL     1      10.618  11.626  19.207  0.00  0.00    +0.000 N 
ATOM     11  C   UNL     1       9.578  10.828  19.693  0.00  0.00    +0.000 C 
ATOM     12  O   UNL     1       9.291  10.822  20.893  0.00  0.00    +0.000 OA
ATOM     13  C   UNL     1      11.237  12.602  20.106  0.00  0.00    +0.000 C 
BRANCH   6  15
ATOM     14  C   UNL     1       9.514  15.598  20.238  0.00  0.00    +0.000 C 
ATOM     15  O   UNL     1       9.842  14.531  19.362  0.00  0.00    +0.000 OA
ENDBRANCH   6  15
ENDBRANCH   1  11
BRANCH   3  16
ATOM     16  C   UNL     1       7.536   6.862  17.249  0.00  0.00    +0.000 C 
BRANCH  16  17
ATOM     17  O   UNL     1       6.257   7.155  16.703  0.00  0.00    +0.000 OA
BRANCH  17  18
ATOM     18  C   UNL     1       5.204   6.431  17.172  0.00  0.00    +0.000 A 
ATOM     19  C   UNL     1       5.403   5.051  17.134  0.00  0.00    +0.000 A 
ATOM     20  C   UNL     1       4.423   4.177  17.605  0.00  0.00    +0.000 A 
ATOM     21  C   UNL     1       3.232   4.690  18.130  0.00  0.00    +0.000 A 
ATOM     22  C   UNL     1       3.040   6.079  18.185  0.00  0.00    +0.000 A 
ATOM     23  C   UNL     1       4.029   6.949  17.707  0.00  0.00    +0.000 A 
BRANCH  21  24
ATOM     24  N   UNL     1       2.216   3.820  18.599  0.00  0.00    +0.000 N 
ATOM     25  C   UNL     1       1.890   2.561  18.153  0.00  0.00    +0.000 A 
ATOM     26  N   UNL     1       0.853   2.088  18.813  0.00  0.00    +0.000 NA
ATOM     27  C   UNL     1       0.573   3.102  19.678  0.00  0.00    +0.000 A 
ATOM     28  N   UNL     1       1.375   4.165  19.603  0.00  0.00    +0.000 NA
ENDBRANCH  21  24
ENDBRANCH  17  18
ENDBRANCH  16  17
ENDBRANCH   3  16
TORSDOF 6
ENDMDL
MODEL 2
REMARK VINA RESULT:      -7.5      6.704     10.512
REMARK  Name = 
REMARK  7 active torsions:
REMARK  status: ('A' for Active; 'I' for Inactive)
REMARK    1  A    between atoms: C_1  and  O_2
REMARK    2  A    between atoms: O_2  and  C_3
REMARK    3  A    between atoms: C_8  and  C_10
REMARK    4  A    between atoms: C_12  and  C_13
REMARK    5  A    between atoms: C_13  and  O_14
REMARK    6  A    between atoms: O_14  and  C_15
REMARK    7  A    between atoms: C_18  and  N_19
REMARK                            x       y       z     vdW  Elec       q    Type
REMARK                         _______ _______ _______ _____ _____    ______ ____
ROOT
ATOM      1  C   UNL     1       2.409   7.021  19.784  0.00  0.00    +0.000 A 
ATOM      2  C   UNL     1       2.233   7.995  18.763  0.00  0.00    +0.000 A 
ATOM      3  C   UNL     1       1.372   8.915  19.304  0.00  0.00    +0.000 A 
ATOM      4  O   UNL     1       1.007   8.506  20.546  0.00  0.00    +0.000 OA
ATOM      5  N   UNL     1       1.625   7.310  20.836  0.00  0.00    +0.000 NA
ENDROOT
BRANCH   1  11
ATOM      6  C   UNL     1       2.861   2.422  18.667  0.00  0.00    +0.000 C 
ATOM      7  C   UNL     1       1.445   2.073  19.154  0.00  0.00    +0.000 C 
ATOM      8  C   UNL     1       0.625   3.343  19.417  0.00  0.00    +0.000 C 
ATOM      9  C   UNL     1       1.354   4.258  20.397  0.00  0.00    +0.000 C 
ATOM     10  N   UNL     1       2.704   4.559  19.914  0.00  0.00    +0.000 N 
ATOM     11  C   UNL     1       3.255   5.826  19.695  0.00  0.00    +0.000 C 
ATOM     12  O   UNL     1       4.460   5.961  19.463  0.00  0.00    +0.000 OA
ATOM     13  C   UNL     1       3.533   3.378  19.675  0.00  0.00    +0.000 C 
BRANCH   6  15
ATOM     14  C   UNL     1       3.888   3.577  16.828  0.00  0.00    +0.000 C 
ATOM     15  O   UNL     1       2.713   2.977  17.353  0.00  0.00    +0.000 OA
ENDBRANCH   6  15
ENDBRANCH   1  11
BRANCH   3  16
ATOM     16  C   UNL     1       0.739  10.159  18.821  0.00  0.00    +0.000 C 
BRANCH  16  17
ATOM     17  O   UNL     1      -0.012   9.759  17.683  0.00  0.00    +0.000 OA
BRANCH  17  18
ATOM     18  C   UNL     1      -1.321  10.131  17.644  0.00  0.00    +0.000 A 
ATOM     19  C   UNL     1      -1.676  11.061  18.620  0.00  0.00    +0.000 A 
ATOM     20  C   UNL     1      -2.977  11.558  18.692  0.00  0.00    +0.000 A 
ATOM     21  C   UNL     1      -3.934  11.128  17.767  0.00  0.00    +0.000 A 
ATOM     22  C   UNL     1      -3.572  10.206  16.772  0.00  0.00    +0.000 A 
ATOM     23  C   UNL     1      -2.263   9.710  16.710  0.00  0.00    +0.000 A 
BRANCH  21  24
ATOM     24  N   UNL     1      -5.266  11.607  17.830  0.00  0.00    +0.000 N 
ATOM     25  C   UNL     1      -5.852  12.617  17.105  0.00  0.00    +0.000 A 
ATOM     26  N   UNL     1      -7.100  12.798  17.484  0.00  0.00    +0.000 NA
ATOM     27  C   UNL     1      -7.248  11.855  18.455  0.00  0.00    +0.000 A 
ATOM     28  N   UNL     1      -6.178  11.097  18.694  0.00  0.00    +0.000 NA
ENDBRANCH  21  24
ENDBRANCH  17  18
ENDBRANCH  16  17
ENDBRANCH   3  16
TORSDOF 6
ENDMDL
MODEL 3
REMARK VINA RESULT:      -7.5      1.572      2.313
REMARK  Name = 
REMARK  7 active torsions:
REMARK  status: ('A' for Active; 'I' for Inactive)
REMARK    1  A    between atoms: C_1  and  O_2
REMARK    2  A    between atoms: O_2  and  C_3
REMARK    3  A    between atoms: C_8  and  C_10
REMARK    4  A    between atoms: C_12  and  C_13
REMARK    5  A    between atoms: C_13  and  O_14
REMARK    6  A    between atoms: O_14  and  C_15
REMARK    7  A    between atoms: C_18  and  N_19
REMARK                            x       y       z     vdW  Elec       q    Type
REMARK                         _______ _______ _______ _____ _____    ______ ____
ROOT
ATOM      1  C   UNL     1       9.705  11.475  19.447  0.00  0.00    +0.000 A 
ATOM      2  C   UNL     1       9.100  11.146  18.203  0.00  0.00    +0.000 A 
ATOM      3  C   UNL     1       8.658   9.857  18.362  0.00  0.00    +0.000 A 
ATOM      4  O   UNL     1       9.014   9.413  19.595  0.00  0.00    +0.000 OA
ATOM      5  N   UNL     1       9.695  10.406  20.261  0.00  0.00    +0.000 NA
ENDROOT
BRANCH   1  11
ATOM      6  C   UNL     1      11.594  15.595  18.010  0.00  0.00    +0.000 C 
ATOM      7  C   UNL     1      12.247  14.965  16.770  0.00  0.00    +0.000 C 
ATOM      8  C   UNL     1      11.716  13.546  16.529  0.00  0.00    +0.000 C 
ATOM      9  C   UNL     1      11.910  12.684  17.772  0.00  0.00    +0.000 C 
ATOM     10  N   UNL     1      11.292  13.316  18.940  0.00  0.00    +0.000 N 
ATOM     11  C   UNL     1      10.328  12.760  19.787  0.00  0.00    +0.000 C 
ATOM     12  O   UNL     1      10.015  13.316  20.843  0.00  0.00    +0.000 OA
ATOM     13  C   UNL     1      11.787  14.664  19.225  0.00  0.00    +0.000 C 
BRANCH   6  15
ATOM     14  C   UNL     1       9.445  16.406  18.711  0.00  0.00    +0.000 C 
ATOM     15  O   UNL     1      10.220  15.828  17.673  0.00  0.00    +0.000 OA
ENDBRANCH   6  15
ENDBRANCH   1  11
BRANCH   3  16
ATOM     16  C   UNL     1       7.970   8.878  17.495  0.00  0.00    +0.000 C 
BRANCH  16  17
ATOM     17  O   UNL     1       8.188   7.625  18.127  0.00  0.00    +0.000 OA
BRANCH  17  18
ATOM     18  C   UNL     1       7.142   6.754  18.151  0.00  0.00    +0.000 A 
ATOM     19  C   UNL     1       6.220   6.947  17.124  0.00  0.00    +0.000 A 
ATOM     20  C   UNL     1       5.106   6.116  17.000  0.00  0.00    +0.000 A 
ATOM     21  C   UNL     1       4.918   5.071  17.911  0.00  0.00    +0.000 A 
ATOM     22  C   UNL     1       5.857   4.865  18.934  0.00  0.00    +0.000 A 
ATOM     23  C   UNL     1       6.971   5.707  19.052  0.00  0.00    +0.000 A 
BRANCH  21  24
ATOM     24  N   UNL     1       3.786   4.224  17.815  0.00  0.00    +0.000 N 
ATOM     25  C   UNL     1       2.455   4.569  17.796  0.00  0.00    +0.000 A 
ATOM     26  N   UNL     1       1.697   3.493  17.743  0.00  0.00    +0.000 NA
ATOM     27  C   UNL     1       2.618   2.490  17.720  0.00  0.00    +0.000 A 
ATOM     28  N   UNL     1       3.894   2.876  17.745  0.00  0.00    +0.000 NA
ENDBRANCH  21  24
ENDBRANCH  17  18
ENDBRANCH  16  17
ENDBRANCH   3  16
TORSDOF 6
ENDMDL
MODEL 4
REMARK VINA RESULT:      -7.4      6.405     10.408
REMARK  Name = 
REMARK  7 active torsions:
REMARK  status: ('A' for Active; 'I' for Inactive)
REMARK    1  A    between atoms: C_1  and  O_2
REMARK    2  A    between atoms: O_2  and  C_3
REMARK    3  A    between atoms: C_8  and  C_10
REMARK    4  A    between atoms: C_12  and  C_13
REMARK    5  A    between atoms: C_13  and  O_14
REMARK    6  A    between atoms: O_14  and  C_15
REMARK    7  A    between atoms: C_18  and  N_19
REMARK                            x       y       z     vdW  Elec       q    Type
REMARK                         _______ _______ _______ _____ _____    ______ ____
ROOT
ATOM      1  C   UNL     1       3.095   6.902  18.465  0.00  0.00    +0.000 A 
ATOM      2  C   UNL     1       2.134   7.604  19.243  0.00  0.00    +0.000 A 
ATOM      3  C   UNL     1       1.860   8.736  18.519  0.00  0.00    +0.000 A 
ATOM      4  O   UNL     1       2.637   8.750  17.405  0.00  0.00    +0.000 OA
ATOM      5  N   UNL     1       3.431   7.626  17.384  0.00  0.00    +0.000 NA
ENDROOT
BRANCH   1  11
ATOM      6  C   UNL     1       2.569   2.388  19.865  0.00  0.00    +0.000 C 
ATOM      7  C   UNL     1       1.393   2.722  20.797  0.00  0.00    +0.000 C 
ATOM      8  C   UNL     1       0.878   4.145  20.548  0.00  0.00    +0.000 C 
ATOM      9  C   UNL     1       2.014   5.156  20.681  0.00  0.00    +0.000 C 
ATOM     10  N   UNL     1       3.124   4.804  19.793  0.00  0.00    +0.000 N 
ATOM     11  C   UNL     1       3.705   5.612  18.811  0.00  0.00    +0.000 C 
ATOM     12  O   UNL     1       4.752   5.276  18.250  0.00  0.00    +0.000 OA
ATOM     13  C   UNL     1       3.666   3.462  20.013  0.00  0.00    +0.000 C 
BRANCH   6  15
ATOM     14  C   UNL     1       2.991   2.183  17.509  0.00  0.00    +0.000 C 
ATOM     15  O   UNL     1       2.024   2.296  18.541  0.00  0.00    +0.000 OA
ENDBRANCH   6  15
ENDBRANCH   1  11
BRANCH   3  16
ATOM     16  C   UNL     1       0.992   9.914  18.718  0.00  0.00    +0.000 C 
BRANCH  16  17
ATOM     17  O   UNL     1       0.018   9.819  17.688  0.00  0.00    +0.000 OA
BRANCH  17  18
ATOM     18  C   UNL     1      -1.193  10.392  17.928  0.00  0.00    +0.000 A 
ATOM     19  C   UNL     1      -2.237   9.846  17.181  0.00  0.00    +0.000 A 
ATOM     20  C   UNL     1      -3.543  10.312  17.335  0.00  0.00    +0.000 A 
ATOM     21  C   UNL     1      -3.811  11.330  18.256  0.00  0.00    +0.000 A 
ATOM     22  C   UNL     1      -2.763  11.867  19.021  0.00  0.00    +0.000 A 
ATOM     23  C   UNL     1      -1.454  11.395  18.857  0.00  0.00    +0.000 A 
BRANCH  21  24
ATOM     24  N   UNL     1      -5.127  11.830  18.417  0.00  0.00    +0.000 N 
ATOM     25  C   UNL     1      -5.756  12.237  19.570  0.00  0.00    +0.000 A 
ATOM     26  N   UNL     1      -6.999  12.596  19.319  0.00  0.00    +0.000 NA
ATOM     27  C   UNL     1      -7.091  12.401  17.974  0.00  0.00    +0.000 A 
ATOM     28  N   UNL     1      -5.986  11.955  17.377  0.00  0.00    +0.000 NA
ENDBRANCH  21  24
ENDBRANCH  17  18
ENDBRANCH  16  17
ENDBRANCH   3  16
TORSDOF 6
ENDMDL
MODEL 5
REMARK VINA RESULT:      -7.4      2.330     10.526
REMARK  Name = 
REMARK  7 active torsions:
REMARK  status: ('A' for Active; 'I' for Inactive)
REMARK    1  A    between atoms: C_1  and  O_2
REMARK    2  A    between atoms: O_2  and  C_3
REMARK    3  A    between atoms: C_8  and  C_10
REMARK    4  A    between atoms: C_12  and  C_13
REMARK    5  A    between atoms: C_13  and  O_14
REMARK    6  A    between atoms: O_14  and  C_15
REMARK    7  A    between atoms: C_18  and  N_19
REMARK                            x       y       z     vdW  Elec       q    Type
REMARK                         _______ _______ _______ _____ _____    ______ ____
ROOT
ATOM      1  C   UNL     1       4.783   6.133  18.068  0.00  0.00    +0.000 A 
ATOM      2  C   UNL     1       5.426   7.141  17.297  0.00  0.00    +0.000 A 
ATOM      3  C   UNL     1       6.746   7.069  17.663  0.00  0.00    +0.000 A 
ATOM      4  O   UNL     1       6.890   6.122  18.625  0.00  0.00    +0.000 OA
ATOM      5  N   UNL     1       5.665   5.560  18.904  0.00  0.00    +0.000 NA
ENDROOT
BRANCH   1  11
ATOM      6  C   UNL     1       1.325   2.918  18.622  0.00  0.00    +0.000 C 
ATOM      7  C   UNL     1       2.180   1.771  18.060  0.00  0.00    +0.000 C 
ATOM      8  C   UNL     1       3.650   2.190  17.935  0.00  0.00    +0.000 C 
ATOM      9  C   UNL     1       3.775   3.457  17.094  0.00  0.00    +0.000 C 
ATOM     10  N   UNL     1       2.939   4.526  17.644  0.00  0.00    +0.000 N 
ATOM     11  C   UNL     1       3.353   5.804  18.031  0.00  0.00    +0.000 C 
ATOM     12  O   UNL     1       2.530   6.681  18.308  0.00  0.00    +0.000 OA
ATOM     13  C   UNL     1       1.521   4.180  17.757  0.00  0.00    +0.000 C 
BRANCH   6  15
ATOM     14  C   UNL     1       1.151   4.215  20.636  0.00  0.00    +0.000 C 
ATOM     15  O   UNL     1       1.720   3.087  19.991  0.00  0.00    +0.000 OA
ENDBRANCH   6  15
ENDBRANCH   1  11
BRANCH   3  16
ATOM     16  C   UNL     1       7.970   7.811  17.297  0.00  0.00    +0.000 C 
BRANCH  16  17
ATOM     17  O   UNL     1       8.456   8.329  18.527  0.00  0.00    +0.000 OA
BRANCH  17  18
ATOM     18  C   UNL     1       8.707   9.666  18.579  0.00  0.00    +0.000 A 
ATOM     19  C   UNL     1       9.408  10.067  19.716  0.00  0.00    +0.000 A 
ATOM     20  C   UNL     1       9.762  11.404  19.900  0.00  0.00    +0.000 A 
ATOM     21  C   UNL     1       9.421  12.351  18.928  0.00  0.00    +0.000 A 
ATOM     22  C   UNL     1       8.732  11.943  17.775  0.00  0.00    +0.000 A 
ATOM     23  C   UNL     1       8.377  10.598  17.601  0.00  0.00    +0.000 A 
BRANCH  21  24
ATOM     24  N   UNL     1       9.756  13.716  19.101  0.00  0.00    +0.000 N 
ATOM     25  C   UNL     1       9.925  14.688  18.143  0.00  0.00    +0.000 A 
ATOM     26  N   UNL     1      10.280  15.829  18.696  0.00  0.00    +0.000 NA
ATOM     27  C   UNL     1      10.307  15.514  20.021  0.00  0.00    +0.000 A 
ATOM     28  N   UNL     1       9.983  14.256  20.323  0.00  0.00    +0.000 NA
ENDBRANCH  21  24
ENDBRANCH  17  18
ENDBRANCH  16  17
ENDBRANCH   3  16
TORSDOF 6
ENDMDL
MODEL 6
REMARK VINA RESULT:      -7.3      6.509     10.374
REMARK  Name = 
REMARK  7 active torsions:
REMARK  status: ('A' for Active; 'I' for Inactive)
REMARK    1  A    between atoms: C_1  and  O_2
REMARK    2  A    between atoms: O_2  and  C_3
REMARK    3  A    between atoms: C_8  and  C_10
REMARK    4  A    between atoms: C_12  and  C_13
REMARK    5  A    between atoms: C_13  and  O_14
REMARK    6  A    between atoms: O_14  and  C_15
REMARK    7  A    between atoms: C_18  and  N_19
REMARK                            x       y       z     vdW  Elec       q    Type
REMARK                         _______ _______ _______ _____ _____    ______ ____
ROOT
ATOM      1  C   UNL     1       2.962   6.798  19.172  0.00  0.00    +0.000 A 
ATOM      2  C   UNL     1       2.093   7.484  20.065  0.00  0.00    +0.000 A 
ATOM      3  C   UNL     1       1.655   8.573  19.355  0.00  0.00    +0.000 A 
ATOM      4  O   UNL     1       2.253   8.581  18.137  0.00  0.00    +0.000 OA
ATOM      5  N   UNL     1       3.093   7.495  18.031  0.00  0.00    +0.000 NA
ENDROOT
BRANCH   1  11
ATOM      6  C   UNL     1       3.185   2.057  18.890  0.00  0.00    +0.000 C 
ATOM      7  C   UNL     1       1.670   1.886  19.081  0.00  0.00    +0.000 C 
ATOM      8  C   UNL     1       0.943   3.231  18.954  0.00  0.00    +0.000 C 
ATOM      9  C   UNL     1       1.527   4.249  19.928  0.00  0.00    +0.000 C 
ATOM     10  N   UNL     1       2.973   4.380  19.733  0.00  0.00    +0.000 N 
ATOM     11  C   UNL     1       3.683   5.553  19.461  0.00  0.00    +0.000 C 
ATOM     12  O   UNL     1       4.916   5.571  19.498  0.00  0.00    +0.000 OA
ATOM     13  C   UNL     1       3.713   3.124  19.872  0.00  0.00    +0.000 C 
BRANCH   6  15
ATOM     14  C   UNL     1       4.654   2.956  17.215  0.00  0.00    +0.000 C 
ATOM     15  O   UNL     1       3.385   2.392  17.510  0.00  0.00    +0.000 OA
ENDBRANCH   6  15
ENDBRANCH   1  11
BRANCH   3  16
ATOM     16  C   UNL     1       0.766   9.717  19.647  0.00  0.00    +0.000 C 
BRANCH  16  17
ATOM     17  O   UNL     1       0.217  10.074  18.387  0.00  0.00    +0.000 OA
BRANCH  17  18
ATOM     18  C   UNL     1      -1.055  10.559  18.381  0.00  0.00    +0.000 A 
ATOM     19  C   UNL     1      -1.899   9.928  17.468  0.00  0.00    +0.000 A 
ATOM     20  C   UNL     1      -3.240  10.298  17.364  0.00  0.00    +0.000 A 
ATOM     21  C   UNL     1      -3.747  11.305  18.192  0.00  0.00    +0.000 A 
ATOM     22  C   UNL     1      -2.902  11.927  19.124  0.00  0.00    +0.000 A 
ATOM     23  C   UNL     1      -1.555  11.551  19.219  0.00  0.00    +0.000 A 
BRANCH  21  24
ATOM     24  N   UNL     1      -5.102  11.708  18.092  0.00  0.00    +0.000 N 
ATOM     25  C   UNL     1      -5.744  12.305  17.033  0.00  0.00    +0.000 A 
ATOM     26  N   UNL     1      -6.998  12.570  17.340  0.00  0.00    +0.000 NA
ATOM     27  C   UNL     1      -7.089  12.102  18.616  0.00  0.00    +0.000 A 
ATOM     28  N   UNL     1      -5.979  11.557  19.113  0.00  0.00    +0.000 NA
ENDBRANCH  21  24
ENDBRANCH  17  18
ENDBRANCH  16  17
ENDBRANCH   3  16
TORSDOF 6
ENDMDL
MODEL 7
REMARK VINA RESULT:      -7.3      5.668      8.883
REMARK  Name = 
REMARK  7 active torsions:
REMARK  status: ('A' for Active; 'I' for Inactive)
REMARK    1  A    between atoms: C_1  and  O_2
REMARK    2  A    between atoms: O_2  and  C_3
REMARK    3  A    between atoms: C_8  and  C_10
REMARK    4  A    between atoms: C_12  and  C_13
REMARK    5  A    between atoms: C_13  and  O_14
REMARK    6  A    between atoms: O_14  and  C_15
REMARK    7  A    between atoms: C_18  and  N_19
REMARK                            x       y       z     vdW  Elec       q    Type
REMARK                         _______ _______ _______ _____ _____    ______ ____
ROOT
ATOM      1  C   UNL     1       4.179   5.091  19.667  0.00  0.00    +0.000 A 
ATOM      2  C   UNL     1       3.495   6.337  19.698  0.00  0.00    +0.000 A 
ATOM      3  C   UNL     1       2.288   6.055  20.286  0.00  0.00    +0.000 A 
ATOM      4  O   UNL     1       2.219   4.725  20.546  0.00  0.00    +0.000 OA
ATOM      5  N   UNL     1       3.381   4.115  20.132  0.00  0.00    +0.000 NA
ENDROOT
BRANCH   1  11
ATOM      6  C   UNL     1       7.177   5.195  15.977  0.00  0.00    +0.000 C 
ATOM      7  C   UNL     1       6.097   4.759  14.974  0.00  0.00    +0.000 C 
ATOM      8  C   UNL     1       4.700   4.829  15.603  0.00  0.00    +0.000 C 
ATOM      9  C   UNL     1       4.649   4.006  16.887  0.00  0.00    +0.000 C 
ATOM     10  N   UNL     1       5.698   4.433  17.816  0.00  0.00    +0.000 N 
ATOM     11  C   UNL     1       5.528   4.864  19.135  0.00  0.00    +0.000 C 
ATOM     12  O   UNL     1       6.499   5.024  19.879  0.00  0.00    +0.000 OA
ATOM     13  C   UNL     1       7.052   4.357  17.266  0.00  0.00    +0.000 C 
BRANCH   6  15
ATOM     14  C   UNL     1       7.663   7.126  17.321  0.00  0.00    +0.000 C 
ATOM     15  O   UNL     1       6.996   6.603  16.182  0.00  0.00    +0.000 OA
ENDBRANCH   6  15
ENDBRANCH   1  11
BRANCH   3  16
ATOM     16  C   UNL     1       1.083   6.843  20.617  0.00  0.00    +0.000 C 
BRANCH  16  17
ATOM     17  O   UNL     1       1.439   8.185  20.316  0.00  0.00    +0.000 OA
BRANCH  17  18
ATOM     18  C   UNL     1       0.653   9.166  20.840  0.00  0.00    +0.000 A 
ATOM     19  C   UNL     1       0.414   9.032  22.207  0.00  0.00    +0.000 A 
ATOM     20  C   UNL     1      -0.353   9.974  22.892  0.00  0.00    +0.000 A 
ATOM     21  C   UNL     1      -0.880  11.071  22.202  0.00  0.00    +0.000 A 
ATOM     22  C   UNL     1      -0.623  11.216  20.830  0.00  0.00    +0.000 A 
ATOM     23  C   UNL     1       0.146  10.262  20.150  0.00  0.00    +0.000 A 
BRANCH  21  24
ATOM     24  N   UNL     1      -1.676  12.032  22.874  0.00  0.00    +0.000 N 
ATOM     25  C   UNL     1      -1.339  13.308  23.260  0.00  0.00    +0.000 A 
ATOM     26  N   UNL     1      -2.338  13.877  23.903  0.00  0.00    +0.000 NA
ATOM     27  C   UNL     1      -3.290  12.904  23.881  0.00  0.00    +0.000 A 
ATOM     28  N   UNL     1      -2.949  11.775  23.259  0.00  0.00    +0.000 NA
ENDBRANCH  21  24
ENDBRANCH  17  18
ENDBRANCH  16  17
ENDBRANCH   3  16
TORSDOF 6
ENDMDL
MODEL 8
REMARK VINA RESULT:      -7.3      6.181      8.700
REMARK  Name = 
REMARK  7 active torsions:
REMARK  status: ('A' for Active; 'I' for Inactive)
REMARK    1  A    between atoms: C_1  and  O_2
REMARK    2  A    between atoms: O_2  and  C_3
REMARK    3  A    between atoms: C_8  and  C_10
REMARK    4  A    between atoms: C_12  and  C_13
REMARK    5  A    between atoms: C_13  and  O_14
REMARK    6  A    between atoms: O_14  and  C_15
REMARK    7  A    between atoms: C_18  and  N_19
REMARK                            x       y       z     vdW  Elec       q    Type
REMARK                         _______ _______ _______ _____ _____    ______ ____
ROOT
ATOM      1  C   UNL     1       1.140   9.118  20.029  0.00  0.00    +0.000 A 
ATOM      2  C   UNL     1       1.974   8.287  19.231  0.00  0.00    +0.000 A 
ATOM      3  C   UNL     1       1.982   7.078  19.879  0.00  0.00    +0.000 A 
ATOM      4  O   UNL     1       1.250   7.178  21.017  0.00  0.00    +0.000 OA
ATOM      5  N   UNL     1       0.751   8.455  21.132  0.00  0.00    +0.000 NA
ENDROOT
BRANCH   1  11
ATOM      6  C   UNL     1      -2.088  12.356  18.725  0.00  0.00    +0.000 C 
ATOM      7  C   UNL     1      -2.763  11.408  17.721  0.00  0.00    +0.000 C 
ATOM      8  C   UNL     1      -2.267   9.968  17.904  0.00  0.00    +0.000 C 
ATOM      9  C   UNL     1      -0.746   9.909  17.806  0.00  0.00    +0.000 C 
ATOM     10  N   UNL     1      -0.131  10.833  18.762  0.00  0.00    +0.000 N 
ATOM     11  C   UNL     1       0.805  10.519  19.752  0.00  0.00    +0.000 C 
ATOM     12  O   UNL     1       1.389  11.409  20.378  0.00  0.00    +0.000 OA
ATOM     13  C   UNL     1      -0.555  12.225  18.608  0.00  0.00    +0.000 C 
BRANCH   6  15
ATOM     14  C   UNL     1      -2.417  13.005  21.014  0.00  0.00    +0.000 C 
ATOM     15  O   UNL     1      -2.601  12.010  20.019  0.00  0.00    +0.000 OA
ENDBRANCH   6  15
ENDBRANCH   1  11
BRANCH   3  16
ATOM     16  C   UNL     1       2.640   5.776  19.644  0.00  0.00    +0.000 C 
BRANCH  16  17
ATOM     17  O   UNL     1       3.989   6.106  19.344  0.00  0.00    +0.000 OA
BRANCH  17  18
ATOM     18  C   UNL     1       4.488   5.656  18.160  0.00  0.00    +0.000 A 
ATOM     19  C   UNL     1       4.842   6.669  17.271  0.00  0.00    +0.000 A 
ATOM     20  C   UNL     1       5.391   6.365  16.026  0.00  0.00    +0.000 A 
ATOM     21  C   UNL     1       5.600   5.029  15.669  0.00  0.00    +0.000 A 
ATOM     22  C   UNL     1       5.261   4.009  16.572  0.00  0.00    +0.000 A 
ATOM     23  C   UNL     1       4.706   4.324  17.820  0.00  0.00    +0.000 A 
BRANCH  21  24
ATOM     24  N   UNL     1       6.142   4.695  14.403  0.00  0.00    +0.000 N 
ATOM     25  C   UNL     1       5.710   3.746  13.506  0.00  0.00    +0.000 A 
ATOM     26  N   UNL     1       6.505   3.704  12.457  0.00  0.00    +0.000 NA
ATOM     27  C   UNL     1       7.422   4.667  12.747  0.00  0.00    +0.000 A 
ATOM     28  N   UNL     1       7.242   5.308  13.902  0.00  0.00    +0.000 NA
ENDBRANCH  21  24
ENDBRANCH  17  18
ENDBRANCH  16  17
ENDBRANCH   3  16
TORSDOF 6
ENDMDL
MODEL 9
REMARK VINA RESULT:      -7.3      2.453     10.534
REMARK  Name = 
REMARK  7 active torsions:
REMARK  status: ('A' for Active; 'I' for Inactive)
REMARK    1  A    between atoms: C_1  and  O_2
REMARK    2  A    between atoms: O_2  and  C_3
REMARK    3  A    between atoms: C_8  and  C_10
REMARK    4  A    between atoms: C_12  and  C_13
REMARK    5  A    between atoms: C_13  and  O_14
REMARK    6  A    between atoms: O_14  and  C_15
REMARK    7  A    between atoms: C_18  and  N_19
REMARK                            x       y       z     vdW  Elec       q    Type
REMARK                         _______ _______ _______ _____ _____    ______ ____
ROOT
ATOM      1  C   UNL     1       5.582   5.515  18.445  0.00  0.00    +0.000 A 
ATOM      2  C   UNL     1       6.905   6.021  18.575  0.00  0.00    +0.000 A 
ATOM      3  C   UNL     1       6.922   7.152  17.798  0.00  0.00    +0.000 A 
ATOM      4  O   UNL     1       5.715   7.296  17.196  0.00  0.00    +0.000 OA
ATOM      5  N   UNL     1       4.888   6.262  17.569  0.00  0.00    +0.000 NA
ENDROOT
BRANCH   1  11
ATOM      6  C   UNL     1       1.832   2.940  19.827  0.00  0.00    +0.000 C 
ATOM      7  C   UNL     1       0.997   4.182  20.179  0.00  0.00    +0.000 C 
ATOM      8  C   UNL     1       1.656   5.459  19.643  0.00  0.00    +0.000 C 
ATOM      9  C   UNL     1       3.090   5.575  20.152  0.00  0.00    +0.000 C 
ATOM     10  N   UNL     1       3.856   4.372  19.815  0.00  0.00    +0.000 N 
ATOM     11  C   UNL     1       5.054   4.311  19.097  0.00  0.00    +0.000 C 
ATOM     12  O   UNL     1       5.702   3.263  19.033  0.00  0.00    +0.000 OA
ATOM     13  C   UNL     1       3.278   3.130  20.330  0.00  0.00    +0.000 C 
BRANCH   6  15
ATOM     14  C   UNL     1       2.626   1.817  17.858  0.00  0.00    +0.000 C 
ATOM     15  O   UNL     1       1.731   2.772  18.406  0.00  0.00    +0.000 OA
ENDBRANCH   6  15
ENDBRANCH   1  11
BRANCH   3  16
ATOM     16  C   UNL     1       7.947   8.156  17.446  0.00  0.00    +0.000 C 
BRANCH  16  17
ATOM     17  O   UNL     1       8.529   8.524  18.688  0.00  0.00    +0.000 OA
BRANCH  17  18
ATOM     18  C   UNL     1       8.921   9.821  18.828  0.00  0.00    +0.000 A 
ATOM     19  C   UNL     1       8.515  10.651  17.784  0.00  0.00    +0.000 A 
ATOM     20  C   UNL     1       8.819  12.013  17.797  0.00  0.00    +0.000 A 
ATOM     21  C   UNL     1       9.529  12.553  18.875  0.00  0.00    +0.000 A 
ATOM     22  C   UNL     1       9.920  11.720  19.935  0.00  0.00    +0.000 A 
ATOM     23  C   UNL     1       9.613  10.353  19.911  0.00  0.00    +0.000 A 
BRANCH  21  24
ATOM     24  N   UNL     1       9.862  13.930  18.902  0.00  0.00    +0.000 N 
ATOM     25  C   UNL     1       9.669  14.841  19.913  0.00  0.00    +0.000 A 
ATOM     26  N   UNL     1      10.072  16.039  19.542  0.00  0.00    +0.000 NA
ATOM     27  C   UNL     1      10.523  15.815  18.277  0.00  0.00    +0.000 A 
ATOM     28  N   UNL     1      10.436  14.556  17.846  0.00  0.00    +0.000 NA
ENDBRANCH  21  24
ENDBRANCH  17  18
ENDBRANCH  16  17
ENDBRANCH   3  16
TORSDOF 6
ENDMDL
