MODEL 1
REMARK VINA RESULT:      -7.6      0.000      0.000
REMARK  Name = 
REMARK  1 active torsions:
REMARK  status: ('A' for Active; 'I' for Inactive)
REMARK    1  A    between atoms: C_5  and  N_6
REMARK                            x       y       z     vdW  Elec       q    Type
REMARK                         _______ _______ _______ _____ _____    ______ ____
ROOT
ATOM      1  N   UNL     1       2.343   6.752  19.958  0.00  0.00    +0.000 N 
ATOM      2  C   UNL     1       1.797   5.497  20.433  0.00  0.00    +0.000 C 
ATOM      3  O   UNL     1       1.548   4.589  19.364  0.00  0.00    +0.000 OA
ATOM      4  C   UNL     1       2.604   4.459  18.498  0.00  0.00    +0.000 A 
ATOM      5  C   UNL     1       2.560   3.349  17.662  0.00  0.00    +0.000 A 
ATOM      6  C   UNL     1       3.579   3.133  16.738  0.00  0.00    +0.000 A 
ATOM      7  C   UNL     1       4.662   4.017  16.647  0.00  0.00    +0.000 A 
ATOM      8  C   UNL     1       5.687   3.778  15.714  0.00  0.00    +0.000 A 
ATOM      9  C   UNL     1       6.779   4.636  15.613  0.00  0.00    +0.000 A 
ATOM     10  C   UNL     1       6.858   5.750  16.438  0.00  0.00    +0.000 A 
ATOM     11  C   UNL     1       5.841   6.006  17.362  0.00  0.00    +0.000 A 
ATOM     12  C   UNL     1       4.719   5.157  17.490  0.00  0.00    +0.000 A 
ATOM     13  C   UNL     1       3.653   5.386  18.408  0.00  0.00    +0.000 A 
ATOM     14  C   UNL     1       3.622   6.626  19.274  0.00  0.00    +0.000 C 
ENDROOT
BRANCH   1  19
ATOM     15 BR   UNL     1      -0.798  11.973  20.216  0.00  0.00    +0.000 Br
ATOM     16  C   UNL     1       0.195  10.369  20.145  0.00  0.00    +0.000 A 
ATOM     17  C   UNL     1       0.253   9.536  21.255  0.00  0.00    +0.000 A 
ATOM     18  C   UNL     1       0.980   8.340  21.189  0.00  0.00    +0.000 A 
ATOM     19  C   UNL     1       1.657   7.946  20.022  0.00  0.00    +0.000 A 
ATOM     20  C   UNL     1       1.589   8.823  18.927  0.00  0.00    +0.000 A 
ATOM     21  C   UNL     1       0.865  10.020  18.981  0.00  0.00    +0.000 A 
ENDBRANCH   1  19
TORSDOF 1
ENDMDL
MODEL 2
REMARK VINA RESULT:      -7.6      0.077      1.049
REMARK  Name = 
REMARK  1 active torsions:
REMARK  status: ('A' for Active; 'I' for Inactive)
REMARK    1  A    between atoms: C_5  and  N_6
REMARK                            x       y       z     vdW  Elec       q    Type
REMARK                         _______ _______ _______ _____ _____    ______ ____
ROOT
ATOM      1  N   UNL     1       2.368   6.732  19.938  0.00  0.00    +0.000 N 
ATOM      2  C   UNL     1       1.824   5.475  20.410  0.00  0.00    +0.000 C 
ATOM      3  O   UNL     1       1.576   4.569  19.337  0.00  0.00    +0.000 OA
ATOM      4  C   UNL     1       2.633   4.443  18.472  0.00  0.00    +0.000 A 
ATOM      5  C   UNL     1       2.592   3.335  17.633  0.00  0.00    +0.000 A 
ATOM      6  C   UNL     1       3.612   3.124  16.709  0.00  0.00    +0.000 A 
ATOM      7  C   UNL     1       4.693   4.010  16.621  0.00  0.00    +0.000 A 
ATOM      8  C   UNL     1       5.719   3.775  15.689  0.00  0.00    +0.000 A 
ATOM      9  C   UNL     1       6.810   4.635  15.591  0.00  0.00    +0.000 A 
ATOM     10  C   UNL     1       6.887   5.747  16.419  0.00  0.00    +0.000 A 
ATOM     11  C   UNL     1       5.868   5.999  17.343  0.00  0.00    +0.000 A 
ATOM     12  C   UNL     1       4.748   5.147  17.467  0.00  0.00    +0.000 A 
ATOM     13  C   UNL     1       3.681   5.372  18.386  0.00  0.00    +0.000 A 
ATOM     14  C   UNL     1       3.647   6.610  19.255  0.00  0.00    +0.000 C 
ENDROOT
BRANCH   1  19
ATOM     15 BR   UNL     1      -0.569  12.067  20.261  0.00  0.00    +0.000 Br
ATOM     16  C   UNL     1       0.319  10.404  20.153  0.00  0.00    +0.000 A 
ATOM     17  C   UNL     1       0.947  10.026  18.973  0.00  0.00    +0.000 A 
ATOM     18  C   UNL     1       1.616   8.797  18.906  0.00  0.00    +0.000 A 
ATOM     19  C   UNL     1       1.680   7.925  20.006  0.00  0.00    +0.000 A 
ATOM     20  C   UNL     1       1.019   8.335  21.174  0.00  0.00    +0.000 A 
ATOM     21  C   UNL     1       0.347   9.561  21.255  0.00  0.00    +0.000 A 
ENDBRANCH   1  19
TORSDOF 1
ENDMDL
MODEL 3
REMARK VINA RESULT:      -7.4      3.433      7.507
REMARK  Name = 
REMARK  1 active torsions:
REMARK  status: ('A' for Active; 'I' for Inactive)
REMARK    1  A    between atoms: C_5  and  N_6
REMARK                            x       y       z     vdW  Elec       q    Type
REMARK                         _______ _______ _______ _____ _____    ______ ____
ROOT
ATOM      1  N   UNL     1       2.598   7.458  18.931  0.00  0.00    +0.000 N 
ATOM      2  C   UNL     1       2.774   8.390  17.836  0.00  0.00    +0.000 C 
ATOM      3  O   UNL     1       1.546   9.015  17.471  0.00  0.00    +0.000 OA
ATOM      4  C   UNL     1       0.848   9.517  18.540  0.00  0.00    +0.000 A 
ATOM      5  C   UNL     1      -0.153  10.431  18.227  0.00  0.00    +0.000 A 
ATOM      6  C   UNL     1      -0.928  10.989  19.240  0.00  0.00    +0.000 A 
ATOM      7  C   UNL     1      -0.704  10.650  20.580  0.00  0.00    +0.000 A 
ATOM      8  C   UNL     1      -1.490  11.232  21.592  0.00  0.00    +0.000 A 
ATOM      9  C   UNL     1      -1.278  10.921  22.932  0.00  0.00    +0.000 A 
ATOM     10  C   UNL     1      -0.283  10.018  23.281  0.00  0.00    +0.000 A 
ATOM     11  C   UNL     1       0.498   9.424  22.286  0.00  0.00    +0.000 A 
ATOM     12  C   UNL     1       0.310   9.717  20.916  0.00  0.00    +0.000 A 
ATOM     13  C   UNL     1       1.074   9.126  19.868  0.00  0.00    +0.000 A 
ATOM     14  C   UNL     1       2.112   8.066  20.161  0.00  0.00    +0.000 C 
ENDROOT
BRANCH   1  19
ATOM     15 BR   UNL     1       3.333   1.445  18.223  0.00  0.00    +0.000 Br
ATOM     16  C   UNL     1       3.091   3.302  18.463  0.00  0.00    +0.000 A 
ATOM     17  C   UNL     1       3.971   4.021  19.261  0.00  0.00    +0.000 A 
ATOM     18  C   UNL     1       3.793   5.401  19.422  0.00  0.00    +0.000 A 
ATOM     19  C   UNL     1       2.745   6.094  18.792  0.00  0.00    +0.000 A 
ATOM     20  C   UNL     1       1.867   5.329  18.007  0.00  0.00    +0.000 A 
ATOM     21  C   UNL     1       2.034   3.949  17.838  0.00  0.00    +0.000 A 
ENDBRANCH   1  19
TORSDOF 1
ENDMDL
MODEL 4
REMARK VINA RESULT:      -7.4      3.416      7.806
REMARK  Name = 
REMARK  1 active torsions:
REMARK  status: ('A' for Active; 'I' for Inactive)
REMARK    1  A    between atoms: C_5  and  N_6
REMARK                            x       y       z     vdW  Elec       q    Type
REMARK                         _______ _______ _______ _____ _____    ______ ____
ROOT
ATOM      1  N   UNL     1       2.056   7.860  19.340  0.00  0.00    +0.000 N 
ATOM      2  C   UNL     1       2.414   8.721  18.232  0.00  0.00    +0.000 C 
ATOM      3  O   UNL     1       1.283   9.417  17.714  0.00  0.00    +0.000 OA
ATOM      4  C   UNL     1       0.523  10.022  18.682  0.00  0.00    +0.000 A 
ATOM      5  C   UNL     1      -0.365  10.991  18.228  0.00  0.00    +0.000 A 
ATOM      6  C   UNL     1      -1.192  11.656  19.131  0.00  0.00    +0.000 A 
ATOM      7  C   UNL     1      -1.132  11.369  20.501  0.00  0.00    +0.000 A 
ATOM      8  C   UNL     1      -1.967  12.057  21.399  0.00  0.00    +0.000 A 
ATOM      9  C   UNL     1      -1.917  11.798  22.766  0.00  0.00    +0.000 A 
ATOM     10  C   UNL     1      -1.036  10.842  23.255  0.00  0.00    +0.000 A 
ATOM     11  C   UNL     1      -0.209  10.143  22.372  0.00  0.00    +0.000 A 
ATOM     12  C   UNL     1      -0.234  10.380  20.979  0.00  0.00    +0.000 A 
ATOM     13  C   UNL     1       0.583   9.682  20.042  0.00  0.00    +0.000 A 
ATOM     14  C   UNL     1       1.498   8.564  20.486  0.00  0.00    +0.000 C 
ENDROOT
BRANCH   1  19
ATOM     15 BR   UNL     1       2.169   1.772  19.005  0.00  0.00    +0.000 Br
ATOM     16  C   UNL     1       2.159   3.657  19.114  0.00  0.00    +0.000 A 
ATOM     17  C   UNL     1       2.442   4.421  17.990  0.00  0.00    +0.000 A 
ATOM     18  C   UNL     1       2.417   5.819  18.076  0.00  0.00    +0.000 A 
ATOM     19  C   UNL     1       2.108   6.484  19.275  0.00  0.00    +0.000 A 
ATOM     20  C   UNL     1       1.844   5.678  20.393  0.00  0.00    +0.000 A 
ATOM     21  C   UNL     1       1.865   4.279  20.320  0.00  0.00    +0.000 A 
ENDBRANCH   1  19
TORSDOF 1
ENDMDL
MODEL 5
REMARK VINA RESULT:      -7.4      3.382      7.502
REMARK  Name = 
REMARK  1 active torsions:
REMARK  status: ('A' for Active; 'I' for Inactive)
REMARK    1  A    between atoms: C_5  and  N_6
REMARK                            x       y       z     vdW  Elec       q    Type
REMARK                         _______ _______ _______ _____ _____    ______ ____
ROOT
ATOM      1  N   UNL     1       2.676   7.449  18.882  0.00  0.00    +0.000 N 
ATOM      2  C   UNL     1       2.806   8.408  17.804  0.00  0.00    +0.000 C 
ATOM      3  O   UNL     1       1.558   9.014  17.481  0.00  0.00    +0.000 OA
ATOM      4  C   UNL     1       0.875   9.478  18.576  0.00  0.00    +0.000 A 
ATOM      5  C   UNL     1      -0.151  10.377  18.305  0.00  0.00    +0.000 A 
ATOM      6  C   UNL     1      -0.914  10.898  19.348  0.00  0.00    +0.000 A 
ATOM      7  C   UNL     1      -0.651  10.536  20.675  0.00  0.00    +0.000 A 
ATOM      8  C   UNL     1      -1.424  11.079  21.717  0.00  0.00    +0.000 A 
ATOM      9  C   UNL     1      -1.175  10.745  23.045  0.00  0.00    +0.000 A 
ATOM     10  C   UNL     1      -0.153   9.857  23.351  0.00  0.00    +0.000 A 
ATOM     11  C   UNL     1       0.617   9.300  22.326  0.00  0.00    +0.000 A 
ATOM     12  C   UNL     1       0.390   9.617  20.968  0.00  0.00    +0.000 A 
ATOM     13  C   UNL     1       1.141   9.065  19.889  0.00  0.00    +0.000 A 
ATOM     14  C   UNL     1       2.207   8.021  20.136  0.00  0.00    +0.000 C 
ENDROOT
BRANCH   1  19
ATOM     15 BR   UNL     1       3.363   1.425  18.220  0.00  0.00    +0.000 Br
ATOM     16  C   UNL     1       3.163   3.294  18.403  0.00  0.00    +0.000 A 
ATOM     17  C   UNL     1       2.061   3.934  17.850  0.00  0.00    +0.000 A 
ATOM     18  C   UNL     1       1.912   5.318  18.004  0.00  0.00    +0.000 A 
ATOM     19  C   UNL     1       2.849   6.092  18.710  0.00  0.00    +0.000 A 
ATOM     20  C   UNL     1       3.957   5.412  19.240  0.00  0.00    +0.000 A 
ATOM     21  C   UNL     1       4.117   4.029  19.094  0.00  0.00    +0.000 A 
ENDBRANCH   1  19
TORSDOF 1
ENDMDL
MODEL 6
REMARK VINA RESULT:      -7.4      3.424      7.746
REMARK  Name = 
REMARK  1 active torsions:
REMARK  status: ('A' for Active; 'I' for Inactive)
REMARK    1  A    between atoms: C_5  and  N_6
REMARK                            x       y       z     vdW  Elec       q    Type
REMARK                         _______ _______ _______ _____ _____    ______ ____
ROOT
ATOM      1  N   UNL     1       2.065   7.881  19.316  0.00  0.00    +0.000 N 
ATOM      2  C   UNL     1       2.415   8.758  18.217  0.00  0.00    +0.000 C 
ATOM      3  O   UNL     1       1.278   9.453  17.712  0.00  0.00    +0.000 OA
ATOM      4  C   UNL     1       0.517  10.041  18.689  0.00  0.00    +0.000 A 
ATOM      5  C   UNL     1      -0.378  11.011  18.250  0.00  0.00    +0.000 A 
ATOM      6  C   UNL     1      -1.206  11.659  19.163  0.00  0.00    +0.000 A 
ATOM      7  C   UNL     1      -1.140  11.356  20.529  0.00  0.00    +0.000 A 
ATOM      8  C   UNL     1      -1.977  12.027  21.438  0.00  0.00    +0.000 A 
ATOM      9  C   UNL     1      -1.921  11.752  22.802  0.00  0.00    +0.000 A 
ATOM     10  C   UNL     1      -1.033  10.796  23.276  0.00  0.00    +0.000 A 
ATOM     11  C   UNL     1      -0.204  10.112  22.382  0.00  0.00    +0.000 A 
ATOM     12  C   UNL     1      -0.235  10.366  20.993  0.00  0.00    +0.000 A 
ATOM     13  C   UNL     1       0.583   9.685  20.045  0.00  0.00    +0.000 A 
ATOM     14  C   UNL     1       1.507   8.567  20.472  0.00  0.00    +0.000 C 
ENDROOT
BRANCH   1  19
ATOM     15 BR   UNL     1       2.451   1.804  18.985  0.00  0.00    +0.000 Br
ATOM     16  C   UNL     1       2.306   3.684  19.084  0.00  0.00    +0.000 A 
ATOM     17  C   UNL     1       2.049   4.299  20.302  0.00  0.00    +0.000 A 
ATOM     18  C   UNL     1       1.958   5.696  20.369  0.00  0.00    +0.000 A 
ATOM     19  C   UNL     1       2.125   6.506  19.233  0.00  0.00    +0.000 A 
ATOM     20  C   UNL     1       2.367   5.846  18.018  0.00  0.00    +0.000 A 
ATOM     21  C   UNL     1       2.460   4.451  17.938  0.00  0.00    +0.000 A 
ENDBRANCH   1  19
TORSDOF 1
ENDMDL
MODEL 7
REMARK VINA RESULT:      -7.2      2.385      3.515
REMARK  Name = 
REMARK  1 active torsions:
REMARK  status: ('A' for Active; 'I' for Inactive)
REMARK    1  A    between atoms: C_5  and  N_6
REMARK                            x       y       z     vdW  Elec       q    Type
REMARK                         _______ _______ _______ _____ _____    ______ ____
ROOT
ATOM      1  N   UNL     1       0.553   9.572  19.359  0.00  0.00    +0.000 N 
ATOM      2  C   UNL     1       0.692   9.342  20.782  0.00  0.00    +0.000 C 
ATOM      3  O   UNL     1       0.783   7.953  21.088  0.00  0.00    +0.000 OA
ATOM      4  C   UNL     1       1.691   7.280  20.311  0.00  0.00    +0.000 A 
ATOM      5  C   UNL     1       2.080   6.032  20.788  0.00  0.00    +0.000 A 
ATOM      6  C   UNL     1       2.989   5.264  20.066  0.00  0.00    +0.000 A 
ATOM      7  C   UNL     1       3.532   5.738  18.865  0.00  0.00    +0.000 A 
ATOM      8  C   UNL     1       4.457   4.952  18.154  0.00  0.00    +0.000 A 
ATOM      9  C   UNL     1       5.019   5.407  16.964  0.00  0.00    +0.000 A 
ATOM     10  C   UNL     1       4.660   6.651  16.464  0.00  0.00    +0.000 A 
ATOM     11  C   UNL     1       3.733   7.438  17.154  0.00  0.00    +0.000 A 
ATOM     12  C   UNL     1       3.143   7.007  18.363  0.00  0.00    +0.000 A 
ATOM     13  C   UNL     1       2.185   7.770  19.093  0.00  0.00    +0.000 A 
ATOM     14  C   UNL     1       1.674   9.092  18.565  0.00  0.00    +0.000 C 
ENDROOT
BRANCH   1  19
ATOM     15 BR   UNL     1      -4.588  11.731  16.888  0.00  0.00    +0.000 Br
ATOM     16  C   UNL     1      -2.982  11.081  17.641  0.00  0.00    +0.000 A 
ATOM     17  C   UNL     1      -2.527  11.586  18.852  0.00  0.00    +0.000 A 
ATOM     18  C   UNL     1      -1.343  11.088  19.411  0.00  0.00    +0.000 A 
ATOM     19  C   UNL     1      -0.593  10.078  18.784  0.00  0.00    +0.000 A 
ATOM     20  C   UNL     1      -1.077   9.605  17.554  0.00  0.00    +0.000 A 
ATOM     21  C   UNL     1      -2.259  10.095  16.985  0.00  0.00    +0.000 A 
ENDBRANCH   1  19
TORSDOF 1
ENDMDL
MODEL 8
REMARK VINA RESULT:      -7.1      4.033      7.128
REMARK  Name = 
REMARK  1 active torsions:
REMARK  status: ('A' for Active; 'I' for Inactive)
REMARK    1  A    between atoms: C_5  and  N_6
REMARK                            x       y       z     vdW  Elec       q    Type
REMARK                         _______ _______ _______ _____ _____    ______ ____
ROOT
ATOM      1  N   UNL     1       5.697   5.441  16.890  0.00  0.00    +0.000 N 
ATOM      2  C   UNL     1       5.600   6.848  17.221  0.00  0.00    +0.000 C 
ATOM      3  O   UNL     1       4.267   7.223  17.559  0.00  0.00    +0.000 OA
ATOM      4  C   UNL     1       3.676   6.382  18.467  0.00  0.00    +0.000 A 
ATOM      5  C   UNL     1       2.539   6.881  19.094  0.00  0.00    +0.000 A 
ATOM      6  C   UNL     1       1.857   6.101  20.024  0.00  0.00    +0.000 A 
ATOM      7  C   UNL     1       2.311   4.816  20.349  0.00  0.00    +0.000 A 
ATOM      8  C   UNL     1       1.616   4.045  21.298  0.00  0.00    +0.000 A 
ATOM      9  C   UNL     1       2.053   2.770  21.646  0.00  0.00    +0.000 A 
ATOM     10  C   UNL     1       3.190   2.244  21.045  0.00  0.00    +0.000 A 
ATOM     11  C   UNL     1       3.884   2.994  20.092  0.00  0.00    +0.000 A 
ATOM     12  C   UNL     1       3.467   4.290  19.715  0.00  0.00    +0.000 A 
ATOM     13  C   UNL     1       4.137   5.086  18.740  0.00  0.00    +0.000 A 
ATOM     14  C   UNL     1       5.324   4.546  17.975  0.00  0.00    +0.000 C 
ENDROOT
BRANCH   1  19
ATOM     15 BR   UNL     1       7.007   3.305  11.330  0.00  0.00    +0.000 Br
ATOM     16  C   UNL     1       6.590   3.987  13.041  0.00  0.00    +0.000 A 
ATOM     17  C   UNL     1       5.381   3.662  13.644  0.00  0.00    +0.000 A 
ATOM     18  C   UNL     1       5.087   4.160  14.920  0.00  0.00    +0.000 A 
ATOM     19  C   UNL     1       5.984   4.983  15.622  0.00  0.00    +0.000 A 
ATOM     20  C   UNL     1       7.187   5.301  14.972  0.00  0.00    +0.000 A 
ATOM     21  C   UNL     1       7.494   4.810  13.697  0.00  0.00    +0.000 A 
ENDBRANCH   1  19
TORSDOF 1
ENDMDL
MODEL 9
REMARK VINA RESULT:      -7.1      4.034      7.156
REMARK  Name = 
REMARK  1 active torsions:
REMARK  status: ('A' for Active; 'I' for Inactive)
REMARK    1  A    between atoms: C_5  and  N_6
REMARK                            x       y       z     vdW  Elec       q    Type
REMARK                         _______ _______ _______ _____ _____    ______ ____
ROOT
ATOM      1  N   UNL     1       5.741   5.370  16.937  0.00  0.00    +0.000 N 
ATOM      2  C   UNL     1       5.647   6.777  17.268  0.00  0.00    +0.000 C 
ATOM      3  O   UNL     1       4.313   7.156  17.598  0.00  0.00    +0.000 OA
ATOM      4  C   UNL     1       3.714   6.318  18.503  0.00  0.00    +0.000 A 
ATOM      5  C   UNL     1       2.575   6.821  19.123  0.00  0.00    +0.000 A 
ATOM      6  C   UNL     1       1.885   6.043  20.049  0.00  0.00    +0.000 A 
ATOM      7  C   UNL     1       2.332   4.756  20.376  0.00  0.00    +0.000 A 
ATOM      8  C   UNL     1       1.629   3.988  21.321  0.00  0.00    +0.000 A 
ATOM      9  C   UNL     1       2.061   2.712  21.673  0.00  0.00    +0.000 A 
ATOM     10  C   UNL     1       3.198   2.182  21.079  0.00  0.00    +0.000 A 
ATOM     11  C   UNL     1       3.901   2.929  20.129  0.00  0.00    +0.000 A 
ATOM     12  C   UNL     1       3.490   4.227  19.750  0.00  0.00    +0.000 A 
ATOM     13  C   UNL     1       4.169   5.020  18.778  0.00  0.00    +0.000 A 
ATOM     14  C   UNL     1       5.359   4.476  18.021  0.00  0.00    +0.000 C 
ENDROOT
BRANCH   1  19
ATOM     15 BR   UNL     1       6.990   3.442  11.288  0.00  0.00    +0.000 Br
ATOM     16  C   UNL     1       6.616   4.019  13.047  0.00  0.00    +0.000 A 
ATOM     17  C   UNL     1       7.509   4.848  13.712  0.00  0.00    +0.000 A 
ATOM     18  C   UNL     1       7.217   5.283  15.011  0.00  0.00    +0.000 A 
ATOM     19  C   UNL     1       6.034   4.910  15.671  0.00  0.00    +0.000 A 
ATOM     20  C   UNL     1       5.164   4.058  14.972  0.00  0.00    +0.000 A 
ATOM     21  C   UNL     1       5.445   3.616  13.673  0.00  0.00    +0.000 A 
ENDBRANCH   1  19
TORSDOF 1
ENDMDL
