MODEL 1
REMARK VINA RESULT:      -6.6      0.000      0.000
REMARK  Name = 
REMARK  5 active torsions:
REMARK  status: ('A' for Active; 'I' for Inactive)
REMARK    1  A    between atoms: C_1  and  C_2
REMARK    2  A    between atoms: N_5  and  C_6
REMARK    3  A    between atoms: C_6  and  C_7
REMARK    4  A    between atoms: C_15  and  S_16
REMARK    5  A    between atoms: S_16  and  N_17
REMARK                            x       y       z     vdW  Elec       q    Type
REMARK                         _______ _______ _______ _____ _____    ______ ____
ROOT
ATOM      1  C   UNL     1      -0.440  10.072  22.922  0.00  0.00    +0.000 C 
ATOM      2  C   UNL     1       0.257   9.632  21.685  0.00  0.00    +0.000 A 
ATOM      3  N   UNL     1       0.969   8.444  21.717  0.00  0.00    +0.000 NA
ATOM      4  C   UNL     1       1.521   8.187  20.554  0.00  0.00    +0.000 A 
ATOM      5  N   UNL     1       2.293   7.089  20.396  0.00  0.00    +0.000 N 
ATOM      6  S   UNL     1       1.229   9.392  19.357  0.00  0.00    +0.000 S 
ATOM      7  C   UNL     1       0.296  10.295  20.472  0.00  0.00    +0.000 A 
ATOM      8  H   UNL     1       2.286   6.468  21.201  0.00  0.00    +0.000 HD
ENDROOT
BRANCH   7   9
ATOM      9  S   UNL     1      -0.386  11.819  19.910  0.00  0.00    +0.000 S 
ATOM     10  O   UNL     1      -1.819  11.644  19.936  0.00  0.00    +0.000 OA
ATOM     11  O   UNL     1       0.294  12.849  20.659  0.00  0.00    +0.000 OA
BRANCH   9  12
ATOM     12  N   UNL     1       0.066  12.011  18.307  0.00  0.00    +0.000 NA
ATOM     13  H   UNL     1      -0.692  11.823  17.654  0.00  0.00    +0.000 HD
ATOM     14  H   UNL     1       0.965  11.585  18.089  0.00  0.00    +0.000 HD
ENDBRANCH   9  12
ENDBRANCH   7   9
BRANCH   5  15
ATOM     15  C   UNL     1       2.511   6.408  19.138  0.00  0.00    +0.000 C 
BRANCH  15  16
ATOM     16  C   UNL     1       2.196   4.932  19.235  0.00  0.00    +0.000 A 
ATOM     17  C   UNL     1       1.339   4.487  20.258  0.00  0.00    +0.000 A 
ATOM     18  C   UNL     1       0.988   3.140  20.370  0.00  0.00    +0.000 A 
ATOM     19  C   UNL     1       1.491   2.211  19.466  0.00  0.00    +0.000 A 
ATOM     20  C   UNL     1       2.358   2.627  18.458  0.00  0.00    +0.000 A 
ATOM     21  C   UNL     1       2.715   3.976  18.346  0.00  0.00    +0.000 A 
ATOM     22 CL   UNL     1       3.808   4.404  17.077  0.00  0.00    +0.000 Cl
ENDBRANCH  15  16
ENDBRANCH   5  15
TORSDOF 4
ENDMDL
MODEL 2
REMARK VINA RESULT:      -6.5      4.826      7.706
REMARK  Name = 
REMARK  5 active torsions:
REMARK  status: ('A' for Active; 'I' for Inactive)
REMARK    1  A    between atoms: C_1  and  C_2
REMARK    2  A    between atoms: N_5  and  C_6
REMARK    3  A    between atoms: C_6  and  C_7
REMARK    4  A    between atoms: C_15  and  S_16
REMARK    5  A    between atoms: S_16  and  N_17
REMARK                            x       y       z     vdW  Elec       q    Type
REMARK                         _______ _______ _______ _____ _____    ______ ____
ROOT
ATOM      1  C   UNL     1       4.331   4.905  17.057  0.00  0.00    +0.000 C 
ATOM      2  C   UNL     1       3.438   5.123  18.225  0.00  0.00    +0.000 A 
ATOM      3  N   UNL     1       3.298   6.411  18.715  0.00  0.00    +0.000 NA
ATOM      4  C   UNL     1       2.476   6.446  19.738  0.00  0.00    +0.000 A 
ATOM      5  N   UNL     1       2.240   7.610  20.382  0.00  0.00    +0.000 N 
ATOM      6  S   UNL     1       1.845   4.904  20.184  0.00  0.00    +0.000 S 
ATOM      7  C   UNL     1       2.721   4.162  18.914  0.00  0.00    +0.000 A 
ATOM      8  H   UNL     1       2.653   8.418  19.923  0.00  0.00    +0.000 HD
ENDROOT
BRANCH   7   9
ATOM      9  S   UNL     1       2.572   2.416  18.741  0.00  0.00    +0.000 S 
ATOM     10  O   UNL     1       1.785   1.973  19.867  0.00  0.00    +0.000 OA
ATOM     11  O   UNL     1       2.177   2.194  17.370  0.00  0.00    +0.000 OA
BRANCH   9  12
ATOM     12  N   UNL     1       4.105   1.760  18.913  0.00  0.00    +0.000 NA
ATOM     13  H   UNL     1       4.606   1.682  18.030  0.00  0.00    +0.000 HD
ATOM     14  H   UNL     1       4.126   0.940  19.517  0.00  0.00    +0.000 HD
ENDBRANCH   9  12
ENDBRANCH   7   9
BRANCH   5  15
ATOM     15  C   UNL     1       1.034   7.914  21.123  0.00  0.00    +0.000 C 
BRANCH  15  16
ATOM     16  C   UNL     1       0.491   9.282  20.775  0.00  0.00    +0.000 A 
ATOM     17  C   UNL     1       0.616   9.746  19.453  0.00  0.00    +0.000 A 
ATOM     18  C   UNL     1       0.099  10.987  19.072  0.00  0.00    +0.000 A 
ATOM     19  C   UNL     1      -0.547  11.789  20.006  0.00  0.00    +0.000 A 
ATOM     20  C   UNL     1      -0.664  11.357  21.326  0.00  0.00    +0.000 A 
ATOM     21  C   UNL     1      -0.143  10.116  21.712  0.00  0.00    +0.000 A 
ATOM     22 CL   UNL     1      -0.317   9.665  23.371  0.00  0.00    +0.000 Cl
ENDBRANCH  15  16
ENDBRANCH   5  15
TORSDOF 4
ENDMDL
MODEL 3
REMARK VINA RESULT:      -6.5      4.869      7.726
REMARK  Name = 
REMARK  5 active torsions:
REMARK  status: ('A' for Active; 'I' for Inactive)
REMARK    1  A    between atoms: C_1  and  C_2
REMARK    2  A    between atoms: N_5  and  C_6
REMARK    3  A    between atoms: C_6  and  C_7
REMARK    4  A    between atoms: C_15  and  S_16
REMARK    5  A    between atoms: S_16  and  N_17
REMARK                            x       y       z     vdW  Elec       q    Type
REMARK                         _______ _______ _______ _____ _____    ______ ____
ROOT
ATOM      1  C   UNL     1       4.085   4.712  17.122  0.00  0.00    +0.000 C 
ATOM      2  C   UNL     1       3.323   5.047  18.353  0.00  0.00    +0.000 A 
ATOM      3  N   UNL     1       3.123   6.383  18.661  0.00  0.00    +0.000 NA
ATOM      4  C   UNL     1       2.429   6.519  19.767  0.00  0.00    +0.000 A 
ATOM      5  N   UNL     1       2.165   7.751  20.256  0.00  0.00    +0.000 N 
ATOM      6  S   UNL     1       2.003   5.026  20.517  0.00  0.00    +0.000 S 
ATOM      7  C   UNL     1       2.786   4.158  19.266  0.00  0.00    +0.000 A 
ATOM      8  H   UNL     1       2.443   8.503  19.632  0.00  0.00    +0.000 HD
ENDROOT
BRANCH   7   9
ATOM      9  S   UNL     1       2.780   2.400  19.376  0.00  0.00    +0.000 S 
ATOM     10  O   UNL     1       4.157   2.011  19.566  0.00  0.00    +0.000 OA
ATOM     11  O   UNL     1       1.734   2.073  20.316  0.00  0.00    +0.000 OA
BRANCH   9  12
ATOM     12  N   UNL     1       2.292   1.804  17.887  0.00  0.00    +0.000 NA
ATOM     13  H   UNL     1       1.607   1.055  17.962  0.00  0.00    +0.000 HD
ATOM     14  H   UNL     1       3.066   1.644  17.245  0.00  0.00    +0.000 HD
ENDBRANCH   9  12
ENDBRANCH   7   9
BRANCH   5  15
ATOM     15  C   UNL     1       1.034   8.079  21.097  0.00  0.00    +0.000 C 
BRANCH  15  16
ATOM     16  C   UNL     1       0.397   9.390  20.695  0.00  0.00    +0.000 A 
ATOM     17  C   UNL     1       0.478   9.801  19.352  0.00  0.00    +0.000 A 
ATOM     18  C   UNL     1      -0.124  10.986  18.922  0.00  0.00    +0.000 A 
ATOM     19  C   UNL     1      -0.814  11.785  19.827  0.00  0.00    +0.000 A 
ATOM     20  C   UNL     1      -0.890  11.408  21.166  0.00  0.00    +0.000 A 
ATOM     21  C   UNL     1      -0.283  10.223  21.601  0.00  0.00    +0.000 A 
ATOM     22 CL   UNL     1      -0.411   9.837  23.281  0.00  0.00    +0.000 Cl
ENDBRANCH  15  16
ENDBRANCH   5  15
TORSDOF 4
ENDMDL
MODEL 4
REMARK VINA RESULT:      -6.4      0.955      1.114
REMARK  Name = 
REMARK  5 active torsions:
REMARK  status: ('A' for Active; 'I' for Inactive)
REMARK    1  A    between atoms: C_1  and  C_2
REMARK    2  A    between atoms: N_5  and  C_6
REMARK    3  A    between atoms: C_6  and  C_7
REMARK    4  A    between atoms: C_15  and  S_16
REMARK    5  A    between atoms: S_16  and  N_17
REMARK                            x       y       z     vdW  Elec       q    Type
REMARK                         _______ _______ _______ _____ _____    ______ ____
ROOT
ATOM      1  C   UNL     1      -0.123   9.666  22.878  0.00  0.00    +0.000 C 
ATOM      2  C   UNL     1       0.527   9.303  21.592  0.00  0.00    +0.000 A 
ATOM      3  N   UNL     1       1.227   8.110  21.520  0.00  0.00    +0.000 NA
ATOM      4  C   UNL     1       1.735   7.926  20.324  0.00  0.00    +0.000 A 
ATOM      5  N   UNL     1       2.490   6.835  20.067  0.00  0.00    +0.000 N 
ATOM      6  S   UNL     1       1.416   9.211  19.220  0.00  0.00    +0.000 S 
ATOM      7  C   UNL     1       0.532  10.045  20.425  0.00  0.00    +0.000 A 
ATOM      8  H   UNL     1       2.504   6.162  20.829  0.00  0.00    +0.000 HD
ENDROOT
BRANCH   7   9
ATOM      9  S   UNL     1      -0.153  11.609  19.988  0.00  0.00    +0.000 S 
ATOM     10  O   UNL     1       0.309  11.882  18.648  0.00  0.00    +0.000 OA
ATOM     11  O   UNL     1      -1.552  11.532  20.338  0.00  0.00    +0.000 OA
BRANCH   9  12
ATOM     12  N   UNL     1       0.532  12.758  20.998  0.00  0.00    +0.000 NA
ATOM     13  H   UNL     1      -0.009  12.917  21.846  0.00  0.00    +0.000 HD
ATOM     14  H   UNL     1       0.850  13.589  20.504  0.00  0.00    +0.000 HD
ENDBRANCH   9  12
ENDBRANCH   7   9
BRANCH   5  15
ATOM     15  C   UNL     1       2.658   6.237  18.760  0.00  0.00    +0.000 C 
BRANCH  15  16
ATOM     16  C   UNL     1       2.253   4.780  18.752  0.00  0.00    +0.000 A 
ATOM     17  C   UNL     1       1.247   4.349  19.635  0.00  0.00    +0.000 A 
ATOM     18  C   UNL     1       0.813   3.022  19.643  0.00  0.00    +0.000 A 
ATOM     19  C   UNL     1       1.379   2.098  18.771  0.00  0.00    +0.000 A 
ATOM     20  C   UNL     1       2.391   2.499  17.902  0.00  0.00    +0.000 A 
ATOM     21  C   UNL     1       2.833   3.827  17.895  0.00  0.00    +0.000 A 
ATOM     22 CL   UNL     1       4.103   4.236  16.797  0.00  0.00    +0.000 Cl
ENDBRANCH  15  16
ENDBRANCH   5  15
TORSDOF 4
ENDMDL
MODEL 5
REMARK VINA RESULT:      -6.4      4.616      7.428
REMARK  Name = 
REMARK  5 active torsions:
REMARK  status: ('A' for Active; 'I' for Inactive)
REMARK    1  A    between atoms: C_1  and  C_2
REMARK    2  A    between atoms: N_5  and  C_6
REMARK    3  A    between atoms: C_6  and  C_7
REMARK    4  A    between atoms: C_15  and  S_16
REMARK    5  A    between atoms: S_16  and  N_17
REMARK                            x       y       z     vdW  Elec       q    Type
REMARK                         _______ _______ _______ _____ _____    ______ ____
ROOT
ATOM      1  C   UNL     1       2.978   2.340  21.286  0.00  0.00    +0.000 C 
ATOM      2  C   UNL     1       2.660   3.593  20.554  0.00  0.00    +0.000 A 
ATOM      3  N   UNL     1       2.189   4.677  21.276  0.00  0.00    +0.000 NA
ATOM      4  C   UNL     1       1.960   5.708  20.496  0.00  0.00    +0.000 A 
ATOM      5  N   UNL     1       1.456   6.852  21.011  0.00  0.00    +0.000 N 
ATOM      6  S   UNL     1       2.278   5.410  18.828  0.00  0.00    +0.000 S 
ATOM      7  C   UNL     1       2.763   3.809  19.192  0.00  0.00    +0.000 A 
ATOM      8  H   UNL     1       1.403   6.851  22.026  0.00  0.00    +0.000 HD
ENDROOT
BRANCH   7   9
ATOM      9  S   UNL     1       3.259   2.789  17.844  0.00  0.00    +0.000 S 
ATOM     10  O   UNL     1       3.385   1.456  18.384  0.00  0.00    +0.000 OA
ATOM     11  O   UNL     1       2.365   3.117  16.759  0.00  0.00    +0.000 OA
BRANCH   9  12
ATOM     12  N   UNL     1       4.790   3.285  17.373  0.00  0.00    +0.000 NA
ATOM     13  H   UNL     1       4.939   4.285  17.494  0.00  0.00    +0.000 HD
ATOM     14  H   UNL     1       5.084   2.890  16.482  0.00  0.00    +0.000 HD
ENDBRANCH   9  12
ENDBRANCH   7   9
BRANCH   5  15
ATOM     15  C   UNL     1       1.646   8.168  20.439  0.00  0.00    +0.000 C 
BRANCH  15  16
ATOM     16  C   UNL     1       0.723   9.190  21.062  0.00  0.00    +0.000 A 
ATOM     17  C   UNL     1       0.464   9.119  22.443  0.00  0.00    +0.000 A 
ATOM     18  C   UNL     1      -0.353  10.059  23.074  0.00  0.00    +0.000 A 
ATOM     19  C   UNL     1      -0.932  11.086  22.336  0.00  0.00    +0.000 A 
ATOM     20  C   UNL     1      -0.705  11.164  20.963  0.00  0.00    +0.000 A 
ATOM     21  C   UNL     1       0.109  10.220  20.328  0.00  0.00    +0.000 A 
ATOM     22 CL   UNL     1       0.325  10.380  18.620  0.00  0.00    +0.000 Cl
ENDBRANCH  15  16
ENDBRANCH   5  15
TORSDOF 4
ENDMDL
MODEL 6
REMARK VINA RESULT:      -6.4      1.092      1.166
REMARK  Name = 
REMARK  5 active torsions:
REMARK  status: ('A' for Active; 'I' for Inactive)
REMARK    1  A    between atoms: C_1  and  C_2
REMARK    2  A    between atoms: N_5  and  C_6
REMARK    3  A    between atoms: C_6  and  C_7
REMARK    4  A    between atoms: C_15  and  S_16
REMARK    5  A    between atoms: S_16  and  N_17
REMARK                            x       y       z     vdW  Elec       q    Type
REMARK                         _______ _______ _______ _____ _____    ______ ____
ROOT
ATOM      1  C   UNL     1      -0.297   9.438  22.541  0.00  0.00    +0.000 C 
ATOM      2  C   UNL     1       0.458   9.146  21.296  0.00  0.00    +0.000 A 
ATOM      3  N   UNL     1       1.229   7.996  21.247  0.00  0.00    +0.000 NA
ATOM      4  C   UNL     1       1.828   7.872  20.085  0.00  0.00    +0.000 A 
ATOM      5  N   UNL     1       2.660   6.832  19.857  0.00  0.00    +0.000 N 
ATOM      6  S   UNL     1       1.513   9.166  18.991  0.00  0.00    +0.000 S 
ATOM      7  C   UNL     1       0.501   9.918  20.149  0.00  0.00    +0.000 A 
ATOM      8  H   UNL     1       2.660   6.141  20.603  0.00  0.00    +0.000 HD
ENDROOT
BRANCH   7   9
ATOM      9  S   UNL     1      -0.240  11.452  19.701  0.00  0.00    +0.000 S 
ATOM     10  O   UNL     1      -1.618  11.150  19.395  0.00  0.00    +0.000 OA
ATOM     11  O   UNL     1       0.151  12.388  20.729  0.00  0.00    +0.000 OA
BRANCH   9  12
ATOM     12  N   UNL     1       0.487  11.967  18.280  0.00  0.00    +0.000 NA
ATOM     13  H   UNL     1       0.396  12.969  18.126  0.00  0.00    +0.000 HD
ATOM     14  H   UNL     1       0.282  11.367  17.483  0.00  0.00    +0.000 HD
ENDBRANCH   9  12
ENDBRANCH   7   9
BRANCH   5  15
ATOM     15  C   UNL     1       2.951   6.279  18.552  0.00  0.00    +0.000 C 
BRANCH  15  16
ATOM     16  C   UNL     1       2.839   4.771  18.542  0.00  0.00    +0.000 A 
ATOM     17  C   UNL     1       1.569   4.185  18.399  0.00  0.00    +0.000 A 
ATOM     18  C   UNL     1       1.415   2.798  18.348  0.00  0.00    +0.000 A 
ATOM     19  C   UNL     1       2.527   1.969  18.445  0.00  0.00    +0.000 A 
ATOM     20  C   UNL     1       3.793   2.528  18.608  0.00  0.00    +0.000 A 
ATOM     21  C   UNL     1       3.950   3.918  18.664  0.00  0.00    +0.000 A 
ATOM     22 CL   UNL     1       5.552   4.527  18.884  0.00  0.00    +0.000 Cl
ENDBRANCH  15  16
ENDBRANCH   5  15
TORSDOF 4
ENDMDL
MODEL 7
REMARK VINA RESULT:      -6.3      0.888      1.062
REMARK  Name = 
REMARK  5 active torsions:
REMARK  status: ('A' for Active; 'I' for Inactive)
REMARK    1  A    between atoms: C_1  and  C_2
REMARK    2  A    between atoms: N_5  and  C_6
REMARK    3  A    between atoms: C_6  and  C_7
REMARK    4  A    between atoms: C_15  and  S_16
REMARK    5  A    between atoms: S_16  and  N_17
REMARK                            x       y       z     vdW  Elec       q    Type
REMARK                         _______ _______ _______ _____ _____    ______ ____
ROOT
ATOM      1  C   UNL     1      -0.584  10.311  23.097  0.00  0.00    +0.000 C 
ATOM      2  C   UNL     1       0.132   9.873  21.871  0.00  0.00    +0.000 A 
ATOM      3  N   UNL     1       0.826   8.674  21.907  0.00  0.00    +0.000 NA
ATOM      4  C   UNL     1       1.398   8.419  20.753  0.00  0.00    +0.000 A 
ATOM      5  N   UNL     1       2.158   7.312  20.601  0.00  0.00    +0.000 N 
ATOM      6  S   UNL     1       1.150   9.641  19.562  0.00  0.00    +0.000 S 
ATOM      7  C   UNL     1       0.207  10.547  20.666  0.00  0.00    +0.000 A 
ATOM      8  H   UNL     1       2.124   6.684  21.399  0.00  0.00    +0.000 HD
ENDROOT
BRANCH   7   9
ATOM      9  S   UNL     1      -0.441  12.085  20.104  0.00  0.00    +0.000 S 
ATOM     10  O   UNL     1       0.030  13.078  21.040  0.00  0.00    +0.000 OA
ATOM     11  O   UNL     1      -0.149  12.137  18.691  0.00  0.00    +0.000 OA
BRANCH   9  12
ATOM     12  N   UNL     1      -2.109  12.012  20.248  0.00  0.00    +0.000 NA
ATOM     13  H   UNL     1      -2.547  12.930  20.288  0.00  0.00    +0.000 HD
ATOM     14  H   UNL     1      -2.423  11.333  20.939  0.00  0.00    +0.000 HD
ENDBRANCH   9  12
ENDBRANCH   7   9
BRANCH   5  15
ATOM     15  C   UNL     1       2.393   6.640  19.341  0.00  0.00    +0.000 C 
BRANCH  15  16
ATOM     16  C   UNL     1       2.137   5.153  19.441  0.00  0.00    +0.000 A 
ATOM     17  C   UNL     1       1.312   4.674  20.474  0.00  0.00    +0.000 A 
ATOM     18  C   UNL     1       1.015   3.314  20.590  0.00  0.00    +0.000 A 
ATOM     19  C   UNL     1       1.542   2.406  19.678  0.00  0.00    +0.000 A 
ATOM     20  C   UNL     1       2.378   2.856  18.658  0.00  0.00    +0.000 A 
ATOM     21  C   UNL     1       2.681   4.218  18.543  0.00  0.00    +0.000 A 
ATOM     22 CL   UNL     1       3.739   4.689  17.260  0.00  0.00    +0.000 Cl
ENDBRANCH  15  16
ENDBRANCH   5  15
TORSDOF 4
ENDMDL
MODEL 8
REMARK VINA RESULT:      -6.3      5.093      7.676
REMARK  Name = 
REMARK  5 active torsions:
REMARK  status: ('A' for Active; 'I' for Inactive)
REMARK    1  A    between atoms: C_1  and  C_2
REMARK    2  A    between atoms: N_5  and  C_6
REMARK    3  A    between atoms: C_6  and  C_7
REMARK    4  A    between atoms: C_15  and  S_16
REMARK    5  A    between atoms: S_16  and  N_17
REMARK                            x       y       z     vdW  Elec       q    Type
REMARK                         _______ _______ _______ _____ _____    ______ ____
ROOT
ATOM      1  C   UNL     1       4.767   3.298  19.040  0.00  0.00    +0.000 C 
ATOM      2  C   UNL     1       4.539   4.632  18.426  0.00  0.00    +0.000 A 
ATOM      3  N   UNL     1       3.415   5.348  18.805  0.00  0.00    +0.000 NA
ATOM      4  C   UNL     1       3.354   6.504  18.186  0.00  0.00    +0.000 A 
ATOM      5  N   UNL     1       2.305   7.331  18.393  0.00  0.00    +0.000 N 
ATOM      6  S   UNL     1       4.648   6.777  17.081  0.00  0.00    +0.000 S 
ATOM      7  C   UNL     1       5.328   5.258  17.479  0.00  0.00    +0.000 A 
ATOM      8  H   UNL     1       1.682   7.019  19.133  0.00  0.00    +0.000 HD
ENDROOT
BRANCH   7   9
ATOM      9  S   UNL     1       6.809   4.791  16.646  0.00  0.00    +0.000 S 
ATOM     10  O   UNL     1       6.440   3.715  15.758  0.00  0.00    +0.000 OA
ATOM     11  O   UNL     1       7.400   6.025  16.184  0.00  0.00    +0.000 OA
BRANCH   9  12
ATOM     12  N   UNL     1       7.854   4.158  17.794  0.00  0.00    +0.000 NA
ATOM     13  H   UNL     1       8.380   3.356  17.454  0.00  0.00    +0.000 HD
ATOM     14  H   UNL     1       7.428   4.061  18.714  0.00  0.00    +0.000 HD
ENDBRANCH   9  12
ENDBRANCH   7   9
BRANCH   5  15
ATOM     15  C   UNL     1       2.344   8.769  18.232  0.00  0.00    +0.000 C 
BRANCH  15  16
ATOM     16  C   UNL     1       1.084   9.427  18.747  0.00  0.00    +0.000 A 
ATOM     17  C   UNL     1       0.243  10.090  17.836  0.00  0.00    +0.000 A 
ATOM     18  C   UNL     1      -0.950  10.684  18.255  0.00  0.00    +0.000 A 
ATOM     19  C   UNL     1      -1.322  10.631  19.594  0.00  0.00    +0.000 A 
ATOM     20  C   UNL     1      -0.493   9.996  20.517  0.00  0.00    +0.000 A 
ATOM     21  C   UNL     1       0.705   9.405  20.101  0.00  0.00    +0.000 A 
ATOM     22 CL   UNL     1       1.682   8.653  21.313  0.00  0.00    +0.000 Cl
ENDBRANCH  15  16
ENDBRANCH   5  15
TORSDOF 4
ENDMDL
MODEL 9
REMARK VINA RESULT:      -6.3      4.766      7.579
REMARK  Name = 
REMARK  5 active torsions:
REMARK  status: ('A' for Active; 'I' for Inactive)
REMARK    1  A    between atoms: C_1  and  C_2
REMARK    2  A    between atoms: N_5  and  C_6
REMARK    3  A    between atoms: C_6  and  C_7
REMARK    4  A    between atoms: C_15  and  S_16
REMARK    5  A    between atoms: S_16  and  N_17
REMARK                            x       y       z     vdW  Elec       q    Type
REMARK                         _______ _______ _______ _____ _____    ______ ____
ROOT
ATOM      1  C   UNL     1       1.610   2.264  20.278  0.00  0.00    +0.000 C 
ATOM      2  C   UNL     1       2.034   3.684  20.177  0.00  0.00    +0.000 A 
ATOM      3  N   UNL     1       1.168   4.665  20.634  0.00  0.00    +0.000 NA
ATOM      4  C   UNL     1       1.683   5.863  20.486  0.00  0.00    +0.000 A 
ATOM      5  N   UNL     1       0.971   6.957  20.836  0.00  0.00    +0.000 N 
ATOM      6  S   UNL     1       3.243   5.871  19.753  0.00  0.00    +0.000 S 
ATOM      7  C   UNL     1       3.219   4.163  19.649  0.00  0.00    +0.000 A 
ATOM      8  H   UNL     1       0.101   6.739  21.313  0.00  0.00    +0.000 HD
ENDROOT
BRANCH   7   9
ATOM      9  S   UNL     1       4.616   3.377  18.918  0.00  0.00    +0.000 S 
ATOM     10  O   UNL     1       4.170   2.895  17.632  0.00  0.00    +0.000 OA
ATOM     11  O   UNL     1       5.710   4.306  19.073  0.00  0.00    +0.000 OA
BRANCH   9  12
ATOM     12  N   UNL     1       4.987   2.036  19.854  0.00  0.00    +0.000 NA
ATOM     13  H   UNL     1       5.910   2.091  20.281  0.00  0.00    +0.000 HD
ATOM     14  H   UNL     1       4.750   1.154  19.404  0.00  0.00    +0.000 HD
ENDBRANCH   9  12
ENDBRANCH   7   9
BRANCH   5  15
ATOM     15  C   UNL     1       1.547   8.226  21.227  0.00  0.00    +0.000 C 
BRANCH  15  16
ATOM     16  C   UNL     1       0.728   9.394  20.725  0.00  0.00    +0.000 A 
ATOM     17  C   UNL     1       0.816   9.751  19.367  0.00  0.00    +0.000 A 
ATOM     18  C   UNL     1       0.054  10.799  18.846  0.00  0.00    +0.000 A 
ATOM     19  C   UNL     1      -0.807  11.513  19.672  0.00  0.00    +0.000 A 
ATOM     20  C   UNL     1      -0.895  11.189  21.024  0.00  0.00    +0.000 A 
ATOM     21  C   UNL     1      -0.129  10.142  21.551  0.00  0.00    +0.000 A 
ATOM     22 CL   UNL     1      -0.286   9.816  23.241  0.00  0.00    +0.000 Cl
ENDBRANCH  15  16
ENDBRANCH   5  15
TORSDOF 4
ENDMDL
