MODEL 1
REMARK VINA RESULT:      -8.2      0.000      0.000
REMARK  Name = 
REMARK  4 active torsions:
REMARK  status: ('A' for Active; 'I' for Inactive)
REMARK    1  A    between atoms: C_1  and  O_2
REMARK    2  A    between atoms: O_2  and  C_3
REMARK    3  A    between atoms: C_8  and  C_9
REMARK    4  A    between atoms: C_15  and  C_16
REMARK                            x       y       z     vdW  Elec       q    Type
REMARK                         _______ _______ _______ _____ _____    ______ ____
ROOT
ATOM      1  C   UNL     1       6.642   5.147  14.586  0.00  0.00    +0.000 A 
ATOM      2  C   UNL     1       6.733   3.848  15.072  0.00  0.00    +0.000 A 
ATOM      3  C   UNL     1       5.934   3.456  16.150  0.00  0.00    +0.000 A 
ATOM      4  C   UNL     1       5.046   4.338  16.756  0.00  0.00    +0.000 A 
ATOM      5  N   UNL     1       4.272   3.911  17.762  0.00  0.00    +0.000 NA
ATOM      6  C   UNL     1       3.417   4.804  18.345  0.00  0.00    +0.000 A 
ATOM      7  C   UNL     1       3.402   6.152  17.935  0.00  0.00    +0.000 A 
ATOM      8  N   UNL     1       4.165   6.561  16.881  0.00  0.00    +0.000 NA
ATOM      9  C   UNL     1       4.971   5.664  16.285  0.00  0.00    +0.000 A 
ATOM     10  C   UNL     1       5.763   6.040  15.203  0.00  0.00    +0.000 A 
ENDROOT
BRANCH   7  11
ATOM     11  C   UNL     1       2.625   7.252  18.563  0.00  0.00    +0.000 A 
ATOM     12  C   UNL     1       2.274   7.254  19.929  0.00  0.00    +0.000 A 
ATOM     13  C   UNL     1       1.459   8.251  20.475  0.00  0.00    +0.000 A 
ATOM     14  C   UNL     1       1.046   9.308  19.679  0.00  0.00    +0.000 A 
ATOM     15  F   UNL     1       0.270  10.265  20.202  0.00  0.00    +0.000 F 
ATOM     16  C   UNL     1       1.434   9.386  18.349  0.00  0.00    +0.000 A 
ATOM     17  C   UNL     1       2.212   8.362  17.796  0.00  0.00    +0.000 A 
ENDBRANCH   7  11
BRANCH   6  18
ATOM     18  C   UNL     1       2.561   4.194  19.392  0.00  0.00    +0.000 A 
ATOM     19  C   UNL     1       1.308   3.656  19.059  0.00  0.00    +0.000 A 
ATOM     20  C   UNL     1       0.552   3.030  20.038  0.00  0.00    +0.000 A 
ATOM     21  N   UNL     1       0.953   2.888  21.317  0.00  0.00    +0.000 NA
ATOM     22  C   UNL     1       2.137   3.443  21.640  0.00  0.00    +0.000 A 
ATOM     23  C   UNL     1       2.942   4.123  20.739  0.00  0.00    +0.000 A 
ENDBRANCH   6  18
BRANCH   1  25
ATOM     24  C   UNL     1       7.541   4.804  12.409  0.00  0.00    +0.000 C 
ATOM     25  O   UNL     1       7.346   5.658  13.533  0.00  0.00    +0.000 OA
ENDBRANCH   1  25
TORSDOF 3
ENDMDL
MODEL 2
REMARK VINA RESULT:      -8.1      2.911      5.147
REMARK  Name = 
REMARK  4 active torsions:
REMARK  status: ('A' for Active; 'I' for Inactive)
REMARK    1  A    between atoms: C_1  and  O_2
REMARK    2  A    between atoms: O_2  and  C_3
REMARK    3  A    between atoms: C_8  and  C_9
REMARK    4  A    between atoms: C_15  and  C_16
REMARK                            x       y       z     vdW  Elec       q    Type
REMARK                         _______ _______ _______ _____ _____    ______ ____
ROOT
ATOM      1  C   UNL     1       5.946   3.083  12.039  0.00  0.00    +0.000 A 
ATOM      2  C   UNL     1       7.077   3.867  11.843  0.00  0.00    +0.000 A 
ATOM      3  C   UNL     1       7.506   4.727  12.858  0.00  0.00    +0.000 A 
ATOM      4  C   UNL     1       6.826   4.821  14.067  0.00  0.00    +0.000 A 
ATOM      5  N   UNL     1       7.294   5.630  15.028  0.00  0.00    +0.000 NA
ATOM      6  C   UNL     1       6.598   5.710  16.202  0.00  0.00    +0.000 A 
ATOM      7  C   UNL     1       5.389   5.006  16.366  0.00  0.00    +0.000 A 
ATOM      8  N   UNL     1       4.948   4.154  15.395  0.00  0.00    +0.000 NA
ATOM      9  C   UNL     1       5.665   4.048  14.261  0.00  0.00    +0.000 A 
ATOM     10  C   UNL     1       5.252   3.188  13.247  0.00  0.00    +0.000 A 
ENDROOT
BRANCH   7  11
ATOM     11  C   UNL     1       4.467   5.101  17.528  0.00  0.00    +0.000 A 
ATOM     12  C   UNL     1       3.711   6.258  17.807  0.00  0.00    +0.000 A 
ATOM     13  C   UNL     1       2.926   6.360  18.961  0.00  0.00    +0.000 A 
ATOM     14  C   UNL     1       2.824   5.273  19.816  0.00  0.00    +0.000 A 
ATOM     15  F   UNL     1       2.071   5.368  20.918  0.00  0.00    +0.000 F 
ATOM     16  C   UNL     1       3.491   4.089  19.537  0.00  0.00    +0.000 A 
ATOM     17  C   UNL     1       4.310   4.007  18.406  0.00  0.00    +0.000 A 
ENDBRANCH   7  11
BRANCH   6  18
ATOM     18  C   UNL     1       7.255   6.575  17.211  0.00  0.00    +0.000 A 
ATOM     19  C   UNL     1       7.763   6.022  18.397  0.00  0.00    +0.000 A 
ATOM     20  C   UNL     1       8.433   6.836  19.297  0.00  0.00    +0.000 A 
ATOM     21  N   UNL     1       8.648   8.153  19.101  0.00  0.00    +0.000 NA
ATOM     22  C   UNL     1       8.122   8.686  17.981  0.00  0.00    +0.000 A 
ATOM     23  C   UNL     1       7.402   7.959  17.045  0.00  0.00    +0.000 A 
ENDBRANCH   6  18
BRANCH   1  25
ATOM     24  C   UNL     1       6.037   0.905  11.085  0.00  0.00    +0.000 C 
ATOM     25  O   UNL     1       5.427   2.190  11.146  0.00  0.00    +0.000 OA
ENDBRANCH   1  25
TORSDOF 3
ENDMDL
MODEL 3
REMARK VINA RESULT:      -8.0      0.245      1.360
REMARK  Name = 
REMARK  4 active torsions:
REMARK  status: ('A' for Active; 'I' for Inactive)
REMARK    1  A    between atoms: C_1  and  O_2
REMARK    2  A    between atoms: O_2  and  C_3
REMARK    3  A    between atoms: C_8  and  C_9
REMARK    4  A    between atoms: C_15  and  C_16
REMARK                            x       y       z     vdW  Elec       q    Type
REMARK                         _______ _______ _______ _____ _____    ______ ____
ROOT
ATOM      1  C   UNL     1       6.614   5.107  14.498  0.00  0.00    +0.000 A 
ATOM      2  C   UNL     1       6.710   3.791  14.934  0.00  0.00    +0.000 A 
ATOM      3  C   UNL     1       5.920   3.356  16.002  0.00  0.00    +0.000 A 
ATOM      4  C   UNL     1       5.036   4.213  16.648  0.00  0.00    +0.000 A 
ATOM      5  N   UNL     1       4.270   3.746  17.643  0.00  0.00    +0.000 NA
ATOM      6  C   UNL     1       3.419   4.615  18.266  0.00  0.00    +0.000 A 
ATOM      7  C   UNL     1       3.398   5.977  17.908  0.00  0.00    +0.000 A 
ATOM      8  N   UNL     1       4.152   6.428  16.864  0.00  0.00    +0.000 NA
ATOM      9  C   UNL     1       4.955   5.555  16.228  0.00  0.00    +0.000 A 
ATOM     10  C   UNL     1       5.738   5.974  15.156  0.00  0.00    +0.000 A 
ENDROOT
BRANCH   7  11
ATOM     11  C   UNL     1       2.624   7.052  18.583  0.00  0.00    +0.000 A 
ATOM     12  C   UNL     1       2.174   8.205  17.909  0.00  0.00    +0.000 A 
ATOM     13  C   UNL     1       1.534   9.248  18.587  0.00  0.00    +0.000 A 
ATOM     14  C   UNL     1       1.262   9.117  19.940  0.00  0.00    +0.000 A 
ATOM     15  F   UNL     1       0.646  10.113  20.589  0.00  0.00    +0.000 F 
ATOM     16  C   UNL     1       1.618   7.965  20.625  0.00  0.00    +0.000 A 
ATOM     17  C   UNL     1       2.299   6.944  19.953  0.00  0.00    +0.000 A 
ENDBRANCH   7  11
BRANCH   6  18
ATOM     18  C   UNL     1       2.572   3.964  19.295  0.00  0.00    +0.000 A 
ATOM     19  C   UNL     1       3.077   3.725  20.583  0.00  0.00    +0.000 A 
ATOM     20  C   UNL     1       2.248   3.177  21.550  0.00  0.00    +0.000 A 
ATOM     21  N   UNL     1       0.955   2.862  21.338  0.00  0.00    +0.000 NA
ATOM     22  C   UNL     1       0.487   3.055  20.089  0.00  0.00    +0.000 A 
ATOM     23  C   UNL     1       1.252   3.559  19.048  0.00  0.00    +0.000 A 
ENDBRANCH   6  18
BRANCH   1  25
ATOM     24  C   UNL     1       7.497   4.849  12.303  0.00  0.00    +0.000 C 
ATOM     25  O   UNL     1       7.308   5.659  13.460  0.00  0.00    +0.000 OA
ENDBRANCH   1  25
TORSDOF 3
ENDMDL
MODEL 4
REMARK VINA RESULT:      -7.8      2.919      5.045
REMARK  Name = 
REMARK  4 active torsions:
REMARK  status: ('A' for Active; 'I' for Inactive)
REMARK    1  A    between atoms: C_1  and  O_2
REMARK    2  A    between atoms: O_2  and  C_3
REMARK    3  A    between atoms: C_8  and  C_9
REMARK    4  A    between atoms: C_15  and  C_16
REMARK                            x       y       z     vdW  Elec       q    Type
REMARK                         _______ _______ _______ _____ _____    ______ ____
ROOT
ATOM      1  C   UNL     1       5.905   3.150  12.124  0.00  0.00    +0.000 A 
ATOM      2  C   UNL     1       7.052   3.902  11.900  0.00  0.00    +0.000 A 
ATOM      3  C   UNL     1       7.523   4.759  12.900  0.00  0.00    +0.000 A 
ATOM      4  C   UNL     1       6.869   4.880  14.120  0.00  0.00    +0.000 A 
ATOM      5  N   UNL     1       7.375   5.684  15.065  0.00  0.00    +0.000 NA
ATOM      6  C   UNL     1       6.703   5.792  16.251  0.00  0.00    +0.000 A 
ATOM      7  C   UNL     1       5.479   5.122  16.443  0.00  0.00    +0.000 A 
ATOM      8  N   UNL     1       4.999   4.274  15.488  0.00  0.00    +0.000 NA
ATOM      9  C   UNL     1       5.691   4.140  14.342  0.00  0.00    +0.000 A 
ATOM     10  C   UNL     1       5.237   3.282  13.343  0.00  0.00    +0.000 A 
ENDROOT
BRANCH   7  11
ATOM     11  C   UNL     1       4.583   5.251  17.622  0.00  0.00    +0.000 A 
ATOM     12  C   UNL     1       4.510   4.272  18.634  0.00  0.00    +0.000 A 
ATOM     13  C   UNL     1       3.589   4.368  19.681  0.00  0.00    +0.000 A 
ATOM     14  C   UNL     1       2.776   5.488  19.777  0.00  0.00    +0.000 A 
ATOM     15  F   UNL     1       1.896   5.583  20.781  0.00  0.00    +0.000 F 
ATOM     16  C   UNL     1       2.871   6.511  18.845  0.00  0.00    +0.000 A 
ATOM     17  C   UNL     1       3.763   6.389  17.773  0.00  0.00    +0.000 A 
ENDBRANCH   7  11
BRANCH   6  18
ATOM     18  C   UNL     1       7.402   6.648  17.241  0.00  0.00    +0.000 A 
ATOM     19  C   UNL     1       7.555   8.023  17.007  0.00  0.00    +0.000 A 
ATOM     20  C   UNL     1       8.150   8.818  17.974  0.00  0.00    +0.000 A 
ATOM     21  N   UNL     1       8.592   8.351  19.159  0.00  0.00    +0.000 NA
ATOM     22  C   UNL     1       8.480   7.024  19.361  0.00  0.00    +0.000 A 
ATOM     23  C   UNL     1       7.936   6.146  18.435  0.00  0.00    +0.000 A 
ENDBRANCH   6  18
BRANCH   1  25
ATOM     24  C   UNL     1       5.981   0.995  11.116  0.00  0.00    +0.000 C 
ATOM     25  O   UNL     1       5.346   2.264  11.248  0.00  0.00    +0.000 OA
ENDBRANCH   1  25
TORSDOF 3
ENDMDL
MODEL 5
REMARK VINA RESULT:      -7.5      3.835      6.706
REMARK  Name = 
REMARK  4 active torsions:
REMARK  status: ('A' for Active; 'I' for Inactive)
REMARK    1  A    between atoms: C_1  and  O_2
REMARK    2  A    between atoms: O_2  and  C_3
REMARK    3  A    between atoms: C_8  and  C_9
REMARK    4  A    between atoms: C_15  and  C_16
REMARK                            x       y       z     vdW  Elec       q    Type
REMARK                         _______ _______ _______ _____ _____    ______ ____
ROOT
ATOM      1  C   UNL     1       1.743   2.776  19.798  0.00  0.00    +0.000 A 
ATOM      2  C   UNL     1       1.442   2.131  18.605  0.00  0.00    +0.000 A 
ATOM      3  C   UNL     1       2.225   2.372  17.472  0.00  0.00    +0.000 A 
ATOM      4  C   UNL     1       3.303   3.249  17.507  0.00  0.00    +0.000 A 
ATOM      5  N   UNL     1       4.050   3.423  16.408  0.00  0.00    +0.000 NA
ATOM      6  C   UNL     1       5.097   4.301  16.470  0.00  0.00    +0.000 A 
ATOM      7  C   UNL     1       5.339   5.044  17.642  0.00  0.00    +0.000 A 
ATOM      8  N   UNL     1       4.596   4.824  18.765  0.00  0.00    +0.000 NA
ATOM      9  C   UNL     1       3.596   3.926  18.707  0.00  0.00    +0.000 A 
ATOM     10  C   UNL     1       2.816   3.669  19.832  0.00  0.00    +0.000 A 
ENDROOT
BRANCH   7  11
ATOM     11  C   UNL     1       6.352   6.119  17.806  0.00  0.00    +0.000 A 
ATOM     12  C   UNL     1       7.508   5.962  18.599  0.00  0.00    +0.000 A 
ATOM     13  C   UNL     1       8.396   7.020  18.818  0.00  0.00    +0.000 A 
ATOM     14  C   UNL     1       8.183   8.234  18.181  0.00  0.00    +0.000 A 
ATOM     15  F   UNL     1       9.034   9.246  18.387  0.00  0.00    +0.000 F 
ATOM     16  C   UNL     1       7.100   8.406  17.331  0.00  0.00    +0.000 A 
ATOM     17  C   UNL     1       6.190   7.359  17.151  0.00  0.00    +0.000 A 
ENDBRANCH   7  11
BRANCH   6  18
ATOM     18  C   UNL     1       5.892   4.348  15.219  0.00  0.00    +0.000 A 
ATOM     19  C   UNL     1       5.442   3.686  14.066  0.00  0.00    +0.000 A 
ATOM     20  C   UNL     1       6.164   3.798  12.888  0.00  0.00    +0.000 A 
ATOM     21  N   UNL     1       7.291   4.528  12.768  0.00  0.00    +0.000 NA
ATOM     22  C   UNL     1       7.741   5.128  13.887  0.00  0.00    +0.000 A 
ATOM     23  C   UNL     1       7.109   5.038  15.118  0.00  0.00    +0.000 A 
ENDBRANCH   6  18
BRANCH   1  25
ATOM     24  C   UNL     1       1.814   2.872  22.175  0.00  0.00    +0.000 C 
ATOM     25  O   UNL     1       1.079   2.620  20.981  0.00  0.00    +0.000 OA
ENDBRANCH   1  25
TORSDOF 3
ENDMDL
MODEL 6
REMARK VINA RESULT:      -7.2      3.373      6.241
REMARK  Name = 
REMARK  4 active torsions:
REMARK  status: ('A' for Active; 'I' for Inactive)
REMARK    1  A    between atoms: C_1  and  O_2
REMARK    2  A    between atoms: O_2  and  C_3
REMARK    3  A    between atoms: C_8  and  C_9
REMARK    4  A    between atoms: C_15  and  C_16
REMARK                            x       y       z     vdW  Elec       q    Type
REMARK                         _______ _______ _______ _____ _____    ______ ____
ROOT
ATOM      1  C   UNL     1       1.079  10.894  19.039  0.00  0.00    +0.000 A 
ATOM      2  C   UNL     1       0.462  10.414  20.188  0.00  0.00    +0.000 A 
ATOM      3  C   UNL     1       0.683   9.094  20.591  0.00  0.00    +0.000 A 
ATOM      4  C   UNL     1       1.507   8.241  19.866  0.00  0.00    +0.000 A 
ATOM      5  N   UNL     1       1.722   6.994  20.309  0.00  0.00    +0.000 NA
ATOM      6  C   UNL     1       2.528   6.175  19.568  0.00  0.00    +0.000 A 
ATOM      7  C   UNL     1       3.065   6.616  18.343  0.00  0.00    +0.000 A 
ATOM      8  N   UNL     1       2.872   7.901  17.928  0.00  0.00    +0.000 NA
ATOM      9  C   UNL     1       2.113   8.714  18.686  0.00  0.00    +0.000 A 
ATOM     10  C   UNL     1       1.895  10.034  18.300  0.00  0.00    +0.000 A 
ENDROOT
BRANCH   7  11
ATOM     11  C   UNL     1       3.844   5.795  17.379  0.00  0.00    +0.000 A 
ATOM     12  C   UNL     1       3.569   4.432  17.143  0.00  0.00    +0.000 A 
ATOM     13  C   UNL     1       4.377   3.657  16.306  0.00  0.00    +0.000 A 
ATOM     14  C   UNL     1       5.429   4.253  15.627  0.00  0.00    +0.000 A 
ATOM     15  F   UNL     1       6.201   3.512  14.822  0.00  0.00    +0.000 F 
ATOM     16  C   UNL     1       5.685   5.609  15.770  0.00  0.00    +0.000 A 
ATOM     17  C   UNL     1       4.902   6.371  16.644  0.00  0.00    +0.000 A 
ENDBRANCH   7  11
BRANCH   6  18
ATOM     18  C   UNL     1       2.750   4.851  20.199  0.00  0.00    +0.000 A 
ATOM     19  C   UNL     1       1.741   4.254  20.971  0.00  0.00    +0.000 A 
ATOM     20  C   UNL     1       1.942   2.987  21.496  0.00  0.00    +0.000 A 
ATOM     21  N   UNL     1       3.064   2.265  21.301  0.00  0.00    +0.000 NA
ATOM     22  C   UNL     1       4.045   2.859  20.595  0.00  0.00    +0.000 A 
ATOM     23  C   UNL     1       3.950   4.138  20.066  0.00  0.00    +0.000 A 
ENDBRANCH   6  18
BRANCH   1  25
ATOM     24  C   UNL     1       1.766  13.169  19.153  0.00  0.00    +0.000 C 
ATOM     25  O   UNL     1       0.968  12.161  18.541  0.00  0.00    +0.000 OA
ENDBRANCH   1  25
TORSDOF 3
ENDMDL
MODEL 7
REMARK VINA RESULT:      -7.2      3.301      6.221
REMARK  Name = 
REMARK  4 active torsions:
REMARK  status: ('A' for Active; 'I' for Inactive)
REMARK    1  A    between atoms: C_1  and  O_2
REMARK    2  A    between atoms: O_2  and  C_3
REMARK    3  A    between atoms: C_8  and  C_9
REMARK    4  A    between atoms: C_15  and  C_16
REMARK                            x       y       z     vdW  Elec       q    Type
REMARK                         _______ _______ _______ _____ _____    ______ ____
ROOT
ATOM      1  C   UNL     1       1.385  11.342  18.812  0.00  0.00    +0.000 A 
ATOM      2  C   UNL     1       0.494  10.942  19.800  0.00  0.00    +0.000 A 
ATOM      3  C   UNL     1       0.443   9.598  20.182  0.00  0.00    +0.000 A 
ATOM      4  C   UNL     1       1.263   8.643  19.593  0.00  0.00    +0.000 A 
ATOM      5  N   UNL     1       1.208   7.373  20.015  0.00  0.00    +0.000 NA
ATOM      6  C   UNL     1       2.019   6.454  19.408  0.00  0.00    +0.000 A 
ATOM      7  C   UNL     1       2.842   6.829  18.328  0.00  0.00    +0.000 A 
ATOM      8  N   UNL     1       2.918   8.134  17.938  0.00  0.00    +0.000 NA
ATOM      9  C   UNL     1       2.149   9.039  18.571  0.00  0.00    +0.000 A 
ATOM     10  C   UNL     1       2.199  10.382  18.206  0.00  0.00    +0.000 A 
ENDROOT
BRANCH   7  11
ATOM     11  C   UNL     1       3.670   5.916  17.496  0.00  0.00    +0.000 A 
ATOM     12  C   UNL     1       3.458   4.523  17.453  0.00  0.00    +0.000 A 
ATOM     13  C   UNL     1       4.310   3.673  16.741  0.00  0.00    +0.000 A 
ATOM     14  C   UNL     1       5.346   4.214  15.994  0.00  0.00    +0.000 A 
ATOM     15  F   UNL     1       6.161   3.403  15.309  0.00  0.00    +0.000 F 
ATOM     16  C   UNL     1       5.542   5.587  15.947  0.00  0.00    +0.000 A 
ATOM     17  C   UNL     1       4.714   6.429  16.697  0.00  0.00    +0.000 A 
ENDBRANCH   7  11
BRANCH   6  18
ATOM     18  C   UNL     1       1.924   5.103  20.013  0.00  0.00    +0.000 A 
ATOM     19  C   UNL     1       2.658   4.789  21.167  0.00  0.00    +0.000 A 
ATOM     20  C   UNL     1       2.504   3.543  21.757  0.00  0.00    +0.000 A 
ATOM     21  N   UNL     1       1.667   2.594  21.292  0.00  0.00    +0.000 NA
ATOM     22  C   UNL     1       0.996   2.885  20.161  0.00  0.00    +0.000 A 
ATOM     23  C   UNL     1       1.118   4.087  19.480  0.00  0.00    +0.000 A 
ENDBRANCH   6  18
BRANCH   1  25
ATOM     24  C   UNL     1       2.659  13.351  18.878  0.00  0.00    +0.000 C 
ATOM     25  O   UNL     1       1.554  12.618  18.356  0.00  0.00    +0.000 OA
ENDBRANCH   1  25
TORSDOF 3
ENDMDL
MODEL 8
REMARK VINA RESULT:      -7.1      3.391      6.209
REMARK  Name = 
REMARK  4 active torsions:
REMARK  status: ('A' for Active; 'I' for Inactive)
REMARK    1  A    between atoms: C_1  and  O_2
REMARK    2  A    between atoms: O_2  and  C_3
REMARK    3  A    between atoms: C_8  and  C_9
REMARK    4  A    between atoms: C_15  and  C_16
REMARK                            x       y       z     vdW  Elec       q    Type
REMARK                         _______ _______ _______ _____ _____    ______ ____
ROOT
ATOM      1  C   UNL     1       1.029  10.797  18.986  0.00  0.00    +0.000 A 
ATOM      2  C   UNL     1       0.376  10.274  20.096  0.00  0.00    +0.000 A 
ATOM      3  C   UNL     1       0.644   8.963  20.502  0.00  0.00    +0.000 A 
ATOM      4  C   UNL     1       1.550   8.161  19.818  0.00  0.00    +0.000 A 
ATOM      5  N   UNL     1       1.806   6.923  20.262  0.00  0.00    +0.000 NA
ATOM      6  C   UNL     1       2.694   6.155  19.562  0.00  0.00    +0.000 A 
ATOM      7  C   UNL     1       3.273   6.635  18.372  0.00  0.00    +0.000 A 
ATOM      8  N   UNL     1       3.036   7.913  17.956  0.00  0.00    +0.000 NA
ATOM      9  C   UNL     1       2.195   8.677  18.676  0.00  0.00    +0.000 A 
ATOM     10  C   UNL     1       1.929   9.988  18.288  0.00  0.00    +0.000 A 
ENDROOT
BRANCH   7  11
ATOM     11  C   UNL     1       4.146   5.866  17.446  0.00  0.00    +0.000 A 
ATOM     12  C   UNL     1       5.423   6.316  17.055  0.00  0.00    +0.000 A 
ATOM     13  C   UNL     1       6.185   5.624  16.107  0.00  0.00    +0.000 A 
ATOM     14  C   UNL     1       5.713   4.426  15.593  0.00  0.00    +0.000 A 
ATOM     15  F   UNL     1       6.442   3.762  14.689  0.00  0.00    +0.000 F 
ATOM     16  C   UNL     1       4.495   3.909  16.011  0.00  0.00    +0.000 A 
ATOM     17  C   UNL     1       3.716   4.627  16.925  0.00  0.00    +0.000 A 
ENDBRANCH   7  11
BRANCH   6  18
ATOM     18  C   UNL     1       2.950   4.838  20.195  0.00  0.00    +0.000 A 
ATOM     19  C   UNL     1       2.063   4.327  21.155  0.00  0.00    +0.000 A 
ATOM     20  C   UNL     1       2.283   3.065  21.685  0.00  0.00    +0.000 A 
ATOM     21  N   UNL     1       3.310   2.270  21.324  0.00  0.00    +0.000 NA
ATOM     22  C   UNL     1       4.182   2.782  20.434  0.00  0.00    +0.000 A 
ATOM     23  C   UNL     1       4.065   4.049  19.881  0.00  0.00    +0.000 A 
ENDBRANCH   6  18
BRANCH   1  25
ATOM     24  C   UNL     1       2.069  12.778  18.176  0.00  0.00    +0.000 C 
ATOM     25  O   UNL     1       0.880  12.061  18.492  0.00  0.00    +0.000 OA
ENDBRANCH   1  25
TORSDOF 3
ENDMDL
MODEL 9
REMARK VINA RESULT:      -7.1      2.170      4.244
REMARK  Name = 
REMARK  4 active torsions:
REMARK  status: ('A' for Active; 'I' for Inactive)
REMARK    1  A    between atoms: C_1  and  O_2
REMARK    2  A    between atoms: O_2  and  C_3
REMARK    3  A    between atoms: C_8  and  C_9
REMARK    4  A    between atoms: C_15  and  C_16
REMARK                            x       y       z     vdW  Elec       q    Type
REMARK                         _______ _______ _______ _____ _____    ______ ____
ROOT
ATOM      1  C   UNL     1       6.253   4.717  14.681  0.00  0.00    +0.000 A 
ATOM      2  C   UNL     1       6.040   6.066  14.427  0.00  0.00    +0.000 A 
ATOM      3  C   UNL     1       5.204   6.805  15.270  0.00  0.00    +0.000 A 
ATOM      4  C   UNL     1       4.575   6.220  16.363  0.00  0.00    +0.000 A 
ATOM      5  N   UNL     1       3.812   6.973  17.168  0.00  0.00    +0.000 NA
ATOM      6  C   UNL     1       3.197   6.367  18.228  0.00  0.00    +0.000 A 
ATOM      7  C   UNL     1       3.315   4.978  18.426  0.00  0.00    +0.000 A 
ATOM      8  N   UNL     1       4.129   4.233  17.623  0.00  0.00    +0.000 NA
ATOM      9  C   UNL     1       4.766   4.846  16.609  0.00  0.00    +0.000 A 
ATOM     10  C   UNL     1       5.609   4.123  15.769  0.00  0.00    +0.000 A 
ENDROOT
BRANCH   7  11
ATOM     11  C   UNL     1       2.601   4.173  19.451  0.00  0.00    +0.000 A 
ATOM     12  C   UNL     1       1.220   3.898  19.378  0.00  0.00    +0.000 A 
ATOM     13  C   UNL     1       0.552   3.222  20.404  0.00  0.00    +0.000 A 
ATOM     14  C   UNL     1       1.271   2.740  21.486  0.00  0.00    +0.000 A 
ATOM     15  F   UNL     1       0.633   2.090  22.467  0.00  0.00    +0.000 F 
ATOM     16  C   UNL     1       2.645   2.921  21.559  0.00  0.00    +0.000 A 
ATOM     17  C   UNL     1       3.302   3.637  20.553  0.00  0.00    +0.000 A 
ENDBRANCH   7  11
BRANCH   6  18
ATOM     18  C   UNL     1       2.447   7.317  19.086  0.00  0.00    +0.000 A 
ATOM     19  C   UNL     1       1.964   8.524  18.557  0.00  0.00    +0.000 A 
ATOM     20  C   UNL     1       1.207   9.366  19.356  0.00  0.00    +0.000 A 
ATOM     21  N   UNL     1       0.884   9.093  20.636  0.00  0.00    +0.000 NA
ATOM     22  C   UNL     1       1.385   7.954  21.152  0.00  0.00    +0.000 A 
ATOM     23  C   UNL     1       2.184   7.071  20.441  0.00  0.00    +0.000 A 
ENDBRANCH   6  18
BRANCH   1  25
ATOM     24  C   UNL     1       6.656   3.605  12.615  0.00  0.00    +0.000 C 
ATOM     25  O   UNL     1       7.055   3.883  13.954  0.00  0.00    +0.000 OA
ENDBRANCH   1  25
TORSDOF 3
ENDMDL
