MODEL 1
REMARK VINA RESULT:      -7.5      0.000      0.000
REMARK  Name = 
REMARK  6 active torsions:
REMARK  status: ('A' for Active; 'I' for Inactive)
REMARK    1  A    between atoms: C_1  and  C_2
REMARK    2  A    between atoms: C_2  and  N_3
REMARK    3  A    between atoms: C_4  and  C_6
REMARK    4  A    between atoms: C_11  and  C_13
REMARK    5  A    between atoms: C_18  and  O_19
REMARK    6  A    between atoms: O_19  and  C_20
REMARK                            x       y       z     vdW  Elec       q    Type
REMARK                         _______ _______ _______ _____ _____    ______ ____
ROOT
ATOM      1  C   UNL     1       5.851   4.373  14.661  0.00  0.00    +0.000 C 
ATOM      2  C   UNL     1       7.016   5.313  14.978  0.00  0.00    +0.000 C 
ATOM      3  C   UNL     1       7.009   5.887  16.399  0.00  0.00    +0.000 C 
ATOM      4  C   UNL     1       7.018   4.848  17.526  0.00  0.00    +0.000 C 
ATOM      5  N   UNL     1       5.688   4.277  17.768  0.00  0.00    +0.000 N 
ATOM      6  C   UNL     1       4.992   4.694  18.930  0.00  0.00    +0.000 C 
ATOM      7  O   UNL     1       5.479   5.474  19.747  0.00  0.00    +0.000 OA
ATOM      8  C   UNL     1       5.204   3.255  16.840  0.00  0.00    +0.000 C 
ATOM      9  C   UNL     1       5.904   3.100  15.500  0.00  0.00    +0.000 C 
ENDROOT
BRANCH   6  10
ATOM     10  C   UNL     1       3.597   4.230  19.207  0.00  0.00    +0.000 A 
ATOM     11  C   UNL     1       3.409   3.267  20.220  0.00  0.00    +0.000 A 
ATOM     12  C   UNL     1       2.156   2.726  20.508  0.00  0.00    +0.000 A 
ATOM     13  C   UNL     1       1.038   3.220  19.863  0.00  0.00    +0.000 A 
ATOM     14  C   UNL     1       1.183   4.263  18.950  0.00  0.00    +0.000 A 
ATOM     15  C   UNL     1       2.450   4.781  18.602  0.00  0.00    +0.000 A 
BRANCH  15  16
ATOM     16  O   UNL     1       2.319   5.867  17.787  0.00  0.00    +0.000 OA
BRANCH  16  17
ATOM     17  C   UNL     1       2.637   7.182  18.208  0.00  0.00    +0.000 C 
ATOM     18  F   UNL     1       3.836   7.614  17.769  0.00  0.00    +0.000 F 
ATOM     19  F   UNL     1       1.699   8.013  17.691  0.00  0.00    +0.000 F 
ATOM     20  F   UNL     1       2.550   7.276  19.550  0.00  0.00    +0.000 F 
ENDBRANCH  16  17
ENDBRANCH  15  16
ENDBRANCH   6  10
BRANCH   1  22
ATOM     21  N   UNL     1       4.739   3.426  12.709  0.00  0.00    +0.000 N 
ATOM     22  C   UNL     1       5.906   3.976  13.186  0.00  0.00    +0.000 C 
ATOM     23  O   UNL     1       6.904   4.147  12.494  0.00  0.00    +0.000 OA
ATOM     24  H   UNL     1       3.915   3.428  13.289  0.00  0.00    +0.000 HD
BRANCH  21  26
ATOM     25  C   UNL     1       3.445   3.655  10.648  0.00  0.00    +0.000 C 
ATOM     26  C   UNL     1       4.621   2.990  11.336  0.00  0.00    +0.000 C 
ENDBRANCH  21  26
ENDBRANCH   1  22
TORSDOF 5
ENDMDL
MODEL 2
REMARK VINA RESULT:      -7.1      4.362      7.195
REMARK  Name = 
REMARK  6 active torsions:
REMARK  status: ('A' for Active; 'I' for Inactive)
REMARK    1  A    between atoms: C_1  and  C_2
REMARK    2  A    between atoms: C_2  and  N_3
REMARK    3  A    between atoms: C_4  and  C_6
REMARK    4  A    between atoms: C_11  and  C_13
REMARK    5  A    between atoms: C_18  and  O_19
REMARK    6  A    between atoms: O_19  and  C_20
REMARK                            x       y       z     vdW  Elec       q    Type
REMARK                         _______ _______ _______ _____ _____    ______ ____
ROOT
ATOM      1  C   UNL     1      -0.198   9.536  18.701  0.00  0.00    +0.000 C 
ATOM      2  C   UNL     1      -0.606   9.561  20.176  0.00  0.00    +0.000 C 
ATOM      3  C   UNL     1      -0.020   8.426  21.023  0.00  0.00    +0.000 C 
ATOM      4  C   UNL     1       1.510   8.340  21.035  0.00  0.00    +0.000 C 
ATOM      5  N   UNL     1       2.043   7.693  19.830  0.00  0.00    +0.000 N 
ATOM      6  C   UNL     1       2.536   6.370  19.954  0.00  0.00    +0.000 C 
ATOM      7  O   UNL     1       2.569   5.777  21.031  0.00  0.00    +0.000 OA
ATOM      8  C   UNL     1       2.104   8.484  18.600  0.00  0.00    +0.000 C 
ATOM      9  C   UNL     1       1.299   9.771  18.523  0.00  0.00    +0.000 C 
ENDROOT
BRANCH   6  10
ATOM     10  C   UNL     1       3.014   5.605  18.761  0.00  0.00    +0.000 A 
ATOM     11  C   UNL     1       4.326   5.844  18.304  0.00  0.00    +0.000 A 
ATOM     12  C   UNL     1       4.839   5.228  17.163  0.00  0.00    +0.000 A 
ATOM     13  C   UNL     1       4.087   4.269  16.512  0.00  0.00    +0.000 A 
ATOM     14  C   UNL     1       2.837   3.922  17.021  0.00  0.00    +0.000 A 
ATOM     15  C   UNL     1       2.277   4.578  18.139  0.00  0.00    +0.000 A 
BRANCH  15  16
ATOM     16  O   UNL     1       1.109   3.982  18.512  0.00  0.00    +0.000 OA
BRANCH  16  17
ATOM     17  C   UNL     1       1.062   2.882  19.404  0.00  0.00    +0.000 C 
ATOM     18  F   UNL     1       0.493   3.173  20.590  0.00  0.00    +0.000 F 
ATOM     19  F   UNL     1       0.304   1.919  18.824  0.00  0.00    +0.000 F 
ATOM     20  F   UNL     1       2.295   2.364  19.571  0.00  0.00    +0.000 F 
ENDBRANCH  16  17
ENDBRANCH  15  16
ENDBRANCH   6  10
BRANCH   1  22
ATOM     21  N   UNL     1      -1.759  10.173  16.940  0.00  0.00    +0.000 N 
ATOM     22  C   UNL     1      -0.946  10.636  17.949  0.00  0.00    +0.000 C 
ATOM     23  O   UNL     1      -0.834  11.824  18.233  0.00  0.00    +0.000 OA
ATOM     24  H   UNL     1      -1.907   9.181  16.837  0.00  0.00    +0.000 HD
BRANCH  21  26
ATOM     25  C   UNL     1      -3.098  10.378  14.906  0.00  0.00    +0.000 C 
ATOM     26  C   UNL     1      -2.535  11.081  16.125  0.00  0.00    +0.000 C 
ENDBRANCH  21  26
ENDBRANCH   1  22
TORSDOF 5
ENDMDL
MODEL 3
REMARK VINA RESULT:      -7.0      1.034      1.332
REMARK  Name = 
REMARK  6 active torsions:
REMARK  status: ('A' for Active; 'I' for Inactive)
REMARK    1  A    between atoms: C_1  and  C_2
REMARK    2  A    between atoms: C_2  and  N_3
REMARK    3  A    between atoms: C_4  and  C_6
REMARK    4  A    between atoms: C_11  and  C_13
REMARK    5  A    between atoms: C_18  and  O_19
REMARK    6  A    between atoms: O_19  and  C_20
REMARK                            x       y       z     vdW  Elec       q    Type
REMARK                         _______ _______ _______ _____ _____    ______ ____
ROOT
ATOM      1  C   UNL     1       5.620   4.238  14.675  0.00  0.00    +0.000 C 
ATOM      2  C   UNL     1       6.834   5.144  14.891  0.00  0.00    +0.000 C 
ATOM      3  C   UNL     1       6.931   5.763  16.289  0.00  0.00    +0.000 C 
ATOM      4  C   UNL     1       6.972   4.762  17.449  0.00  0.00    +0.000 C 
ATOM      5  N   UNL     1       5.640   4.246  17.788  0.00  0.00    +0.000 N 
ATOM      6  C   UNL     1       5.029   4.725  18.974  0.00  0.00    +0.000 C 
ATOM      7  O   UNL     1       5.590   5.513  19.733  0.00  0.00    +0.000 OA
ATOM      8  C   UNL     1       5.067   3.213  16.925  0.00  0.00    +0.000 C 
ATOM      9  C   UNL     1       5.680   2.990  15.552  0.00  0.00    +0.000 C 
ENDROOT
BRANCH   6  10
ATOM     10  C   UNL     1       3.639   4.321  19.348  0.00  0.00    +0.000 A 
ATOM     11  C   UNL     1       3.475   3.451  20.445  0.00  0.00    +0.000 A 
ATOM     12  C   UNL     1       2.225   2.967  20.830  0.00  0.00    +0.000 A 
ATOM     13  C   UNL     1       1.090   3.433  20.193  0.00  0.00    +0.000 A 
ATOM     14  C   UNL     1       1.217   4.393  19.191  0.00  0.00    +0.000 A 
ATOM     15  C   UNL     1       2.478   4.848  18.747  0.00  0.00    +0.000 A 
BRANCH  15  16
ATOM     16  O   UNL     1       2.334   5.865  17.851  0.00  0.00    +0.000 OA
BRANCH  16  17
ATOM     17  C   UNL     1       2.605   7.217  18.177  0.00  0.00    +0.000 C 
ATOM     18  F   UNL     1       1.693   8.082  17.691  0.00  0.00    +0.000 F 
ATOM     19  F   UNL     1       2.576   7.323  19.528  0.00  0.00    +0.000 F 
ATOM     20  F   UNL     1       3.850   7.552  17.782  0.00  0.00    +0.000 F 
ENDBRANCH  16  17
ENDBRANCH  15  16
ENDBRANCH   6  10
BRANCH   1  22
ATOM     21  N   UNL     1       6.737   3.208  12.768  0.00  0.00    +0.000 N 
ATOM     22  C   UNL     1       5.574   3.792  13.214  0.00  0.00    +0.000 C 
ATOM     23  O   UNL     1       4.579   3.936  12.511  0.00  0.00    +0.000 OA
ATOM     24  H   UNL     1       7.474   3.003  13.425  0.00  0.00    +0.000 HD
BRANCH  21  26
ATOM     25  C   UNL     1       6.367   1.309  11.276  0.00  0.00    +0.000 C 
ATOM     26  C   UNL     1       6.866   2.734  11.408  0.00  0.00    +0.000 C 
ENDBRANCH  21  26
ENDBRANCH   1  22
TORSDOF 5
ENDMDL
MODEL 4
REMARK VINA RESULT:      -6.7      4.034      6.908
REMARK  Name = 
REMARK  6 active torsions:
REMARK  status: ('A' for Active; 'I' for Inactive)
REMARK    1  A    between atoms: C_1  and  C_2
REMARK    2  A    between atoms: C_2  and  N_3
REMARK    3  A    between atoms: C_4  and  C_6
REMARK    4  A    between atoms: C_11  and  C_13
REMARK    5  A    between atoms: C_18  and  O_19
REMARK    6  A    between atoms: O_19  and  C_20
REMARK                            x       y       z     vdW  Elec       q    Type
REMARK                         _______ _______ _______ _____ _____    ______ ____
ROOT
ATOM      1  C   UNL     1      -0.116   9.524  18.868  0.00  0.00    +0.000 C 
ATOM      2  C   UNL     1      -0.324   9.758  20.366  0.00  0.00    +0.000 C 
ATOM      3  C   UNL     1       0.222   8.647  21.270  0.00  0.00    +0.000 C 
ATOM      4  C   UNL     1       1.719   8.354  21.118  0.00  0.00    +0.000 C 
ATOM      5  N   UNL     1       2.007   7.519  19.947  0.00  0.00    +0.000 N 
ATOM      6  C   UNL     1       2.346   6.161  20.171  0.00  0.00    +0.000 C 
ATOM      7  O   UNL     1       2.443   5.683  21.300  0.00  0.00    +0.000 OA
ATOM      8  C   UNL     1       2.007   8.162  18.632  0.00  0.00    +0.000 C 
ATOM      9  C   UNL     1       1.364   9.531  18.493  0.00  0.00    +0.000 C 
ENDROOT
BRANCH   6  10
ATOM     10  C   UNL     1       2.567   5.218  19.031  0.00  0.00    +0.000 A 
ATOM     11  C   UNL     1       1.481   4.426  18.606  0.00  0.00    +0.000 A 
ATOM     12  C   UNL     1       1.605   3.473  17.596  0.00  0.00    +0.000 A 
ATOM     13  C   UNL     1       2.798   3.366  16.906  0.00  0.00    +0.000 A 
ATOM     14  C   UNL     1       3.847   4.227  17.222  0.00  0.00    +0.000 A 
ATOM     15  C   UNL     1       3.759   5.156  18.281  0.00  0.00    +0.000 A 
BRANCH  15  16
ATOM     16  O   UNL     1       4.861   5.958  18.312  0.00  0.00    +0.000 OA
BRANCH  16  17
ATOM     17  C   UNL     1       5.321   6.670  17.176  0.00  0.00    +0.000 C 
ATOM     18  F   UNL     1       4.331   7.228  16.452  0.00  0.00    +0.000 F 
ATOM     19  F   UNL     1       6.109   7.680  17.620  0.00  0.00    +0.000 F 
ATOM     20  F   UNL     1       6.094   5.876  16.409  0.00  0.00    +0.000 F 
ENDBRANCH  16  17
ENDBRANCH  15  16
ENDBRANCH   6  10
BRANCH   1  22
ATOM     21  N   UNL     1      -1.742  10.177  17.173  0.00  0.00    +0.000 N 
ATOM     22  C   UNL     1      -0.813  10.632  18.080  0.00  0.00    +0.000 C 
ATOM     23  O   UNL     1      -0.568  11.821  18.255  0.00  0.00    +0.000 OA
ATOM     24  H   UNL     1      -1.990   9.200  17.164  0.00  0.00    +0.000 HD
BRANCH  21  26
ATOM     25  C   UNL     1      -2.912  10.432  15.043  0.00  0.00    +0.000 C 
ATOM     26  C   UNL     1      -2.490  11.092  16.341  0.00  0.00    +0.000 C 
ENDBRANCH  21  26
ENDBRANCH   1  22
TORSDOF 5
ENDMDL
MODEL 5
REMARK VINA RESULT:      -6.7      2.246      3.241
REMARK  Name = 
REMARK  6 active torsions:
REMARK  status: ('A' for Active; 'I' for Inactive)
REMARK    1  A    between atoms: C_1  and  C_2
REMARK    2  A    between atoms: C_2  and  N_3
REMARK    3  A    between atoms: C_4  and  C_6
REMARK    4  A    between atoms: C_11  and  C_13
REMARK    5  A    between atoms: C_18  and  O_19
REMARK    6  A    between atoms: O_19  and  C_20
REMARK                            x       y       z     vdW  Elec       q    Type
REMARK                         _______ _______ _______ _____ _____    ______ ____
ROOT
ATOM      1  C   UNL     1       5.609   4.090  13.320  0.00  0.00    +0.000 C 
ATOM      2  C   UNL     1       7.076   4.459  13.089  0.00  0.00    +0.000 C 
ATOM      3  C   UNL     1       7.682   5.377  14.157  0.00  0.00    +0.000 C 
ATOM      4  C   UNL     1       7.628   4.838  15.591  0.00  0.00    +0.000 C 
ATOM      5  N   UNL     1       6.309   5.021  16.207  0.00  0.00    +0.000 N 
ATOM      6  C   UNL     1       6.173   6.034  17.189  0.00  0.00    +0.000 C 
ATOM      7  O   UNL     1       7.121   6.722  17.563  0.00  0.00    +0.000 OA
ATOM      8  C   UNL     1       5.242   4.094  15.826  0.00  0.00    +0.000 C 
ATOM      9  C   UNL     1       5.427   3.247  14.579  0.00  0.00    +0.000 C 
ENDROOT
BRANCH   6  10
ATOM     10  C   UNL     1       4.845   6.347  17.802  0.00  0.00    +0.000 A 
ATOM     11  C   UNL     1       4.057   7.349  17.198  0.00  0.00    +0.000 A 
ATOM     12  C   UNL     1       2.835   7.757  17.732  0.00  0.00    +0.000 A 
ATOM     13  C   UNL     1       2.316   7.091  18.826  0.00  0.00    +0.000 A 
ATOM     14  C   UNL     1       3.016   6.012  19.363  0.00  0.00    +0.000 A 
ATOM     15  C   UNL     1       4.282   5.625  18.873  0.00  0.00    +0.000 A 
BRANCH  15  16
ATOM     16  O   UNL     1       4.703   4.478  19.479  0.00  0.00    +0.000 OA
BRANCH  16  17
ATOM     17  C   UNL     1       3.953   3.276  19.446  0.00  0.00    +0.000 C 
ATOM     18  F   UNL     1       3.378   3.031  18.252  0.00  0.00    +0.000 F 
ATOM     19  F   UNL     1       4.810   2.255  19.694  0.00  0.00    +0.000 F 
ATOM     20  F   UNL     1       3.038   3.271  20.436  0.00  0.00    +0.000 F 
ENDBRANCH  16  17
ENDBRANCH  15  16
ENDBRANCH   6  10
BRANCH   1  22
ATOM     21  N   UNL     1       3.950   3.792  11.558  0.00  0.00    +0.000 N 
ATOM     22  C   UNL     1       5.095   3.285  12.127  0.00  0.00    +0.000 C 
ATOM     23  O   UNL     1       5.666   2.281  11.714  0.00  0.00    +0.000 OA
ATOM     24  H   UNL     1       3.600   4.688  11.861  0.00  0.00    +0.000 HD
BRANCH  21  26
ATOM     25  C   UNL     1       2.837   4.170   9.415  0.00  0.00    +0.000 C 
ATOM     26  C   UNL     1       3.327   3.149  10.423  0.00  0.00    +0.000 C 
ENDBRANCH  21  26
ENDBRANCH   1  22
TORSDOF 5
ENDMDL
MODEL 6
REMARK VINA RESULT:      -6.7      4.134      6.929
REMARK  Name = 
REMARK  6 active torsions:
REMARK  status: ('A' for Active; 'I' for Inactive)
REMARK    1  A    between atoms: C_1  and  C_2
REMARK    2  A    between atoms: C_2  and  N_3
REMARK    3  A    between atoms: C_4  and  C_6
REMARK    4  A    between atoms: C_11  and  C_13
REMARK    5  A    between atoms: C_18  and  O_19
REMARK    6  A    between atoms: O_19  and  C_20
REMARK                            x       y       z     vdW  Elec       q    Type
REMARK                         _______ _______ _______ _____ _____    ______ ____
ROOT
ATOM      1  C   UNL     1      -0.162   9.501  18.794  0.00  0.00    +0.000 C 
ATOM      2  C   UNL     1      -0.322   9.770  20.292  0.00  0.00    +0.000 C 
ATOM      3  C   UNL     1       0.267   8.689  21.205  0.00  0.00    +0.000 C 
ATOM      4  C   UNL     1       1.761   8.407  21.009  0.00  0.00    +0.000 C 
ATOM      5  N   UNL     1       2.019   7.546  19.849  0.00  0.00    +0.000 N 
ATOM      6  C   UNL     1       2.380   6.197  20.095  0.00  0.00    +0.000 C 
ATOM      7  O   UNL     1       2.521   5.750  21.232  0.00  0.00    +0.000 OA
ATOM      8  C   UNL     1       1.967   8.155  18.520  0.00  0.00    +0.000 C 
ATOM      9  C   UNL     1       1.304   9.514  18.369  0.00  0.00    +0.000 C 
ENDROOT
BRANCH   6  10
ATOM     10  C   UNL     1       2.573   5.228  18.973  0.00  0.00    +0.000 A 
ATOM     11  C   UNL     1       1.508   4.361  18.656  0.00  0.00    +0.000 A 
ATOM     12  C   UNL     1       1.614   3.381  17.670  0.00  0.00    +0.000 A 
ATOM     13  C   UNL     1       2.757   3.318  16.896  0.00  0.00    +0.000 A 
ATOM     14  C   UNL     1       3.773   4.248  17.104  0.00  0.00    +0.000 A 
ATOM     15  C   UNL     1       3.708   5.208  18.137  0.00  0.00    +0.000 A 
BRANCH  15  16
ATOM     16  O   UNL     1       4.760   6.072  18.059  0.00  0.00    +0.000 OA
BRANCH  16  17
ATOM     17  C   UNL     1       6.071   5.720  18.464  0.00  0.00    +0.000 C 
ATOM     18  F   UNL     1       6.566   4.647  17.816  0.00  0.00    +0.000 F 
ATOM     19  F   UNL     1       6.881   6.769  18.178  0.00  0.00    +0.000 F 
ATOM     20  F   UNL     1       6.115   5.542  19.800  0.00  0.00    +0.000 F 
ENDBRANCH  16  17
ENDBRANCH  15  16
ENDBRANCH   6  10
BRANCH   1  22
ATOM     21  N   UNL     1      -1.748  10.091  17.039  0.00  0.00    +0.000 N 
ATOM     22  C   UNL     1      -0.898  10.582  18.004  0.00  0.00    +0.000 C 
ATOM     23  O   UNL     1      -0.747  11.779  18.223  0.00  0.00    +0.000 OA
ATOM     24  H   UNL     1      -1.925   9.100  16.991  0.00  0.00    +0.000 HD
BRANCH  21  26
ATOM     25  C   UNL     1      -2.932  10.289  14.910  0.00  0.00    +0.000 C 
ATOM     26  C   UNL     1      -2.518  10.977  16.196  0.00  0.00    +0.000 C 
ENDBRANCH  21  26
ENDBRANCH   1  22
TORSDOF 5
ENDMDL
MODEL 7
REMARK VINA RESULT:      -6.7      2.343      3.356
REMARK  Name = 
REMARK  6 active torsions:
REMARK  status: ('A' for Active; 'I' for Inactive)
REMARK    1  A    between atoms: C_1  and  C_2
REMARK    2  A    between atoms: C_2  and  N_3
REMARK    3  A    between atoms: C_4  and  C_6
REMARK    4  A    between atoms: C_11  and  C_13
REMARK    5  A    between atoms: C_18  and  O_19
REMARK    6  A    between atoms: O_19  and  C_20
REMARK                            x       y       z     vdW  Elec       q    Type
REMARK                         _______ _______ _______ _____ _____    ______ ____
ROOT
ATOM      1  C   UNL     1       5.702   4.043  13.493  0.00  0.00    +0.000 C 
ATOM      2  C   UNL     1       7.135   4.526  13.258  0.00  0.00    +0.000 C 
ATOM      3  C   UNL     1       7.660   5.511  14.309  0.00  0.00    +0.000 C 
ATOM      4  C   UNL     1       7.644   4.998  15.754  0.00  0.00    +0.000 C 
ATOM      5  N   UNL     1       6.312   5.084  16.362  0.00  0.00    +0.000 N 
ATOM      6  C   UNL     1       6.090   6.102  17.324  0.00  0.00    +0.000 C 
ATOM      7  O   UNL     1       6.978   6.872  17.686  0.00  0.00    +0.000 OA
ATOM      8  C   UNL     1       5.327   4.066  15.998  0.00  0.00    +0.000 C 
ATOM      9  C   UNL     1       5.585   3.212  14.768  0.00  0.00    +0.000 C 
ENDROOT
BRANCH   6  10
ATOM     10  C   UNL     1       4.739   6.317  17.928  0.00  0.00    +0.000 A 
ATOM     11  C   UNL     1       3.898   7.284  17.340  0.00  0.00    +0.000 A 
ATOM     12  C   UNL     1       2.647   7.602  17.868  0.00  0.00    +0.000 A 
ATOM     13  C   UNL     1       2.158   6.878  18.938  0.00  0.00    +0.000 A 
ATOM     14  C   UNL     1       2.917   5.830  19.456  0.00  0.00    +0.000 A 
ATOM     15  C   UNL     1       4.210   5.534  18.973  0.00  0.00    +0.000 A 
BRANCH  15  16
ATOM     16  O   UNL     1       4.694   4.400  19.555  0.00  0.00    +0.000 OA
BRANCH  16  17
ATOM     17  C   UNL     1       4.011   3.159  19.497  0.00  0.00    +0.000 C 
ATOM     18  F   UNL     1       4.801   2.097  19.747  0.00  0.00    +0.000 F 
ATOM     19  F   UNL     1       3.051   3.177  20.454  0.00  0.00    +0.000 F 
ATOM     20  F   UNL     1       3.383   3.028  18.311  0.00  0.00    +0.000 F 
ENDBRANCH  16  17
ENDBRANCH  15  16
ENDBRANCH   6  10
BRANCH   1  22
ATOM     21  N   UNL     1       6.123   2.142  12.024  0.00  0.00    +0.000 N 
ATOM     22  C   UNL     1       5.261   3.175  12.315  0.00  0.00    +0.000 C 
ATOM     23  O   UNL     1       4.222   3.381  11.696  0.00  0.00    +0.000 OA
ATOM     24  H   UNL     1       6.892   1.948  12.646  0.00  0.00    +0.000 HD
BRANCH  21  26
ATOM     25  C   UNL     1       6.163  -0.202  11.337  0.00  0.00    +0.000 C 
ATOM     26  C   UNL     1       5.859   1.228  10.936  0.00  0.00    +0.000 C 
ENDBRANCH  21  26
ENDBRANCH   1  22
TORSDOF 5
ENDMDL
MODEL 8
REMARK VINA RESULT:      -6.6      4.430      7.639
REMARK  Name = 
REMARK  6 active torsions:
REMARK  status: ('A' for Active; 'I' for Inactive)
REMARK    1  A    between atoms: C_1  and  C_2
REMARK    2  A    between atoms: C_2  and  N_3
REMARK    3  A    between atoms: C_4  and  C_6
REMARK    4  A    between atoms: C_11  and  C_13
REMARK    5  A    between atoms: C_18  and  O_19
REMARK    6  A    between atoms: O_19  and  C_20
REMARK                            x       y       z     vdW  Elec       q    Type
REMARK                         _______ _______ _______ _____ _____    ______ ____
ROOT
ATOM      1  C   UNL     1       0.003   9.670  19.001  0.00  0.00    +0.000 C 
ATOM      2  C   UNL     1      -0.504   9.578  20.442  0.00  0.00    +0.000 C 
ATOM      3  C   UNL     1      -0.063   8.321  21.198  0.00  0.00    +0.000 C 
ATOM      4  C   UNL     1       1.453   8.113  21.297  0.00  0.00    +0.000 C 
ATOM      5  N   UNL     1       2.020   7.551  20.066  0.00  0.00    +0.000 N 
ATOM      6  C   UNL     1       2.406   6.187  20.079  0.00  0.00    +0.000 C 
ATOM      7  O   UNL     1       2.321   5.487  21.086  0.00  0.00    +0.000 OA
ATOM      8  C   UNL     1       2.225   8.454  18.933  0.00  0.00    +0.000 C 
ATOM      9  C   UNL     1       1.523   9.802  18.942  0.00  0.00    +0.000 C 
ENDROOT
BRANCH   6  10
ATOM     10  C   UNL     1       2.910   5.511  18.843  0.00  0.00    +0.000 A 
ATOM     11  C   UNL     1       4.214   5.819  18.405  0.00  0.00    +0.000 A 
ATOM     12  C   UNL     1       4.749   5.291  17.231  0.00  0.00    +0.000 A 
ATOM     13  C   UNL     1       4.029   4.348  16.521  0.00  0.00    +0.000 A 
ATOM     14  C   UNL     1       2.790   3.931  17.004  0.00  0.00    +0.000 A 
ATOM     15  C   UNL     1       2.208   4.500  18.158  0.00  0.00    +0.000 A 
BRANCH  15  16
ATOM     16  O   UNL     1       1.060   3.844  18.491  0.00  0.00    +0.000 OA
BRANCH  16  17
ATOM     17  C   UNL     1       1.045   2.710  19.342  0.00  0.00    +0.000 C 
ATOM     18  F   UNL     1       0.467   2.940  20.537  0.00  0.00    +0.000 F 
ATOM     19  F   UNL     1       0.317   1.748  18.724  0.00  0.00    +0.000 F 
ATOM     20  F   UNL     1       2.293   2.224  19.492  0.00  0.00    +0.000 F 
ENDBRANCH  16  17
ENDBRANCH  15  16
ENDBRANCH   6  10
BRANCH   1  22
ATOM     21  N   UNL     1       0.086  12.064  18.545  0.00  0.00    +0.000 N 
ATOM     22  C   UNL     1      -0.609  10.896  18.325  0.00  0.00    +0.000 C 
ATOM     23  O   UNL     1      -1.624  10.834  17.640  0.00  0.00    +0.000 OA
ATOM     24  H   UNL     1       0.980  12.030  19.009  0.00  0.00    +0.000 HD
BRANCH  21  26
ATOM     25  C   UNL     1      -0.359  14.418  19.026  0.00  0.00    +0.000 C 
ATOM     26  C   UNL     1      -0.359  13.319  17.982  0.00  0.00    +0.000 C 
ENDBRANCH  21  26
ENDBRANCH   1  22
TORSDOF 5
ENDMDL
MODEL 9
REMARK VINA RESULT:      -6.5      2.596      3.282
REMARK  Name = 
REMARK  6 active torsions:
REMARK  status: ('A' for Active; 'I' for Inactive)
REMARK    1  A    between atoms: C_1  and  C_2
REMARK    2  A    between atoms: C_2  and  N_3
REMARK    3  A    between atoms: C_4  and  C_6
REMARK    4  A    between atoms: C_11  and  C_13
REMARK    5  A    between atoms: C_18  and  O_19
REMARK    6  A    between atoms: O_19  and  C_20
REMARK                            x       y       z     vdW  Elec       q    Type
REMARK                         _______ _______ _______ _____ _____    ______ ____
ROOT
ATOM      1  C   UNL     1       6.083   5.067  15.255  0.00  0.00    +0.000 C 
ATOM      2  C   UNL     1       6.710   6.371  15.754  0.00  0.00    +0.000 C 
ATOM      3  C   UNL     1       6.090   6.931  17.039  0.00  0.00    +0.000 C 
ATOM      4  C   UNL     1       6.120   5.987  18.247  0.00  0.00    +0.000 C 
ATOM      5  N   UNL     1       5.057   4.977  18.193  0.00  0.00    +0.000 N 
ATOM      6  C   UNL     1       3.951   5.135  19.065  0.00  0.00    +0.000 C 
ATOM      7  O   UNL     1       3.879   6.054  19.879  0.00  0.00    +0.000 OA
ATOM      8  C   UNL     1       5.247   3.832  17.302  0.00  0.00    +0.000 C 
ATOM      9  C   UNL     1       6.319   3.916  16.229  0.00  0.00    +0.000 C 
ENDROOT
BRANCH   6  10
ATOM     10  C   UNL     1       2.782   4.203  19.014  0.00  0.00    +0.000 A 
ATOM     11  C   UNL     1       1.849   4.369  17.970  0.00  0.00    +0.000 A 
ATOM     12  C   UNL     1       0.695   3.592  17.873  0.00  0.00    +0.000 A 
ATOM     13  C   UNL     1       0.501   2.551  18.761  0.00  0.00    +0.000 A 
ATOM     14  C   UNL     1       1.474   2.285  19.723  0.00  0.00    +0.000 A 
ATOM     15  C   UNL     1       2.619   3.098  19.873  0.00  0.00    +0.000 A 
BRANCH  15  16
ATOM     16  O   UNL     1       3.470   2.566  20.795  0.00  0.00    +0.000 OA
BRANCH  16  17
ATOM     17  C   UNL     1       4.684   1.927  20.437  0.00  0.00    +0.000 C 
ATOM     18  F   UNL     1       5.680   2.786  20.147  0.00  0.00    +0.000 F 
ATOM     19  F   UNL     1       5.086   1.192  21.503  0.00  0.00    +0.000 F 
ATOM     20  F   UNL     1       4.474   1.065  19.422  0.00  0.00    +0.000 F 
ENDBRANCH  16  17
ENDBRANCH  15  16
ENDBRANCH   6  10
BRANCH   1  22
ATOM     21  N   UNL     1       6.171   3.551  13.348  0.00  0.00    +0.000 N 
ATOM     22  C   UNL     1       6.702   4.689  13.910  0.00  0.00    +0.000 C 
ATOM     23  O   UNL     1       7.586   5.354  13.380  0.00  0.00    +0.000 OA
ATOM     24  H   UNL     1       5.362   3.121  13.767  0.00  0.00    +0.000 HD
BRANCH  21  26
ATOM     25  C   UNL     1       5.608   2.166  11.415  0.00  0.00    +0.000 C 
ATOM     26  C   UNL     1       6.646   3.049  12.078  0.00  0.00    +0.000 C 
ENDBRANCH  21  26
ENDBRANCH   1  22
TORSDOF 5
ENDMDL
