MODEL 1
REMARK VINA RESULT:      -7.7      0.000      0.000
REMARK  Name = 
REMARK  5 active torsions:
REMARK  status: ('A' for Active; 'I' for Inactive)
REMARK    1  A    between atoms: C_2  and  C_3
REMARK    2  A    between atoms: C_3  and  N_4
REMARK    3  A    between atoms: N_12  and  C_13
REMARK    4  A    between atoms: C_13  and  C_14
REMARK    5  A    between atoms: N_17  and  C_18
REMARK                            x       y       z     vdW  Elec       q    Type
REMARK                         _______ _______ _______ _____ _____    ______ ____
ROOT
ATOM      1  O   UNL     1       2.965   3.677  16.536  0.00  0.00    +0.000 OA
ATOM      2  C   UNL     1       3.843   3.069  17.139  0.00  0.00    +0.000 C 
ATOM      3  N   UNL     1       5.151   3.503  17.227  0.00  0.00    +0.000 N 
ATOM      4  H   UNL     1       5.806   2.937  17.757  0.00  0.00    +0.000 HD
ENDROOT
BRANCH   2   5
ATOM      5  C   UNL     1       3.556   1.773  17.908  0.00  0.00    +0.000 C 
BRANCH   5   6
ATOM      6  N   UNL     1       2.883   2.012  19.187  0.00  0.00    +0.000 N 
ATOM      7  C   UNL     1       1.423   2.088  19.186  0.00  0.00    +0.000 C 
ATOM      8  C   UNL     1       0.882   3.473  19.524  0.00  0.00    +0.000 C 
ATOM      9  C   UNL     1       0.877   3.778  21.019  0.00  0.00    +0.000 C 
ATOM     10  C   UNL     1       2.260   3.778  21.665  0.00  0.00    +0.000 C 
ATOM     11  C   UNL     1       2.949   2.421  21.628  0.00  0.00    +0.000 C 
ATOM     12  C   UNL     1       3.664   2.170  20.317  0.00  0.00    +0.000 C 
ATOM     13  O   UNL     1       4.895   2.110  20.277  0.00  0.00    +0.000 OA
ENDBRANCH   5   6
ENDBRANCH   2   5
BRANCH   3  14
ATOM     14  C   UNL     1       5.643   4.686  16.554  0.00  0.00    +0.000 C 
BRANCH  14  15
ATOM     15  C   UNL     1       5.591   5.983  17.374  0.00  0.00    +0.000 C 
ATOM     16  C   UNL     1       5.622   5.781  18.887  0.00  0.00    +0.000 C 
ATOM     17  C   UNL     1       4.158   5.695  19.293  0.00  0.00    +0.000 C 
ATOM     18  N   UNL     1       3.431   6.488  18.294  0.00  0.00    +0.000 N 
ATOM     19  C   UNL     1       4.318   6.817  17.161  0.00  0.00    +0.000 C 
BRANCH  18  20
ATOM     20  C   UNL     1       2.589   7.526  18.688  0.00  0.00    +0.000 A 
ATOM     21  C   UNL     1       2.033   7.628  19.971  0.00  0.00    +0.000 A 
ATOM     22  C   UNL     1       1.172   8.676  20.315  0.00  0.00    +0.000 A 
ATOM     23  C   UNL     1       0.855   9.655  19.379  0.00  0.00    +0.000 A 
ATOM     24  C   UNL     1       1.406   9.585  18.104  0.00  0.00    +0.000 A 
ATOM     25  C   UNL     1       2.268   8.535  17.767  0.00  0.00    +0.000 A 
ENDBRANCH  18  20
ENDBRANCH  14  15
ENDBRANCH   3  14
TORSDOF 5
ENDMDL
MODEL 2
REMARK VINA RESULT:      -7.1      2.352      5.171
REMARK  Name = 
REMARK  5 active torsions:
REMARK  status: ('A' for Active; 'I' for Inactive)
REMARK    1  A    between atoms: C_2  and  C_3
REMARK    2  A    between atoms: C_3  and  N_4
REMARK    3  A    between atoms: N_12  and  C_13
REMARK    4  A    between atoms: C_13  and  C_14
REMARK    5  A    between atoms: N_17  and  C_18
REMARK                            x       y       z     vdW  Elec       q    Type
REMARK                         _______ _______ _______ _____ _____    ______ ____
ROOT
ATOM      1  O   UNL     1       3.868   7.149  17.693  0.00  0.00    +0.000 OA
ATOM      2  C   UNL     1       3.375   6.164  18.232  0.00  0.00    +0.000 C 
ATOM      3  N   UNL     1       4.083   5.306  19.050  0.00  0.00    +0.000 N 
ATOM      4  H   UNL     1       3.587   4.521  19.460  0.00  0.00    +0.000 HD
ENDROOT
BRANCH   2   5
ATOM      5  C   UNL     1       1.888   5.814  18.087  0.00  0.00    +0.000 C 
BRANCH   5   6
ATOM      6  N   UNL     1       1.527   4.581  18.790  0.00  0.00    +0.000 N 
ATOM      7  C   UNL     1       0.997   4.700  20.147  0.00  0.00    +0.000 C 
ATOM      8  C   UNL     1       1.921   4.124  21.216  0.00  0.00    +0.000 C 
ATOM      9  C   UNL     1       1.839   2.605  21.338  0.00  0.00    +0.000 C 
ATOM     10  C   UNL     1       2.253   1.851  20.078  0.00  0.00    +0.000 C 
ATOM     11  C   UNL     1       1.345   2.114  18.885  0.00  0.00    +0.000 C 
ATOM     12  C   UNL     1       1.721   3.377  18.139  0.00  0.00    +0.000 C 
ATOM     13  O   UNL     1       2.180   3.316  16.996  0.00  0.00    +0.000 OA
ENDBRANCH   5   6
ENDBRANCH   2   5
BRANCH   3  14
ATOM     14  C   UNL     1       5.502   5.436  19.300  0.00  0.00    +0.000 C 
BRANCH  14  15
ATOM     15  C   UNL     1       6.416   4.645  18.354  0.00  0.00    +0.000 C 
ATOM     16  C   UNL     1       7.690   5.379  17.939  0.00  0.00    +0.000 C 
ATOM     17  C   UNL     1       7.315   6.105  16.656  0.00  0.00    +0.000 C 
ATOM     18  N   UNL     1       6.253   5.293  16.048  0.00  0.00    +0.000 N 
ATOM     19  C   UNL     1       5.772   4.281  17.008  0.00  0.00    +0.000 C 
BRANCH  18  20
ATOM     20  C   UNL     1       6.373   4.834  14.737  0.00  0.00    +0.000 A 
ATOM     21  C   UNL     1       5.446   3.973  14.131  0.00  0.00    +0.000 A 
ATOM     22  C   UNL     1       5.620   3.519  12.820  0.00  0.00    +0.000 A 
ATOM     23  C   UNL     1       6.725   3.925  12.079  0.00  0.00    +0.000 A 
ATOM     24  C   UNL     1       7.650   4.791  12.652  0.00  0.00    +0.000 A 
ATOM     25  C   UNL     1       7.470   5.243  13.965  0.00  0.00    +0.000 A 
ENDBRANCH  18  20
ENDBRANCH  14  15
ENDBRANCH   3  14
TORSDOF 5
ENDMDL
MODEL 3
REMARK VINA RESULT:      -7.1      2.481      5.440
REMARK  Name = 
REMARK  5 active torsions:
REMARK  status: ('A' for Active; 'I' for Inactive)
REMARK    1  A    between atoms: C_2  and  C_3
REMARK    2  A    between atoms: C_3  and  N_4
REMARK    3  A    between atoms: N_12  and  C_13
REMARK    4  A    between atoms: C_13  and  C_14
REMARK    5  A    between atoms: N_17  and  C_18
REMARK                            x       y       z     vdW  Elec       q    Type
REMARK                         _______ _______ _______ _____ _____    ______ ____
ROOT
ATOM      1  O   UNL     1       5.172   2.662  19.776  0.00  0.00    +0.000 OA
ATOM      2  C   UNL     1       4.497   3.591  19.344  0.00  0.00    +0.000 C 
ATOM      3  N   UNL     1       5.018   4.826  19.015  0.00  0.00    +0.000 N 
ATOM      4  H   UNL     1       4.382   5.531  18.655  0.00  0.00    +0.000 HD
ENDROOT
BRANCH   2   5
ATOM      5  C   UNL     1       2.993   3.449  19.077  0.00  0.00    +0.000 C 
BRANCH   5   6
ATOM      6  N   UNL     1       2.271   4.715  19.225  0.00  0.00    +0.000 N 
ATOM      7  C   UNL     1       1.915   5.444  18.010  0.00  0.00    +0.000 C 
ATOM      8  C   UNL     1       2.650   6.771  17.856  0.00  0.00    +0.000 C 
ATOM      9  C   UNL     1       2.047   7.902  18.685  0.00  0.00    +0.000 C 
ATOM     10  C   UNL     1       2.079   7.660  20.192  0.00  0.00    +0.000 C 
ATOM     11  C   UNL     1       1.239   6.469  20.635  0.00  0.00    +0.000 C 
ATOM     12  C   UNL     1       1.982   5.156  20.503  0.00  0.00    +0.000 C 
ATOM     13  O   UNL     1       2.308   4.518  21.507  0.00  0.00    +0.000 OA
ENDBRANCH   5   6
ENDBRANCH   2   5
BRANCH   3  14
ATOM     14  C   UNL     1       6.407   5.182  19.213  0.00  0.00    +0.000 C 
BRANCH  14  15
ATOM     15  C   UNL     1       7.133   5.729  17.976  0.00  0.00    +0.000 C 
ATOM     16  C   UNL     1       6.430   6.900  17.292  0.00  0.00    +0.000 C 
ATOM     17  C   UNL     1       5.539   6.252  16.243  0.00  0.00    +0.000 C 
ATOM     18  N   UNL     1       6.212   4.998  15.883  0.00  0.00    +0.000 N 
ATOM     19  C   UNL     1       7.300   4.711  16.838  0.00  0.00    +0.000 C 
BRANCH  18  20
ATOM     20  C   UNL     1       6.521   4.714  14.554  0.00  0.00    +0.000 A 
ATOM     21  C   UNL     1       7.571   5.327  13.855  0.00  0.00    +0.000 A 
ATOM     22  C   UNL     1       7.830   5.028  12.513  0.00  0.00    +0.000 A 
ATOM     23  C   UNL     1       7.045   4.096  11.841  0.00  0.00    +0.000 A 
ATOM     24  C   UNL     1       6.007   3.462  12.517  0.00  0.00    +0.000 A 
ATOM     25  C   UNL     1       5.755   3.765  13.860  0.00  0.00    +0.000 A 
ENDBRANCH  18  20
ENDBRANCH  14  15
ENDBRANCH   3  14
TORSDOF 5
ENDMDL
MODEL 4
REMARK VINA RESULT:      -7.0      2.147      3.714
REMARK  Name = 
REMARK  5 active torsions:
REMARK  status: ('A' for Active; 'I' for Inactive)
REMARK    1  A    between atoms: C_2  and  C_3
REMARK    2  A    between atoms: C_3  and  N_4
REMARK    3  A    between atoms: N_12  and  C_13
REMARK    4  A    between atoms: C_13  and  C_14
REMARK    5  A    between atoms: N_17  and  C_18
REMARK                            x       y       z     vdW  Elec       q    Type
REMARK                         _______ _______ _______ _____ _____    ______ ____
ROOT
ATOM      1  O   UNL     1       5.477   6.782  16.291  0.00  0.00    +0.000 OA
ATOM      2  C   UNL     1       4.766   5.991  16.902  0.00  0.00    +0.000 C 
ATOM      3  N   UNL     1       3.678   6.371  17.662  0.00  0.00    +0.000 N 
ATOM      4  H   UNL     1       3.142   5.643  18.124  0.00  0.00    +0.000 HD
ENDROOT
BRANCH   2   5
ATOM      5  C   UNL     1       4.992   4.475  16.837  0.00  0.00    +0.000 C 
BRANCH   5   6
ATOM      6  N   UNL     1       4.129   3.735  17.760  0.00  0.00    +0.000 N 
ATOM      7  C   UNL     1       2.815   3.315  17.277  0.00  0.00    +0.000 C 
ATOM      8  C   UNL     1       1.654   4.017  17.975  0.00  0.00    +0.000 C 
ATOM      9  C   UNL     1       1.317   3.427  19.341  0.00  0.00    +0.000 C 
ATOM     10  C   UNL     1       2.447   3.525  20.362  0.00  0.00    +0.000 C 
ATOM     11  C   UNL     1       3.686   2.728  19.978  0.00  0.00    +0.000 C 
ATOM     12  C   UNL     1       4.596   3.490  19.037  0.00  0.00    +0.000 C 
ATOM     13  O   UNL     1       5.708   3.869  19.413  0.00  0.00    +0.000 OA
ENDBRANCH   5   6
ENDBRANCH   2   5
BRANCH   3  14
ATOM     14  C   UNL     1       3.303   7.752  17.879  0.00  0.00    +0.000 C 
BRANCH  14  15
ATOM     15  C   UNL     1       1.831   7.987  18.249  0.00  0.00    +0.000 C 
ATOM     16  C   UNL     1       1.194   9.204  17.581  0.00  0.00    +0.000 C 
ATOM     17  C   UNL     1       1.422  10.343  18.564  0.00  0.00    +0.000 C 
ATOM     18  N   UNL     1       1.484   9.708  19.886  0.00  0.00    +0.000 N 
ATOM     19  C   UNL     1       1.586   8.243  19.744  0.00  0.00    +0.000 C 
BRANCH  18  20
ATOM     20  C   UNL     1       0.646  10.130  20.917  0.00  0.00    +0.000 A 
ATOM     21  C   UNL     1       0.077  11.411  20.977  0.00  0.00    +0.000 A 
ATOM     22  C   UNL     1      -0.739  11.799  22.044  0.00  0.00    +0.000 A 
ATOM     23  C   UNL     1      -1.013  10.907  23.075  0.00  0.00    +0.000 A 
ATOM     24  C   UNL     1      -0.474   9.626  23.031  0.00  0.00    +0.000 A 
ATOM     25  C   UNL     1       0.341   9.243  21.959  0.00  0.00    +0.000 A 
ENDBRANCH  18  20
ENDBRANCH  14  15
ENDBRANCH   3  14
TORSDOF 5
ENDMDL
MODEL 5
REMARK VINA RESULT:      -6.9      6.947      8.153
REMARK  Name = 
REMARK  5 active torsions:
REMARK  status: ('A' for Active; 'I' for Inactive)
REMARK    1  A    between atoms: C_2  and  C_3
REMARK    2  A    between atoms: C_3  and  N_4
REMARK    3  A    between atoms: N_12  and  C_13
REMARK    4  A    between atoms: C_13  and  C_14
REMARK    5  A    between atoms: N_17  and  C_18
REMARK                            x       y       z     vdW  Elec       q    Type
REMARK                         _______ _______ _______ _____ _____    ______ ____
ROOT
ATOM      1  O   UNL     1       7.188   7.725  17.174  0.00  0.00    +0.000 OA
ATOM      2  C   UNL     1       7.863   7.501  18.173  0.00  0.00    +0.000 C 
ATOM      3  N   UNL     1       8.615   8.462  18.819  0.00  0.00    +0.000 N 
ATOM      4  H   UNL     1       9.135   8.185  19.646  0.00  0.00    +0.000 HD
ENDROOT
BRANCH   2   5
ATOM      5  C   UNL     1       7.898   6.120  18.840  0.00  0.00    +0.000 C 
BRANCH   5   6
ATOM      6  N   UNL     1       7.043   5.143  18.162  0.00  0.00    +0.000 N 
ATOM      7  C   UNL     1       7.591   4.448  16.998  0.00  0.00    +0.000 C 
ATOM      8  C   UNL     1       6.899   4.810  15.688  0.00  0.00    +0.000 C 
ATOM      9  C   UNL     1       5.575   4.080  15.476  0.00  0.00    +0.000 C 
ATOM     10  C   UNL     1       4.513   4.389  16.527  0.00  0.00    +0.000 C 
ATOM     11  C   UNL     1       4.894   3.935  17.929  0.00  0.00    +0.000 C 
ATOM     12  C   UNL     1       5.764   4.946  18.648  0.00  0.00    +0.000 C 
ATOM     13  O   UNL     1       5.332   5.559  19.627  0.00  0.00    +0.000 OA
ENDBRANCH   5   6
ENDBRANCH   2   5
BRANCH   3  14
ATOM     14  C   UNL     1       8.744   9.823  18.344  0.00  0.00    +0.000 C 
BRANCH  14  15
ATOM     15  C   UNL     1       9.918  10.619  18.929  0.00  0.00    +0.000 C 
ATOM     16  C   UNL     1       9.665  11.198  20.320  0.00  0.00    +0.000 C 
ATOM     17  C   UNL     1       9.104  12.588  20.061  0.00  0.00    +0.000 C 
ATOM     18  N   UNL     1       9.675  13.003  18.774  0.00  0.00    +0.000 N 
ATOM     19  C   UNL     1      10.319  11.855  18.107  0.00  0.00    +0.000 C 
BRANCH  18  20
ATOM     20  C   UNL     1      10.376  14.203  18.661  0.00  0.00    +0.000 A 
ATOM     21  C   UNL     1       9.978  15.256  17.824  0.00  0.00    +0.000 A 
ATOM     22  C   UNL     1      10.726  16.433  17.725  0.00  0.00    +0.000 A 
ATOM     23  C   UNL     1      11.890  16.587  18.471  0.00  0.00    +0.000 A 
ATOM     24  C   UNL     1      12.297  15.563  19.320  0.00  0.00    +0.000 A 
ATOM     25  C   UNL     1      11.543  14.388  19.416  0.00  0.00    +0.000 A 
ENDBRANCH  18  20
ENDBRANCH  14  15
ENDBRANCH   3  14
TORSDOF 5
ENDMDL
MODEL 6
REMARK VINA RESULT:      -6.9      2.942      5.073
REMARK  Name = 
REMARK  5 active torsions:
REMARK  status: ('A' for Active; 'I' for Inactive)
REMARK    1  A    between atoms: C_2  and  C_3
REMARK    2  A    between atoms: C_3  and  N_4
REMARK    3  A    between atoms: N_12  and  C_13
REMARK    4  A    between atoms: C_13  and  C_14
REMARK    5  A    between atoms: N_17  and  C_18
REMARK                            x       y       z     vdW  Elec       q    Type
REMARK                         _______ _______ _______ _____ _____    ______ ____
ROOT
ATOM      1  O   UNL     1       4.479   5.276  19.620  0.00  0.00    +0.000 OA
ATOM      2  C   UNL     1       5.316   4.408  19.399  0.00  0.00    +0.000 C 
ATOM      3  N   UNL     1       6.641   4.677  19.122  0.00  0.00    +0.000 N 
ATOM      4  H   UNL     1       7.264   3.891  18.962  0.00  0.00    +0.000 HD
ENDROOT
BRANCH   2   5
ATOM      5  C   UNL     1       4.976   2.913  19.459  0.00  0.00    +0.000 C 
BRANCH   5   6
ATOM      6  N   UNL     1       3.536   2.657  19.369  0.00  0.00    +0.000 N 
ATOM      7  C   UNL     1       2.945   2.550  18.037  0.00  0.00    +0.000 C 
ATOM      8  C   UNL     1       1.981   3.684  17.702  0.00  0.00    +0.000 C 
ATOM      9  C   UNL     1       0.593   3.504  18.311  0.00  0.00    +0.000 C 
ATOM     10  C   UNL     1       0.576   3.473  19.836  0.00  0.00    +0.000 C 
ATOM     11  C   UNL     1       1.329   2.290  20.429  0.00  0.00    +0.000 C 
ATOM     12  C   UNL     1       2.817   2.550  20.544  0.00  0.00    +0.000 C 
ATOM     13  O   UNL     1       3.349   2.656  21.652  0.00  0.00    +0.000 OA
ENDBRANCH   5   6
ENDBRANCH   2   5
BRANCH   3  14
ATOM     14  C   UNL     1       7.170   6.018  18.992  0.00  0.00    +0.000 C 
BRANCH  14  15
ATOM     15  C   UNL     1       7.304   6.539  17.554  0.00  0.00    +0.000 C 
ATOM     16  C   UNL     1       6.037   7.176  16.987  0.00  0.00    +0.000 C 
ATOM     17  C   UNL     1       5.307   6.033  16.298  0.00  0.00    +0.000 C 
ATOM     18  N   UNL     1       6.359   5.095  15.884  0.00  0.00    +0.000 N 
ATOM     19  C   UNL     1       7.642   5.457  16.517  0.00  0.00    +0.000 C 
BRANCH  18  20
ATOM     20  C   UNL     1       6.465   4.688  14.556  0.00  0.00    +0.000 A 
ATOM     21  C   UNL     1       7.519   5.066  13.712  0.00  0.00    +0.000 A 
ATOM     22  C   UNL     1       7.572   4.652  12.377  0.00  0.00    +0.000 A 
ATOM     23  C   UNL     1       6.571   3.840  11.857  0.00  0.00    +0.000 A 
ATOM     24  C   UNL     1       5.521   3.438  12.677  0.00  0.00    +0.000 A 
ATOM     25  C   UNL     1       5.476   3.854  14.013  0.00  0.00    +0.000 A 
ENDBRANCH  18  20
ENDBRANCH  14  15
ENDBRANCH   3  14
TORSDOF 5
ENDMDL
MODEL 7
REMARK VINA RESULT:      -6.9      2.099      3.500
REMARK  Name = 
REMARK  5 active torsions:
REMARK  status: ('A' for Active; 'I' for Inactive)
REMARK    1  A    between atoms: C_2  and  C_3
REMARK    2  A    between atoms: C_3  and  N_4
REMARK    3  A    between atoms: N_12  and  C_13
REMARK    4  A    between atoms: C_13  and  C_14
REMARK    5  A    between atoms: N_17  and  C_18
REMARK                            x       y       z     vdW  Elec       q    Type
REMARK                         _______ _______ _______ _____ _____    ______ ____
ROOT
ATOM      1  O   UNL     1       5.728   6.383  17.150  0.00  0.00    +0.000 OA
ATOM      2  C   UNL     1       4.723   5.688  17.262  0.00  0.00    +0.000 C 
ATOM      3  N   UNL     1       3.479   6.190  17.588  0.00  0.00    +0.000 N 
ATOM      4  H   UNL     1       2.703   5.538  17.648  0.00  0.00    +0.000 HD
ENDROOT
BRANCH   2   5
ATOM      5  C   UNL     1       4.744   4.177  16.996  0.00  0.00    +0.000 C 
BRANCH   5   6
ATOM      6  N   UNL     1       3.928   3.424  17.951  0.00  0.00    +0.000 N 
ATOM      7  C   UNL     1       2.625   2.938  17.500  0.00  0.00    +0.000 C 
ATOM      8  C   UNL     1       1.447   3.607  18.200  0.00  0.00    +0.000 C 
ATOM      9  C   UNL     1       1.158   3.037  19.586  0.00  0.00    +0.000 C 
ATOM     10  C   UNL     1       2.298   3.207  20.586  0.00  0.00    +0.000 C 
ATOM     11  C   UNL     1       3.564   2.454  20.199  0.00  0.00    +0.000 C 
ATOM     12  C   UNL     1       4.425   3.231  19.226  0.00  0.00    +0.000 C 
ATOM     13  O   UNL     1       5.526   3.665  19.573  0.00  0.00    +0.000 OA
ENDBRANCH   5   6
ENDBRANCH   2   5
BRANCH   3  14
ATOM     14  C   UNL     1       3.241   7.582  17.905  0.00  0.00    +0.000 C 
BRANCH  14  15
ATOM     15  C   UNL     1       1.786   7.947  18.229  0.00  0.00    +0.000 C 
ATOM     16  C   UNL     1       1.328   9.293  17.670  0.00  0.00    +0.000 C 
ATOM     17  C   UNL     1       1.622  10.290  18.780  0.00  0.00    +0.000 C 
ATOM     18  N   UNL     1       1.535   9.519  20.027  0.00  0.00    +0.000 N 
ATOM     19  C   UNL     1       1.484   8.075  19.730  0.00  0.00    +0.000 C 
BRANCH  18  20
ATOM     20  C   UNL     1       0.691   9.927  21.057  0.00  0.00    +0.000 A 
ATOM     21  C   UNL     1       0.570   9.243  22.276  0.00  0.00    +0.000 A 
ATOM     22  C   UNL     1      -0.310   9.676  23.273  0.00  0.00    +0.000 A 
ATOM     23  C   UNL     1      -1.084  10.814  23.077  0.00  0.00    +0.000 A 
ATOM     24  C   UNL     1      -0.972  11.519  21.883  0.00  0.00    +0.000 A 
ATOM     25  C   UNL     1      -0.088  11.082  20.889  0.00  0.00    +0.000 A 
ENDBRANCH  18  20
ENDBRANCH  14  15
ENDBRANCH   3  14
TORSDOF 5
ENDMDL
MODEL 8
REMARK VINA RESULT:      -6.9      5.920      8.818
REMARK  Name = 
REMARK  5 active torsions:
REMARK  status: ('A' for Active; 'I' for Inactive)
REMARK    1  A    between atoms: C_2  and  C_3
REMARK    2  A    between atoms: C_3  and  N_4
REMARK    3  A    between atoms: N_12  and  C_13
REMARK    4  A    between atoms: C_13  and  C_14
REMARK    5  A    between atoms: N_17  and  C_18
REMARK                            x       y       z     vdW  Elec       q    Type
REMARK                         _______ _______ _______ _____ _____    ______ ____
ROOT
ATOM      1  O   UNL     1       7.855  10.066  17.775  0.00  0.00    +0.000 OA
ATOM      2  C   UNL     1       8.560   9.393  18.519  0.00  0.00    +0.000 C 
ATOM      3  N   UNL     1       8.533   8.013  18.554  0.00  0.00    +0.000 N 
ATOM      4  H   UNL     1       9.161   7.540  19.197  0.00  0.00    +0.000 HD
ENDROOT
BRANCH   2   5
ATOM      5  C   UNL     1       9.590  10.028  19.461  0.00  0.00    +0.000 C 
BRANCH   5   6
ATOM      6  N   UNL     1       9.770  11.461  19.219  0.00  0.00    +0.000 N 
ATOM      7  C   UNL     1      10.444  11.866  17.987  0.00  0.00    +0.000 C 
ATOM      8  C   UNL     1      11.801  12.522  18.221  0.00  0.00    +0.000 C 
ATOM      9  C   UNL     1      11.707  13.990  18.627  0.00  0.00    +0.000 C 
ATOM     10  C   UNL     1      10.973  14.231  19.943  0.00  0.00    +0.000 C 
ATOM     11  C   UNL     1       9.506  13.825  19.906  0.00  0.00    +0.000 C 
ATOM     12  C   UNL     1       9.307  12.348  20.173  0.00  0.00    +0.000 C 
ATOM     13  O   UNL     1       8.751  11.968  21.207  0.00  0.00    +0.000 OA
ENDBRANCH   5   6
ENDBRANCH   2   5
BRANCH   3  14
ATOM     14  C   UNL     1       7.617   7.214  17.768  0.00  0.00    +0.000 C 
BRANCH  14  15
ATOM     15  C   UNL     1       7.086   5.948  18.454  0.00  0.00    +0.000 C 
ATOM     16  C   UNL     1       7.439   4.643  17.742  0.00  0.00    +0.000 C 
ATOM     17  C   UNL     1       6.269   4.390  16.803  0.00  0.00    +0.000 C 
ATOM     18  N   UNL     1       5.112   5.027  17.444  0.00  0.00    +0.000 N 
ATOM     19  C   UNL     1       5.555   5.881  18.563  0.00  0.00    +0.000 C 
BRANCH  18  20
ATOM     20  C   UNL     1       3.951   4.299  17.698  0.00  0.00    +0.000 A 
ATOM     21  C   UNL     1       2.686   4.887  17.843  0.00  0.00    +0.000 A 
ATOM     22  C   UNL     1       1.551   4.118  18.121  0.00  0.00    +0.000 A 
ATOM     23  C   UNL     1       1.656   2.738  18.252  0.00  0.00    +0.000 A 
ATOM     24  C   UNL     1       2.897   2.129  18.098  0.00  0.00    +0.000 A 
ATOM     25  C   UNL     1       4.029   2.904  17.817  0.00  0.00    +0.000 A 
ENDBRANCH  18  20
ENDBRANCH  14  15
ENDBRANCH   3  14
TORSDOF 5
ENDMDL
MODEL 9
REMARK VINA RESULT:      -6.9      5.938      8.930
REMARK  Name = 
REMARK  5 active torsions:
REMARK  status: ('A' for Active; 'I' for Inactive)
REMARK    1  A    between atoms: C_2  and  C_3
REMARK    2  A    between atoms: C_3  and  N_4
REMARK    3  A    between atoms: N_12  and  C_13
REMARK    4  A    between atoms: C_13  and  C_14
REMARK    5  A    between atoms: N_17  and  C_18
REMARK                            x       y       z     vdW  Elec       q    Type
REMARK                         _______ _______ _______ _____ _____    ______ ____
ROOT
ATOM      1  O   UNL     1       7.946   9.988  17.710  0.00  0.00    +0.000 OA
ATOM      2  C   UNL     1       8.575   9.364  18.558  0.00  0.00    +0.000 C 
ATOM      3  N   UNL     1       8.533   7.990  18.683  0.00  0.00    +0.000 N 
ATOM      4  H   UNL     1       9.096   7.560  19.411  0.00  0.00    +0.000 HD
ENDROOT
BRANCH   2   5
ATOM      5  C   UNL     1       9.522  10.058  19.545  0.00  0.00    +0.000 C 
BRANCH   5   6
ATOM      6  N   UNL     1       9.835  11.435  19.154  0.00  0.00    +0.000 N 
ATOM      7  C   UNL     1      10.612  11.636  17.932  0.00  0.00    +0.000 C 
ATOM      8  C   UNL     1      12.004  12.208  18.181  0.00  0.00    +0.000 C 
ATOM      9  C   UNL     1      12.011  13.717  18.410  0.00  0.00    +0.000 C 
ATOM     10  C   UNL     1      11.226  14.169  19.638  0.00  0.00    +0.000 C 
ATOM     11  C   UNL     1       9.734  13.877  19.548  0.00  0.00    +0.000 C 
ATOM     12  C   UNL     1       9.396  12.461  19.968  0.00  0.00    +0.000 C 
ATOM     13  O   UNL     1       8.750  12.252  20.998  0.00  0.00    +0.000 OA
ENDBRANCH   5   6
ENDBRANCH   2   5
BRANCH   3  14
ATOM     14  C   UNL     1       7.685   7.143  17.872  0.00  0.00    +0.000 C 
BRANCH  14  15
ATOM     15  C   UNL     1       7.435   5.732  18.425  0.00  0.00    +0.000 C 
ATOM     16  C   UNL     1       7.531   4.616  17.387  0.00  0.00    +0.000 C 
ATOM     17  C   UNL     1       6.111   4.453  16.867  0.00  0.00    +0.000 C 
ATOM     18  N   UNL     1       5.242   4.865  17.976  0.00  0.00    +0.000 N 
ATOM     19  C   UNL     1       6.038   5.526  19.028  0.00  0.00    +0.000 C 
BRANCH  18  20
ATOM     20  C   UNL     1       4.247   4.014  18.454  0.00  0.00    +0.000 A 
ATOM     21  C   UNL     1       3.868   2.828  17.808  0.00  0.00    +0.000 A 
ATOM     22  C   UNL     1       2.846   2.016  18.312  0.00  0.00    +0.000 A 
ATOM     23  C   UNL     1       2.185   2.370  19.483  0.00  0.00    +0.000 A 
ATOM     24  C   UNL     1       2.553   3.534  20.151  0.00  0.00    +0.000 A 
ATOM     25  C   UNL     1       3.578   4.341  19.642  0.00  0.00    +0.000 A 
ENDBRANCH  18  20
ENDBRANCH  14  15
ENDBRANCH   3  14
TORSDOF 5
ENDMDL
