MODEL 1
REMARK VINA RESULT:      -7.0      0.000      0.000
REMARK  Name = 
REMARK  4 active torsions:
REMARK  status: ('A' for Active; 'I' for Inactive)
REMARK    1  A    between atoms: C_4  and  N_5
REMARK    2  A    between atoms: C_6  and  O_8
REMARK    3  A    between atoms: O_8  and  C_9
REMARK    4  A    between atoms: C_9  and  C_10
REMARK                            x       y       z     vdW  Elec       q    Type
REMARK                         _______ _______ _______ _____ _____    ______ ____
ROOT
ATOM      1  N   UNL     1       4.120   5.323  17.953  0.00  0.00    +0.000 N 
ATOM      2  C   UNL     1       2.947   6.008  18.026  0.00  0.00    +0.000 C 
ATOM      3  O   UNL     1       2.855   7.225  18.061  0.00  0.00    +0.000 OA
ATOM      4  H   UNL     1       4.068   4.316  17.980  0.00  0.00    +0.000 HD
ENDROOT
BRANCH   1   8
ATOM      5  O   UNL     1       7.800   4.520  15.633  0.00  0.00    +0.000 OA
ATOM      6  C   UNL     1       7.123   4.893  16.583  0.00  0.00    +0.000 C 
ATOM      7  C   UNL     1       6.117   5.999  16.552  0.00  0.00    +0.000 C 
ATOM      8  C   UNL     1       5.466   5.917  17.929  0.00  0.00    +0.000 C 
ATOM      9  C   UNL     1       6.503   5.148  18.740  0.00  0.00    +0.000 C 
ATOM     10  O   UNL     1       6.624   5.145  19.948  0.00  0.00    +0.000 OA
ATOM     11  N   UNL     1       7.274   4.459  17.866  0.00  0.00    +0.000 N 
ATOM     12  H   UNL     1       8.009   3.827  18.139  0.00  0.00    +0.000 HD
ENDBRANCH   1   8
BRANCH   2  13
ATOM     13  O   UNL     1       1.903   5.152  18.130  0.00  0.00    +0.000 OA
BRANCH  13  14
ATOM     14  C   UNL     1       2.174   3.753  17.847  0.00  0.00    +0.000 C 
BRANCH  14  15
ATOM     15  C   UNL     1       2.066   2.941  19.150  0.00  0.00    +0.000 C 
ATOM     16  C   UNL     1       0.966   3.461  20.066  0.00  0.00    +0.000 C 
ATOM     17  C   UNL     1       1.295   2.833  21.407  0.00  0.00    +0.000 C 
ATOM     18  C   UNL     1       2.803   2.634  21.374  0.00  0.00    +0.000 C 
ATOM     19  N   UNL     1       3.245   3.001  20.024  0.00  0.00    +0.000 NA
ATOM     20  H   UNL     1       3.968   2.357  19.702  0.00  0.00    +0.000 HD
ENDBRANCH  14  15
ENDBRANCH  13  14
ENDBRANCH   2  13
TORSDOF 4
ENDMDL
MODEL 2
REMARK VINA RESULT:      -6.9      1.115      1.229
REMARK  Name = 
REMARK  4 active torsions:
REMARK  status: ('A' for Active; 'I' for Inactive)
REMARK    1  A    between atoms: C_4  and  N_5
REMARK    2  A    between atoms: C_6  and  O_8
REMARK    3  A    between atoms: O_8  and  C_9
REMARK    4  A    between atoms: C_9  and  C_10
REMARK                            x       y       z     vdW  Elec       q    Type
REMARK                         _______ _______ _______ _____ _____    ______ ____
ROOT
ATOM      1  N   UNL     1       4.085   4.312  17.008  0.00  0.00    +0.000 N 
ATOM      2  C   UNL     1       2.810   4.477  17.453  0.00  0.00    +0.000 C 
ATOM      3  O   UNL     1       2.401   5.469  18.036  0.00  0.00    +0.000 OA
ATOM      4  H   UNL     1       4.313   3.426  16.583  0.00  0.00    +0.000 HD
ENDROOT
BRANCH   1   8
ATOM      5  O   UNL     1       7.656   5.339  14.609  0.00  0.00    +0.000 OA
ATOM      6  C   UNL     1       6.970   5.212  15.616  0.00  0.00    +0.000 C 
ATOM      7  C   UNL     1       5.681   5.922  15.883  0.00  0.00    +0.000 C 
ATOM      8  C   UNL     1       5.187   5.272  17.172  0.00  0.00    +0.000 C 
ATOM      9  C   UNL     1       6.463   4.668  17.748  0.00  0.00    +0.000 C 
ATOM     10  O   UNL     1       6.667   4.374  18.907  0.00  0.00    +0.000 OA
ATOM     11  N   UNL     1       7.338   4.514  16.727  0.00  0.00    +0.000 N 
ATOM     12  H   UNL     1       8.245   4.088  16.821  0.00  0.00    +0.000 HD
ENDBRANCH   1   8
BRANCH   2  13
ATOM     13  O   UNL     1       2.079   3.360  17.224  0.00  0.00    +0.000 OA
BRANCH  13  14
ATOM     14  C   UNL     1       2.596   2.117  17.769  0.00  0.00    +0.000 C 
BRANCH  14  15
ATOM     15  C   UNL     1       2.373   2.096  19.291  0.00  0.00    +0.000 C 
ATOM     16  C   UNL     1       1.001   2.632  19.682  0.00  0.00    +0.000 C 
ATOM     17  C   UNL     1       1.142   2.916  21.165  0.00  0.00    +0.000 C 
ATOM     18  C   UNL     1       2.621   3.217  21.357  0.00  0.00    +0.000 C 
ATOM     19  N   UNL     1       3.272   2.962  20.066  0.00  0.00    +0.000 NA
ATOM     20  H   UNL     1       4.175   2.511  20.209  0.00  0.00    +0.000 HD
ENDBRANCH  14  15
ENDBRANCH  13  14
ENDBRANCH   2  13
TORSDOF 4
ENDMDL
MODEL 3
REMARK VINA RESULT:      -6.8      1.722      2.019
REMARK  Name = 
REMARK  4 active torsions:
REMARK  status: ('A' for Active; 'I' for Inactive)
REMARK    1  A    between atoms: C_4  and  N_5
REMARK    2  A    between atoms: C_6  and  O_8
REMARK    3  A    between atoms: O_8  and  C_9
REMARK    4  A    between atoms: C_9  and  C_10
REMARK                            x       y       z     vdW  Elec       q    Type
REMARK                         _______ _______ _______ _____ _____    ______ ____
ROOT
ATOM      1  N   UNL     1       4.941   3.524  17.307  0.00  0.00    +0.000 N 
ATOM      2  C   UNL     1       3.585   3.421  17.286  0.00  0.00    +0.000 C 
ATOM      3  O   UNL     1       2.820   4.349  17.075  0.00  0.00    +0.000 OA
ATOM      4  H   UNL     1       5.463   2.694  17.542  0.00  0.00    +0.000 HD
ENDROOT
BRANCH   1   8
ATOM      5  O   UNL     1       7.218   5.219  13.914  0.00  0.00    +0.000 OA
ATOM      6  C   UNL     1       6.916   5.020  15.084  0.00  0.00    +0.000 C 
ATOM      7  C   UNL     1       5.608   5.377  15.717  0.00  0.00    +0.000 C 
ATOM      8  C   UNL     1       5.714   4.760  17.108  0.00  0.00    +0.000 C 
ATOM      9  C   UNL     1       7.220   4.590  17.280  0.00  0.00    +0.000 C 
ATOM     10  O   UNL     1       7.823   4.488  18.329  0.00  0.00    +0.000 OA
ATOM     11  N   UNL     1       7.772   4.570  16.045  0.00  0.00    +0.000 N 
ATOM     12  H   UNL     1       8.751   4.419  15.867  0.00  0.00    +0.000 HD
ENDBRANCH   1   8
BRANCH   2  13
ATOM     13  O   UNL     1       3.200   2.162  17.605  0.00  0.00    +0.000 OA
BRANCH  13  14
ATOM     14  C   UNL     1       3.615   1.660  18.904  0.00  0.00    +0.000 C 
BRANCH  14  15
ATOM     15  C   UNL     1       2.877   2.436  20.009  0.00  0.00    +0.000 C 
ATOM     16  C   UNL     1       1.394   2.607  19.704  0.00  0.00    +0.000 C 
ATOM     17  C   UNL     1       0.962   3.710  20.650  0.00  0.00    +0.000 C 
ATOM     18  C   UNL     1       2.221   4.537  20.870  0.00  0.00    +0.000 C 
ATOM     19  N   UNL     1       3.312   3.827  20.193  0.00  0.00    +0.000 NA
ATOM     20  H   UNL     1       4.163   3.869  20.754  0.00  0.00    +0.000 HD
ENDBRANCH  14  15
ENDBRANCH  13  14
ENDBRANCH   2  13
TORSDOF 4
ENDMDL
MODEL 4
REMARK VINA RESULT:      -6.7      2.073      5.935
REMARK  Name = 
REMARK  4 active torsions:
REMARK  status: ('A' for Active; 'I' for Inactive)
REMARK    1  A    between atoms: C_4  and  N_5
REMARK    2  A    between atoms: C_6  and  O_8
REMARK    3  A    between atoms: O_8  and  C_9
REMARK    4  A    between atoms: C_9  and  C_10
REMARK                            x       y       z     vdW  Elec       q    Type
REMARK                         _______ _______ _______ _____ _____    ______ ____
ROOT
ATOM      1  N   UNL     1       3.760   4.720  19.323  0.00  0.00    +0.000 N 
ATOM      2  C   UNL     1       4.631   3.674  19.340  0.00  0.00    +0.000 C 
ATOM      3  O   UNL     1       4.330   2.524  19.616  0.00  0.00    +0.000 OA
ATOM      4  H   UNL     1       4.140   5.633  19.126  0.00  0.00    +0.000 HD
ENDROOT
BRANCH   1   8
ATOM      5  O   UNL     1       1.384   2.426  22.265  0.00  0.00    +0.000 OA
ATOM      6  C   UNL     1       1.613   3.036  21.228  0.00  0.00    +0.000 C 
ATOM      7  C   UNL     1       2.013   4.474  21.137  0.00  0.00    +0.000 C 
ATOM      8  C   UNL     1       2.329   4.655  19.656  0.00  0.00    +0.000 C 
ATOM      9  C   UNL     1       1.590   3.486  19.015  0.00  0.00    +0.000 C 
ATOM     10  O   UNL     1       1.232   3.399  17.859  0.00  0.00    +0.000 OA
ATOM     11  N   UNL     1       1.402   2.548  19.973  0.00  0.00    +0.000 N 
ATOM     12  H   UNL     1       0.980   1.649  19.808  0.00  0.00    +0.000 HD
ENDBRANCH   1   8
BRANCH   2  13
ATOM     13  O   UNL     1       5.890   4.101  19.079  0.00  0.00    +0.000 OA
BRANCH  13  14
ATOM     14  C   UNL     1       6.030   5.459  18.582  0.00  0.00    +0.000 C 
BRANCH  14  15
ATOM     15  C   UNL     1       6.407   5.419  17.091  0.00  0.00    +0.000 C 
ATOM     16  C   UNL     1       5.242   5.806  16.188  0.00  0.00    +0.000 C 
ATOM     17  C   UNL     1       5.672   5.309  14.822  0.00  0.00    +0.000 C 
ATOM     18  C   UNL     1       6.591   4.133  15.116  0.00  0.00    +0.000 C 
ATOM     19  N   UNL     1       6.766   4.091  16.573  0.00  0.00    +0.000 NA
ATOM     20  H   UNL     1       7.731   3.860  16.807  0.00  0.00    +0.000 HD
ENDBRANCH  14  15
ENDBRANCH  13  14
ENDBRANCH   2  13
TORSDOF 4
ENDMDL
MODEL 5
REMARK VINA RESULT:      -6.7      1.868      5.390
REMARK  Name = 
REMARK  4 active torsions:
REMARK  status: ('A' for Active; 'I' for Inactive)
REMARK    1  A    between atoms: C_4  and  N_5
REMARK    2  A    between atoms: C_6  and  O_8
REMARK    3  A    between atoms: O_8  and  C_9
REMARK    4  A    between atoms: C_9  and  C_10
REMARK                            x       y       z     vdW  Elec       q    Type
REMARK                         _______ _______ _______ _____ _____    ______ ____
ROOT
ATOM      1  N   UNL     1       5.227   3.262  18.943  0.00  0.00    +0.000 N 
ATOM      2  C   UNL     1       5.392   4.574  19.262  0.00  0.00    +0.000 C 
ATOM      3  O   UNL     1       4.490   5.328  19.587  0.00  0.00    +0.000 OA
ATOM      4  H   UNL     1       6.045   2.754  18.642  0.00  0.00    +0.000 HD
ENDROOT
BRANCH   1   8
ATOM      5  O   UNL     1       1.202   4.198  17.365  0.00  0.00    +0.000 OA
ATOM      6  C   UNL     1       2.036   3.673  18.093  0.00  0.00    +0.000 C 
ATOM      7  C   UNL     1       3.118   2.743  17.644  0.00  0.00    +0.000 C 
ATOM      8  C   UNL     1       3.947   2.538  18.907  0.00  0.00    +0.000 C 
ATOM      9  C   UNL     1       2.973   2.935  20.011  0.00  0.00    +0.000 C 
ATOM     10  O   UNL     1       3.024   2.606  21.178  0.00  0.00    +0.000 OA
ATOM     11  N   UNL     1       2.031   3.732  19.454  0.00  0.00    +0.000 N 
ATOM     12  H   UNL     1       1.291   4.178  19.972  0.00  0.00    +0.000 HD
ENDBRANCH   1   8
BRANCH   2  13
ATOM     13  O   UNL     1       6.685   4.943  19.097  0.00  0.00    +0.000 OA
BRANCH  13  14
ATOM     14  C   UNL     1       6.928   6.141  18.312  0.00  0.00    +0.000 C 
BRANCH  14  15
ATOM     15  C   UNL     1       6.957   5.772  16.818  0.00  0.00    +0.000 C 
ATOM     16  C   UNL     1       5.610   5.990  16.142  0.00  0.00    +0.000 C 
ATOM     17  C   UNL     1       5.729   5.201  14.852  0.00  0.00    +0.000 C 
ATOM     18  C   UNL     1       6.716   4.089  15.176  0.00  0.00    +0.000 C 
ATOM     19  N   UNL     1       7.218   4.355  16.529  0.00  0.00    +0.000 NA
ATOM     20  H   UNL     1       8.217   4.152  16.582  0.00  0.00    +0.000 HD
ENDBRANCH  14  15
ENDBRANCH  13  14
ENDBRANCH   2  13
TORSDOF 4
ENDMDL
MODEL 6
REMARK VINA RESULT:      -6.7      1.670      2.337
REMARK  Name = 
REMARK  4 active torsions:
REMARK  status: ('A' for Active; 'I' for Inactive)
REMARK    1  A    between atoms: C_4  and  N_5
REMARK    2  A    between atoms: C_6  and  O_8
REMARK    3  A    between atoms: O_8  and  C_9
REMARK    4  A    between atoms: C_9  and  C_10
REMARK                            x       y       z     vdW  Elec       q    Type
REMARK                         _______ _______ _______ _____ _____    ______ ____
ROOT
ATOM      1  N   UNL     1       5.657   4.277  17.895  0.00  0.00    +0.000 N 
ATOM      2  C   UNL     1       4.560   4.895  17.382  0.00  0.00    +0.000 C 
ATOM      3  O   UNL     1       4.592   5.848  16.620  0.00  0.00    +0.000 OA
ATOM      4  H   UNL     1       5.499   3.530  18.554  0.00  0.00    +0.000 HD
ENDROOT
BRANCH   1   8
ATOM      5  O   UNL     1       7.864   8.110  17.970  0.00  0.00    +0.000 OA
ATOM      6  C   UNL     1       7.608   6.960  17.633  0.00  0.00    +0.000 C 
ATOM      7  C   UNL     1       7.595   5.771  18.540  0.00  0.00    +0.000 C 
ATOM      8  C   UNL     1       7.056   4.658  17.648  0.00  0.00    +0.000 C 
ATOM      9  C   UNL     1       7.319   5.200  16.248  0.00  0.00    +0.000 C 
ATOM     10  O   UNL     1       7.408   4.554  15.224  0.00  0.00    +0.000 OA
ATOM     11  N   UNL     1       7.433   6.545  16.347  0.00  0.00    +0.000 N 
ATOM     12  H   UNL     1       7.560   7.161  15.559  0.00  0.00    +0.000 HD
ENDBRANCH   1   8
BRANCH   2  13
ATOM     13  O   UNL     1       3.428   4.353  17.892  0.00  0.00    +0.000 OA
BRANCH  13  14
ATOM     14  C   UNL     1       3.356   2.903  17.927  0.00  0.00    +0.000 C 
BRANCH  14  15
ATOM     15  C   UNL     1       2.669   2.459  19.230  0.00  0.00    +0.000 C 
ATOM     16  C   UNL     1       1.407   3.261  19.522  0.00  0.00    +0.000 C 
ATOM     17  C   UNL     1       1.138   2.978  20.987  0.00  0.00    +0.000 C 
ATOM     18  C   UNL     1       2.510   2.688  21.577  0.00  0.00    +0.000 C 
ATOM     19  N   UNL     1       3.454   2.669  20.453  0.00  0.00    +0.000 NA
ATOM     20  H   UNL     1       4.138   1.923  20.578  0.00  0.00    +0.000 HD
ENDBRANCH  14  15
ENDBRANCH  13  14
ENDBRANCH   2  13
TORSDOF 4
ENDMDL
MODEL 7
REMARK VINA RESULT:      -6.7      2.006      2.646
REMARK  Name = 
REMARK  4 active torsions:
REMARK  status: ('A' for Active; 'I' for Inactive)
REMARK    1  A    between atoms: C_4  and  N_5
REMARK    2  A    between atoms: C_6  and  O_8
REMARK    3  A    between atoms: O_8  and  C_9
REMARK    4  A    between atoms: C_9  and  C_10
REMARK                            x       y       z     vdW  Elec       q    Type
REMARK                         _______ _______ _______ _____ _____    ______ ____
ROOT
ATOM      1  N   UNL     1       5.486   3.962  17.507  0.00  0.00    +0.000 N 
ATOM      2  C   UNL     1       5.306   4.116  18.847  0.00  0.00    +0.000 C 
ATOM      3  O   UNL     1       5.187   5.191  19.413  0.00  0.00    +0.000 OA
ATOM      4  H   UNL     1       5.621   3.022  17.166  0.00  0.00    +0.000 HD
ENDROOT
BRANCH   1   8
ATOM      5  O   UNL     1       6.724   4.157  13.265  0.00  0.00    +0.000 OA
ATOM      6  C   UNL     1       6.545   4.557  14.409  0.00  0.00    +0.000 C 
ATOM      7  C   UNL     1       5.219   4.670  15.093  0.00  0.00    +0.000 C 
ATOM      8  C   UNL     1       5.595   5.048  16.521  0.00  0.00    +0.000 C 
ATOM      9  C   UNL     1       7.005   5.604  16.356  0.00  0.00    +0.000 C 
ATOM     10  O   UNL     1       7.582   6.356  17.115  0.00  0.00    +0.000 OA
ATOM     11  N   UNL     1       7.508   5.105  15.203  0.00  0.00    +0.000 N 
ATOM     12  H   UNL     1       8.445   5.273  14.877  0.00  0.00    +0.000 HD
ENDBRANCH   1   8
BRANCH   2  13
ATOM     13  O   UNL     1       5.351   2.915  19.473  0.00  0.00    +0.000 OA
BRANCH  13  14
ATOM     14  C   UNL     1       4.231   2.587  20.338  0.00  0.00    +0.000 C 
BRANCH  14  15
ATOM     15  C   UNL     1       2.916   2.950  19.627  0.00  0.00    +0.000 C 
ATOM     16  C   UNL     1       1.827   3.375  20.604  0.00  0.00    +0.000 C 
ATOM     17  C   UNL     1       0.556   3.276  19.783  0.00  0.00    +0.000 C 
ATOM     18  C   UNL     1       0.853   2.201  18.749  0.00  0.00    +0.000 C 
ATOM     19  N   UNL     1       2.268   1.843  18.910  0.00  0.00    +0.000 NA
ATOM     20  H   UNL     1       2.702   1.697  17.999  0.00  0.00    +0.000 HD
ENDBRANCH  14  15
ENDBRANCH  13  14
ENDBRANCH   2  13
TORSDOF 4
ENDMDL
MODEL 8
REMARK VINA RESULT:      -6.7      2.277      6.130
REMARK  Name = 
REMARK  4 active torsions:
REMARK  status: ('A' for Active; 'I' for Inactive)
REMARK    1  A    between atoms: C_4  and  N_5
REMARK    2  A    between atoms: C_6  and  O_8
REMARK    3  A    between atoms: O_8  and  C_9
REMARK    4  A    between atoms: C_9  and  C_10
REMARK                            x       y       z     vdW  Elec       q    Type
REMARK                         _______ _______ _______ _____ _____    ______ ____
ROOT
ATOM      1  N   UNL     1       3.843   4.619  19.007  0.00  0.00    +0.000 N 
ATOM      2  C   UNL     1       4.781   3.672  19.277  0.00  0.00    +0.000 C 
ATOM      3  O   UNL     1       4.572   2.646  19.904  0.00  0.00    +0.000 OA
ATOM      4  H   UNL     1       4.150   5.447  18.520  0.00  0.00    +0.000 HD
ENDROOT
BRANCH   1   8
ATOM      5  O   UNL     1       1.658   2.510  22.223  0.00  0.00    +0.000 OA
ATOM      6  C   UNL     1       1.819   3.063  21.142  0.00  0.00    +0.000 C 
ATOM      7  C   UNL     1       2.223   4.490  20.947  0.00  0.00    +0.000 C 
ATOM      8  C   UNL     1       2.437   4.589  19.440  0.00  0.00    +0.000 C 
ATOM      9  C   UNL     1       1.646   3.395  18.915  0.00  0.00    +0.000 C 
ATOM     10  O   UNL     1       1.209   3.252  17.792  0.00  0.00    +0.000 OA
ATOM     11  N   UNL     1       1.518   2.512  19.932  0.00  0.00    +0.000 N 
ATOM     12  H   UNL     1       1.079   1.610  19.845  0.00  0.00    +0.000 HD
ENDBRANCH   1   8
BRANCH   2  13
ATOM     13  O   UNL     1       5.994   4.061  18.815  0.00  0.00    +0.000 OA
BRANCH  13  14
ATOM     14  C   UNL     1       6.032   4.639  17.482  0.00  0.00    +0.000 C 
BRANCH  14  15
ATOM     15  C   UNL     1       7.102   5.743  17.437  0.00  0.00    +0.000 C 
ATOM     16  C   UNL     1       7.635   6.090  18.822  0.00  0.00    +0.000 C 
ATOM     17  C   UNL     1       8.322   7.425  18.613  0.00  0.00    +0.000 C 
ATOM     18  C   UNL     1       7.577   8.059  17.447  0.00  0.00    +0.000 C 
ATOM     19  N   UNL     1       6.631   7.049  16.956  0.00  0.00    +0.000 NA
ATOM     20  H   UNL     1       6.592   7.068  15.937  0.00  0.00    +0.000 HD
ENDBRANCH  14  15
ENDBRANCH  13  14
ENDBRANCH   2  13
TORSDOF 4
ENDMDL
MODEL 9
REMARK VINA RESULT:      -6.6      2.005      5.521
REMARK  Name = 
REMARK  4 active torsions:
REMARK  status: ('A' for Active; 'I' for Inactive)
REMARK    1  A    between atoms: C_4  and  N_5
REMARK    2  A    between atoms: C_6  and  O_8
REMARK    3  A    between atoms: O_8  and  C_9
REMARK    4  A    between atoms: C_9  and  C_10
REMARK                            x       y       z     vdW  Elec       q    Type
REMARK                         _______ _______ _______ _____ _____    ______ ____
ROOT
ATOM      1  N   UNL     1       4.112   3.727  19.684  0.00  0.00    +0.000 N 
ATOM      2  C   UNL     1       3.667   5.007  19.557  0.00  0.00    +0.000 C 
ATOM      3  O   UNL     1       2.519   5.366  19.763  0.00  0.00    +0.000 OA
ATOM      4  H   UNL     1       5.073   3.547  19.438  0.00  0.00    +0.000 HD
ENDROOT
BRANCH   1   8
ATOM      5  O   UNL     1       0.135   2.231  18.454  0.00  0.00    +0.000 OA
ATOM      6  C   UNL     1       1.097   2.405  19.191  0.00  0.00    +0.000 C 
ATOM      7  C   UNL     1       2.492   1.937  18.924  0.00  0.00    +0.000 C 
ATOM      8  C   UNL     1       3.294   2.564  20.060  0.00  0.00    +0.000 C 
ATOM      9  C   UNL     1       2.218   2.864  21.097  0.00  0.00    +0.000 C 
ATOM     10  O   UNL     1       2.383   3.020  22.289  0.00  0.00    +0.000 OA
ATOM     11  N   UNL     1       1.032   2.929  20.447  0.00  0.00    +0.000 N 
ATOM     12  H   UNL     1       0.159   3.165  20.889  0.00  0.00    +0.000 HD
ENDBRANCH   1   8
BRANCH   2  13
ATOM     13  O   UNL     1       4.657   5.810  19.100  0.00  0.00    +0.000 OA
BRANCH  13  14
ATOM     14  C   UNL     1       5.982   5.223  18.999  0.00  0.00    +0.000 C 
BRANCH  14  15
ATOM     15  C   UNL     1       6.342   5.031  17.516  0.00  0.00    +0.000 C 
ATOM     16  C   UNL     1       5.605   6.010  16.610  0.00  0.00    +0.000 C 
ATOM     17  C   UNL     1       5.760   5.401  15.230  0.00  0.00    +0.000 C 
ATOM     18  C   UNL     1       5.894   3.907  15.486  0.00  0.00    +0.000 C 
ATOM     19  N   UNL     1       5.957   3.735  16.942  0.00  0.00    +0.000 NA
ATOM     20  H   UNL     1       6.638   3.015  17.183  0.00  0.00    +0.000 HD
ENDBRANCH  14  15
ENDBRANCH  13  14
ENDBRANCH   2  13
TORSDOF 4
ENDMDL
