MODEL 1
REMARK VINA RESULT:      -8.4      0.000      0.000
REMARK  Name = 
REMARK  3 active torsions:
REMARK  status: ('A' for Active; 'I' for Inactive)
REMARK    1  A    between atoms: C_1  and  C_2
REMARK    2  A    between atoms: C_4  and  C_5
REMARK    3  A    between atoms: C_22  and  O_23
REMARK                            x       y       z     vdW  Elec       q    Type
REMARK                         _______ _______ _______ _____ _____    ______ ____
ROOT
ATOM      1  C   UNL     1       1.152   8.913  20.151  0.00  0.00    +0.000 C 
ATOM      2  O   UNL     1       0.957   8.590  21.322  0.00  0.00    +0.000 OA
ATOM      3  N   UNL     1       1.893   8.098  19.278  0.00  0.00    +0.000 N 
ATOM      4  C   UNL     1       2.405   8.501  17.958  0.00  0.00    +0.000 C 
ATOM      5  C   UNL     1       3.645   7.750  17.451  0.00  0.00    +0.000 C 
ATOM      6  C   UNL     1       3.587   6.227  17.624  0.00  0.00    +0.000 C 
ATOM      7  C   UNL     1       2.405   5.829  18.492  0.00  0.00    +0.000 C 
ATOM      8  C   UNL     1       2.383   4.473  19.117  0.00  0.00    +0.000 A 
ATOM      9  C   UNL     1       2.724   3.253  18.561  0.00  0.00    +0.000 A 
ATOM     10  C   UNL     1       2.485   2.101  19.310  0.00  0.00    +0.000 A 
ATOM     11  C   UNL     1       1.906   2.180  20.587  0.00  0.00    +0.000 A 
ATOM     12  C   UNL     1       1.561   3.418  21.137  0.00  0.00    +0.000 A 
ATOM     13  C   UNL     1       1.807   4.557  20.389  0.00  0.00    +0.000 A 
ATOM     14  C   UNL     1       1.459   5.977  20.740  0.00  0.00    +0.000 C 
ATOM     15  C   UNL     1       2.324   6.762  19.724  0.00  0.00    +0.000 C 
ENDROOT
BRANCH   1  19
ATOM     16  C   UNL     1      -2.194  11.650  17.508  0.00  0.00    +0.000 C 
ATOM     17  C   UNL     1      -1.047  11.593  18.476  0.00  0.00    +0.000 A 
ATOM     18  C   UNL     1      -0.609  10.352  18.958  0.00  0.00    +0.000 A 
ATOM     19  C   UNL     1       0.557  10.224  19.716  0.00  0.00    +0.000 A 
ATOM     20  C   UNL     1       1.191  11.406  20.139  0.00  0.00    +0.000 A 
ATOM     21  C   UNL     1       0.708  12.663  19.752  0.00  0.00    +0.000 A 
ATOM     22  C   UNL     1      -0.389  12.745  18.899  0.00  0.00    +0.000 A 
BRANCH  22  23
ATOM     23  O   UNL     1      -0.853  13.953  18.470  0.00  0.00    +0.000 OA
ATOM     24  H   UNL     1      -1.667  14.165  18.957  0.00  0.00    +0.000 HD
ENDBRANCH  22  23
ENDBRANCH   1  19
TORSDOF 2
ENDMDL
MODEL 2
REMARK VINA RESULT:      -8.3      0.503      1.432
REMARK  Name = 
REMARK  3 active torsions:
REMARK  status: ('A' for Active; 'I' for Inactive)
REMARK    1  A    between atoms: C_1  and  C_2
REMARK    2  A    between atoms: C_4  and  C_5
REMARK    3  A    between atoms: C_22  and  O_23
REMARK                            x       y       z     vdW  Elec       q    Type
REMARK                         _______ _______ _______ _____ _____    ______ ____
ROOT
ATOM      1  C   UNL     1       1.269   8.987  19.899  0.00  0.00    +0.000 C 
ATOM      2  O   UNL     1       1.028   8.731  21.078  0.00  0.00    +0.000 OA
ATOM      3  N   UNL     1       2.002   8.101  19.090  0.00  0.00    +0.000 N 
ATOM      4  C   UNL     1       2.567   8.418  17.768  0.00  0.00    +0.000 C 
ATOM      5  C   UNL     1       3.789   7.595  17.336  0.00  0.00    +0.000 C 
ATOM      6  C   UNL     1       3.665   6.086  17.582  0.00  0.00    +0.000 C 
ATOM      7  C   UNL     1       2.445   5.778  18.432  0.00  0.00    +0.000 C 
ATOM      8  C   UNL     1       2.351   4.457  19.121  0.00  0.00    +0.000 A 
ATOM      9  C   UNL     1       2.659   3.198  18.636  0.00  0.00    +0.000 A 
ATOM     10  C   UNL     1       2.352   2.095  19.433  0.00  0.00    +0.000 A 
ATOM     11  C   UNL     1       1.741   2.260  20.687  0.00  0.00    +0.000 A 
ATOM     12  C   UNL     1       1.430   3.537  21.164  0.00  0.00    +0.000 A 
ATOM     13  C   UNL     1       1.742   4.626  20.370  0.00  0.00    +0.000 A 
ATOM     14  C   UNL     1       1.442   6.075  20.640  0.00  0.00    +0.000 C 
ATOM     15  C   UNL     1       2.366   6.774  19.613  0.00  0.00    +0.000 C 
ENDROOT
BRANCH   1  19
ATOM     16  C   UNL     1       1.706  13.959  19.026  0.00  0.00    +0.000 C 
ATOM     17  C   UNL     1       0.905  12.694  18.921  0.00  0.00    +0.000 A 
ATOM     18  C   UNL     1       1.486  11.473  19.291  0.00  0.00    +0.000 A 
ATOM     19  C   UNL     1       0.740  10.296  19.383  0.00  0.00    +0.000 A 
ATOM     20  C   UNL     1      -0.587  10.330  18.915  0.00  0.00    +0.000 A 
ATOM     21  C   UNL     1      -1.157  11.520  18.444  0.00  0.00    +0.000 A 
ATOM     22  C   UNL     1      -0.416  12.697  18.479  0.00  0.00    +0.000 A 
BRANCH  22  23
ATOM     23  O   UNL     1      -0.960  13.879  18.068  0.00  0.00    +0.000 OA
ATOM     24  H   UNL     1      -0.500  14.170  17.263  0.00  0.00    +0.000 HD
ENDBRANCH  22  23
ENDBRANCH   1  19
TORSDOF 2
ENDMDL
MODEL 3
REMARK VINA RESULT:      -8.0      2.971      7.259
REMARK  Name = 
REMARK  3 active torsions:
REMARK  status: ('A' for Active; 'I' for Inactive)
REMARK    1  A    between atoms: C_1  and  C_2
REMARK    2  A    between atoms: C_4  and  C_5
REMARK    3  A    between atoms: C_22  and  O_23
REMARK                            x       y       z     vdW  Elec       q    Type
REMARK                         _______ _______ _______ _____ _____    ______ ____
ROOT
ATOM      1  C   UNL     1       2.818   6.218  19.491  0.00  0.00    +0.000 C 
ATOM      2  O   UNL     1       2.253   5.544  20.352  0.00  0.00    +0.000 OA
ATOM      3  N   UNL     1       2.330   7.479  19.108  0.00  0.00    +0.000 N 
ATOM      4  C   UNL     1       2.763   8.241  17.925  0.00  0.00    +0.000 C 
ATOM      5  C   UNL     1       1.747   9.237  17.348  0.00  0.00    +0.000 C 
ATOM      6  C   UNL     1       1.045  10.113  18.393  0.00  0.00    +0.000 C 
ATOM      7  C   UNL     1       1.341   9.617  19.797  0.00  0.00    +0.000 C 
ATOM      8  C   UNL     1       0.463  10.052  20.924  0.00  0.00    +0.000 A 
ATOM      9  C   UNL     1      -0.054  11.307  21.192  0.00  0.00    +0.000 A 
ATOM     10  C   UNL     1      -0.740  11.492  22.392  0.00  0.00    +0.000 A 
ATOM     11  C   UNL     1      -0.892  10.435  23.305  0.00  0.00    +0.000 A 
ATOM     12  C   UNL     1      -0.361   9.173  23.026  0.00  0.00    +0.000 A 
ATOM     13  C   UNL     1       0.313   8.996  21.831  0.00  0.00    +0.000 A 
ATOM     14  C   UNL     1       1.022   7.759  21.351  0.00  0.00    +0.000 C 
ATOM     15  C   UNL     1       1.206   8.077  19.847  0.00  0.00    +0.000 C 
ENDROOT
BRANCH   1  19
ATOM     16  C   UNL     1       7.845   5.690  19.145  0.00  0.00    +0.000 C 
ATOM     17  C   UNL     1       6.470   5.305  18.681  0.00  0.00    +0.000 A 
ATOM     18  C   UNL     1       5.347   5.790  19.366  0.00  0.00    +0.000 A 
ATOM     19  C   UNL     1       4.050   5.612  18.879  0.00  0.00    +0.000 A 
ATOM     20  C   UNL     1       3.884   4.770  17.763  0.00  0.00    +0.000 A 
ATOM     21  C   UNL     1       4.989   4.192  17.125  0.00  0.00    +0.000 A 
ATOM     22  C   UNL     1       6.273   4.488  17.571  0.00  0.00    +0.000 A 
BRANCH  22  23
ATOM     23  O   UNL     1       7.369   3.975  16.940  0.00  0.00    +0.000 OA
ATOM     24  H   UNL     1       7.684   3.204  17.441  0.00  0.00    +0.000 HD
ENDBRANCH  22  23
ENDBRANCH   1  19
TORSDOF 2
ENDMDL
MODEL 4
REMARK VINA RESULT:      -7.7      3.086      7.128
REMARK  Name = 
REMARK  3 active torsions:
REMARK  status: ('A' for Active; 'I' for Inactive)
REMARK    1  A    between atoms: C_1  and  C_2
REMARK    2  A    between atoms: C_4  and  C_5
REMARK    3  A    between atoms: C_22  and  O_23
REMARK                            x       y       z     vdW  Elec       q    Type
REMARK                         _______ _______ _______ _____ _____    ______ ____
ROOT
ATOM      1  C   UNL     1       3.096   6.224  19.273  0.00  0.00    +0.000 C 
ATOM      2  O   UNL     1       2.584   5.496  20.123  0.00  0.00    +0.000 OA
ATOM      3  N   UNL     1       2.536   7.469  18.939  0.00  0.00    +0.000 N 
ATOM      4  C   UNL     1       2.906   8.288  17.772  0.00  0.00    +0.000 C 
ATOM      5  C   UNL     1       1.829   9.248  17.246  0.00  0.00    +0.000 C 
ATOM      6  C   UNL     1       1.104  10.054  18.330  0.00  0.00    +0.000 C 
ATOM      7  C   UNL     1       1.454   9.532  19.713  0.00  0.00    +0.000 C 
ATOM      8  C   UNL     1       0.578   9.886  20.870  0.00  0.00    +0.000 A 
ATOM      9  C   UNL     1       0.003  11.104  21.186  0.00  0.00    +0.000 A 
ATOM     10  C   UNL     1      -0.666  11.217  22.404  0.00  0.00    +0.000 A 
ATOM     11  C   UNL     1      -0.746  10.126  23.286  0.00  0.00    +0.000 A 
ATOM     12  C   UNL     1      -0.157   8.902  22.958  0.00  0.00    +0.000 A 
ATOM     13  C   UNL     1       0.501   8.796  21.745  0.00  0.00    +0.000 A 
ATOM     14  C   UNL     1       1.262   7.613  21.214  0.00  0.00    +0.000 C 
ATOM     15  C   UNL     1       1.398   7.986  19.717  0.00  0.00    +0.000 C 
ENDROOT
BRANCH   1  19
ATOM     16  C   UNL     1       5.553   4.072  15.399  0.00  0.00    +0.000 C 
ATOM     17  C   UNL     1       5.584   4.683  16.770  0.00  0.00    +0.000 A 
ATOM     18  C   UNL     1       4.425   5.278  17.290  0.00  0.00    +0.000 A 
ATOM     19  C   UNL     1       4.345   5.702  18.618  0.00  0.00    +0.000 A 
ATOM     20  C   UNL     1       5.527   5.680  19.381  0.00  0.00    +0.000 A 
ATOM     21  C   UNL     1       6.722   5.184  18.846  0.00  0.00    +0.000 A 
ATOM     22  C   UNL     1       6.734   4.662  17.556  0.00  0.00    +0.000 A 
BRANCH  22  23
ATOM     23  O   UNL     1       7.873   4.130  17.026  0.00  0.00    +0.000 OA
ATOM     24  H   UNL     1       7.627   3.513  16.316  0.00  0.00    +0.000 HD
ENDBRANCH  22  23
ENDBRANCH   1  19
TORSDOF 2
ENDMDL
MODEL 5
REMARK VINA RESULT:      -7.7      2.203      3.901
REMARK  Name = 
REMARK  3 active torsions:
REMARK  status: ('A' for Active; 'I' for Inactive)
REMARK    1  A    between atoms: C_1  and  C_2
REMARK    2  A    between atoms: C_4  and  C_5
REMARK    3  A    between atoms: C_22  and  O_23
REMARK                            x       y       z     vdW  Elec       q    Type
REMARK                         _______ _______ _______ _____ _____    ______ ____
ROOT
ATOM      1  C   UNL     1       1.528   8.458  19.361  0.00  0.00    +0.000 C 
ATOM      2  O   UNL     1       1.666   8.998  18.264  0.00  0.00    +0.000 OA
ATOM      3  N   UNL     1       2.046   7.178  19.620  0.00  0.00    +0.000 N 
ATOM      4  C   UNL     1       1.718   6.341  20.786  0.00  0.00    +0.000 C 
ATOM      5  C   UNL     1       1.870   4.825  20.601  0.00  0.00    +0.000 C 
ATOM      6  C   UNL     1       3.169   4.392  19.908  0.00  0.00    +0.000 C 
ATOM      7  C   UNL     1       3.900   5.594  19.337  0.00  0.00    +0.000 C 
ATOM      8  C   UNL     1       4.949   5.383  18.296  0.00  0.00    +0.000 A 
ATOM      9  C   UNL     1       5.942   4.421  18.242  0.00  0.00    +0.000 A 
ATOM     10  C   UNL     1       6.895   4.517  17.228  0.00  0.00    +0.000 A 
ATOM     11  C   UNL     1       6.850   5.566  16.295  0.00  0.00    +0.000 A 
ATOM     12  C   UNL     1       5.846   6.536  16.362  0.00  0.00    +0.000 A 
ATOM     13  C   UNL     1       4.901   6.430  17.368  0.00  0.00    +0.000 A 
ATOM     14  C   UNL     1       3.780   7.384  17.678  0.00  0.00    +0.000 C 
ATOM     15  C   UNL     1       2.897   6.522  18.613  0.00  0.00    +0.000 C 
ENDROOT
BRANCH   1  19
ATOM     16  C   UNL     1      -1.605  12.195  20.738  0.00  0.00    +0.000 C 
ATOM     17  C   UNL     1      -0.747  11.022  21.116  0.00  0.00    +0.000 A 
ATOM     18  C   UNL     1      -0.169  10.234  20.110  0.00  0.00    +0.000 A 
ATOM     19  C   UNL     1       0.775   9.246  20.397  0.00  0.00    +0.000 A 
ATOM     20  C   UNL     1       1.001   8.935  21.751  0.00  0.00    +0.000 A 
ATOM     21  C   UNL     1       0.354   9.644  22.772  0.00  0.00    +0.000 A 
ATOM     22  C   UNL     1      -0.490  10.701  22.446  0.00  0.00    +0.000 A 
BRANCH  22  23
ATOM     23  O   UNL     1      -1.098  11.437  23.421  0.00  0.00    +0.000 OA
ATOM     24  H   UNL     1      -0.954  10.999  24.277  0.00  0.00    +0.000 HD
ENDBRANCH  22  23
ENDBRANCH   1  19
TORSDOF 2
ENDMDL
MODEL 6
REMARK VINA RESULT:      -7.6      2.272      3.887
REMARK  Name = 
REMARK  3 active torsions:
REMARK  status: ('A' for Active; 'I' for Inactive)
REMARK    1  A    between atoms: C_1  and  C_2
REMARK    2  A    between atoms: C_4  and  C_5
REMARK    3  A    between atoms: C_22  and  O_23
REMARK                            x       y       z     vdW  Elec       q    Type
REMARK                         _______ _______ _______ _____ _____    ______ ____
ROOT
ATOM      1  C   UNL     1       1.631   8.658  18.700  0.00  0.00    +0.000 C 
ATOM      2  O   UNL     1       1.848   9.032  17.548  0.00  0.00    +0.000 OA
ATOM      3  N   UNL     1       2.127   7.434  19.181  0.00  0.00    +0.000 N 
ATOM      4  C   UNL     1       1.714   6.775  20.431  0.00  0.00    +0.000 C 
ATOM      5  C   UNL     1       1.878   5.249  20.482  0.00  0.00    +0.000 C 
ATOM      6  C   UNL     1       3.222   4.732  19.955  0.00  0.00    +0.000 C 
ATOM      7  C   UNL     1       3.995   5.844  19.268  0.00  0.00    +0.000 C 
ATOM      8  C   UNL     1       5.116   5.492  18.346  0.00  0.00    +0.000 A 
ATOM      9  C   UNL     1       6.109   4.541  18.506  0.00  0.00    +0.000 A 
ATOM     10  C   UNL     1       7.132   4.496  17.559  0.00  0.00    +0.000 A 
ATOM     11  C   UNL     1       7.156   5.396  16.481  0.00  0.00    +0.000 A 
ATOM     12  C   UNL     1       6.151   6.356  16.333  0.00  0.00    +0.000 A 
ATOM     13  C   UNL     1       5.136   6.390  17.273  0.00  0.00    +0.000 A 
ATOM     14  C   UNL     1       3.997   7.369  17.359  0.00  0.00    +0.000 C 
ATOM     15  C   UNL     1       3.048   6.646  18.344  0.00  0.00    +0.000 C 
ENDROOT
BRANCH   1  19
ATOM     16  C   UNL     1      -0.477   9.987  23.111  0.00  0.00    +0.000 C 
ATOM     17  C   UNL     1      -0.218  10.281  21.662  0.00  0.00    +0.000 A 
ATOM     18  C   UNL     1       0.663   9.467  20.936  0.00  0.00    +0.000 A 
ATOM     19  C   UNL     1       0.806   9.582  19.552  0.00  0.00    +0.000 A 
ATOM     20  C   UNL     1       0.169  10.666  18.921  0.00  0.00    +0.000 A 
ATOM     21  C   UNL     1      -0.636  11.553  19.647  0.00  0.00    +0.000 A 
ATOM     22  C   UNL     1      -0.847  11.336  21.005  0.00  0.00    +0.000 A 
BRANCH  22  23
ATOM     23  O   UNL     1      -1.662  12.157  21.727  0.00  0.00    +0.000 OA
ATOM     24  H   UNL     1      -1.798  11.765  22.606  0.00  0.00    +0.000 HD
ENDBRANCH  22  23
ENDBRANCH   1  19
TORSDOF 2
ENDMDL
MODEL 7
REMARK VINA RESULT:      -7.4      2.305      7.546
REMARK  Name = 
REMARK  3 active torsions:
REMARK  status: ('A' for Active; 'I' for Inactive)
REMARK    1  A    between atoms: C_1  and  C_2
REMARK    2  A    between atoms: C_4  and  C_5
REMARK    3  A    between atoms: C_22  and  O_23
REMARK                            x       y       z     vdW  Elec       q    Type
REMARK                         _______ _______ _______ _____ _____    ______ ____
ROOT
ATOM      1  C   UNL     1       2.304   7.899  18.223  0.00  0.00    +0.000 C 
ATOM      2  O   UNL     1       2.420   8.658  17.261  0.00  0.00    +0.000 OA
ATOM      3  N   UNL     1       1.752   8.335  19.440  0.00  0.00    +0.000 N 
ATOM      4  C   UNL     1       1.808   7.602  20.716  0.00  0.00    +0.000 C 
ATOM      5  C   UNL     1       1.718   8.450  21.993  0.00  0.00    +0.000 C 
ATOM      6  C   UNL     1       0.622   9.523  21.972  0.00  0.00    +0.000 C 
ATOM      7  C   UNL     1       0.031   9.663  20.580  0.00  0.00    +0.000 C 
ATOM      8  C   UNL     1      -0.743  10.892  20.236  0.00  0.00    +0.000 A 
ATOM      9  C   UNL     1      -1.686  11.567  20.991  0.00  0.00    +0.000 A 
ATOM     10  C   UNL     1      -2.376  12.620  20.390  0.00  0.00    +0.000 A 
ATOM     11  C   UNL     1      -2.126  12.976  19.055  0.00  0.00    +0.000 A 
ATOM     12  C   UNL     1      -1.175  12.284  18.300  0.00  0.00    +0.000 A 
ATOM     13  C   UNL     1      -0.490  11.245  18.905  0.00  0.00    +0.000 A 
ATOM     14  C   UNL     1       0.517  10.321  18.278  0.00  0.00    +0.000 C 
ATOM     15  C   UNL     1       1.167   9.683  19.530  0.00  0.00    +0.000 C 
ENDROOT
BRANCH   1  19
ATOM     16  C   UNL     1       1.596   2.882  18.232  0.00  0.00    +0.000 C 
ATOM     17  C   UNL     1       2.494   4.060  17.987  0.00  0.00    +0.000 A 
ATOM     18  C   UNL     1       1.968   5.358  18.060  0.00  0.00    +0.000 A 
ATOM     19  C   UNL     1       2.786   6.490  18.018  0.00  0.00    +0.000 A 
ATOM     20  C   UNL     1       4.147   6.298  17.715  0.00  0.00    +0.000 A 
ATOM     21  C   UNL     1       4.672   5.011  17.537  0.00  0.00    +0.000 A 
ATOM     22  C   UNL     1       3.848   3.903  17.703  0.00  0.00    +0.000 A 
BRANCH  22  23
ATOM     23  O   UNL     1       4.343   2.638  17.580  0.00  0.00    +0.000 OA
ATOM     24  H   UNL     1       4.964   2.474  18.310  0.00  0.00    +0.000 HD
ENDBRANCH  22  23
ENDBRANCH   1  19
TORSDOF 2
ENDMDL
MODEL 8
REMARK VINA RESULT:      -7.4      3.796      5.530
REMARK  Name = 
REMARK  3 active torsions:
REMARK  status: ('A' for Active; 'I' for Inactive)
REMARK    1  A    between atoms: C_1  and  C_2
REMARK    2  A    between atoms: C_4  and  C_5
REMARK    3  A    between atoms: C_22  and  O_23
REMARK                            x       y       z     vdW  Elec       q    Type
REMARK                         _______ _______ _______ _____ _____    ______ ____
ROOT
ATOM      1  C   UNL     1      -0.779  11.670  22.604  0.00  0.00    +0.000 C 
ATOM      2  O   UNL     1      -0.408  10.821  23.414  0.00  0.00    +0.000 OA
ATOM      3  N   UNL     1      -0.175  11.794  21.341  0.00  0.00    +0.000 N 
ATOM      4  C   UNL     1      -0.355  12.923  20.413  0.00  0.00    +0.000 C 
ATOM      5  C   UNL     1       0.792  13.181  19.425  0.00  0.00    +0.000 C 
ATOM      6  C   UNL     1       1.334  11.925  18.732  0.00  0.00    +0.000 C 
ATOM      7  C   UNL     1       0.770  10.670  19.374  0.00  0.00    +0.000 C 
ATOM      8  C   UNL     1       1.450   9.361  19.140  0.00  0.00    +0.000 A 
ATOM      9  C   UNL     1       1.967   8.846  17.964  0.00  0.00    +0.000 A 
ATOM     10  C   UNL     1       2.434   7.532  17.973  0.00  0.00    +0.000 A 
ATOM     11  C   UNL     1       2.373   6.754  19.140  0.00  0.00    +0.000 A 
ATOM     12  C   UNL     1       1.845   7.283  20.321  0.00  0.00    +0.000 A 
ATOM     13  C   UNL     1       1.388   8.590  20.306  0.00  0.00    +0.000 A 
ATOM     14  C   UNL     1       0.722   9.342  21.424  0.00  0.00    +0.000 C 
ATOM     15  C   UNL     1       0.825  10.800  20.914  0.00  0.00    +0.000 C 
ENDROOT
BRANCH   1  19
ATOM     16  C   UNL     1      -2.636  15.533  25.304  0.00  0.00    +0.000 C 
ATOM     17  C   UNL     1      -2.854  14.427  24.314  0.00  0.00    +0.000 A 
ATOM     18  C   UNL     1      -1.753  13.706  23.827  0.00  0.00    +0.000 A 
ATOM     19  C   UNL     1      -1.908  12.559  23.046  0.00  0.00    +0.000 A 
ATOM     20  C   UNL     1      -3.206  12.242  22.606  0.00  0.00    +0.000 A 
ATOM     21  C   UNL     1      -4.309  13.011  22.999  0.00  0.00    +0.000 A 
ATOM     22  C   UNL     1      -4.127  14.078  23.873  0.00  0.00    +0.000 A 
BRANCH  22  23
ATOM     23  O   UNL     1      -5.190  14.815  24.308  0.00  0.00    +0.000 OA
ATOM     24  H   UNL     1      -5.594  15.259  23.543  0.00  0.00    +0.000 HD
ENDBRANCH  22  23
ENDBRANCH   1  19
TORSDOF 2
ENDMDL
MODEL 9
REMARK VINA RESULT:      -7.3      3.770      5.352
REMARK  Name = 
REMARK  3 active torsions:
REMARK  status: ('A' for Active; 'I' for Inactive)
REMARK    1  A    between atoms: C_1  and  C_2
REMARK    2  A    between atoms: C_4  and  C_5
REMARK    3  A    between atoms: C_22  and  O_23
REMARK                            x       y       z     vdW  Elec       q    Type
REMARK                         _______ _______ _______ _____ _____    ______ ____
ROOT
ATOM      1  C   UNL     1      -0.820  11.675  22.633  0.00  0.00    +0.000 C 
ATOM      2  O   UNL     1      -0.424  10.831  23.436  0.00  0.00    +0.000 OA
ATOM      3  N   UNL     1      -0.234  11.813  21.362  0.00  0.00    +0.000 N 
ATOM      4  C   UNL     1      -0.446  12.942  20.441  0.00  0.00    +0.000 C 
ATOM      5  C   UNL     1       0.683  13.222  19.438  0.00  0.00    +0.000 C 
ATOM      6  C   UNL     1       1.238  11.978  18.734  0.00  0.00    +0.000 C 
ATOM      7  C   UNL     1       0.704  10.711  19.380  0.00  0.00    +0.000 C 
ATOM      8  C   UNL     1       1.404   9.416  19.133  0.00  0.00    +0.000 A 
ATOM      9  C   UNL     1       1.913   8.913  17.949  0.00  0.00    +0.000 A 
ATOM     10  C   UNL     1       2.404   7.607  17.948  0.00  0.00    +0.000 A 
ATOM     11  C   UNL     1       2.372   6.825  19.114  0.00  0.00    +0.000 A 
ATOM     12  C   UNL     1       1.850   7.341  20.304  0.00  0.00    +0.000 A 
ATOM     13  C   UNL     1       1.370   8.640  20.298  0.00  0.00    +0.000 A 
ATOM     14  C   UNL     1       0.706   9.377  21.427  0.00  0.00    +0.000 C 
ATOM     15  C   UNL     1       0.777  10.838  20.920  0.00  0.00    +0.000 C 
ENDROOT
BRANCH   1  19
ATOM     16  C   UNL     1      -5.732  12.908  22.776  0.00  0.00    +0.000 C 
ATOM     17  C   UNL     1      -4.320  13.173  23.211  0.00  0.00    +0.000 A 
ATOM     18  C   UNL     1      -3.308  12.264  22.870  0.00  0.00    +0.000 A 
ATOM     19  C   UNL     1      -1.958  12.544  23.092  0.00  0.00    +0.000 A 
ATOM     20  C   UNL     1      -1.647  13.696  23.838  0.00  0.00    +0.000 A 
ATOM     21  C   UNL     1      -2.653  14.565  24.277  0.00  0.00    +0.000 A 
ATOM     22  C   UNL     1      -3.978  14.312  23.935  0.00  0.00    +0.000 A 
BRANCH  22  23
ATOM     23  O   UNL     1      -4.973  15.166  24.310  0.00  0.00    +0.000 OA
ATOM     24  H   UNL     1      -5.664  14.657  24.767  0.00  0.00    +0.000 HD
ENDBRANCH  22  23
ENDBRANCH   1  19
TORSDOF 2
ENDMDL
