MODEL 1
REMARK VINA RESULT:      -7.3      0.000      0.000
REMARK  Name = 
REMARK  8 active torsions:
REMARK  status: ('A' for Active; 'I' for Inactive)
REMARK    1  A    between atoms: C_1  and  C_2
REMARK    2  A    between atoms: C_2  and  O_3
REMARK    3  A    between atoms: O_3  and  C_4
REMARK    4  A    between atoms: C_7  and  N_8
REMARK    5  A    between atoms: C_9  and  C_11
REMARK    6  A    between atoms: C_11  and  C_12
REMARK    7  A    between atoms: C_12  and  N_13
REMARK    8  A    between atoms: C_14  and  C_16
REMARK                            x       y       z     vdW  Elec       q    Type
REMARK                         _______ _______ _______ _____ _____    ______ ____
ROOT
ATOM      1  N   UNL     1       7.475   5.380  15.777  0.00  0.00    +0.000 N 
ATOM      2  C   UNL     1       6.874   6.334  16.581  0.00  0.00    +0.000 C 
ATOM      3  O   UNL     1       5.774   6.848  16.390  0.00  0.00    +0.000 OA
ATOM      4  H   UNL     1       8.315   4.935  16.127  0.00  0.00    +0.000 HD
ENDROOT
BRANCH   1   8
ATOM      5  C   UNL     1       5.887   3.720  12.229  0.00  0.00    +0.000 A 
ATOM      6  C   UNL     1       5.182   3.606  13.421  0.00  0.00    +0.000 A 
ATOM      7  C   UNL     1       5.682   4.166  14.596  0.00  0.00    +0.000 A 
ATOM      8  C   UNL     1       6.909   4.832  14.604  0.00  0.00    +0.000 A 
ATOM      9  C   UNL     1       7.615   4.952  13.401  0.00  0.00    +0.000 A 
ATOM     10  C   UNL     1       7.116   4.381  12.221  0.00  0.00    +0.000 A 
BRANCH   5  11
ATOM     11  O   UNL     1       5.283   3.133  11.155  0.00  0.00    +0.000 OA
BRANCH  11  13
ATOM     12  C   UNL     1       3.302   3.834  10.050  0.00  0.00    +0.000 C 
ATOM     13  C   UNL     1       3.863   3.027  11.206  0.00  0.00    +0.000 C 
ENDBRANCH  11  13
ENDBRANCH   5  11
ENDBRANCH   1   8
BRANCH   2  14
ATOM     14  C   UNL     1       7.705   6.741  17.775  0.00  0.00    +0.000 C 
BRANCH  14  15
ATOM     15  C   UNL     1       7.379   5.812  18.943  0.00  0.00    +0.000 C 
BRANCH  15  16
ATOM     16  N   UNL     1       6.438   4.770  18.597  0.00  0.00    +0.000 N 
ATOM     17  C   UNL     1       5.133   4.774  19.036  0.00  0.00    +0.000 C 
ATOM     18  O   UNL     1       4.653   5.720  19.656  0.00  0.00    +0.000 OA
ATOM     19  H   UNL     1       6.779   3.909  18.179  0.00  0.00    +0.000 HD
BRANCH  17  20
ATOM     20  C   UNL     1       4.389   3.583  18.692  0.00  0.00    +0.000 A 
ATOM     21  C   UNL     1       3.579   3.309  17.609  0.00  0.00    +0.000 A 
ATOM     22  C   UNL     1       3.102   1.991  17.778  0.00  0.00    +0.000 A 
ATOM     23  C   UNL     1       3.652   1.533  18.954  0.00  0.00    +0.000 A 
ATOM     24  O   UNL     1       4.438   2.487  19.516  0.00  0.00    +0.000 OA
ENDBRANCH  17  20
ENDBRANCH  15  16
ENDBRANCH  14  15
ENDBRANCH   2  14
TORSDOF 7
ENDMDL
MODEL 2
REMARK VINA RESULT:      -7.1      4.084      7.018
REMARK  Name = 
REMARK  8 active torsions:
REMARK  status: ('A' for Active; 'I' for Inactive)
REMARK    1  A    between atoms: C_1  and  C_2
REMARK    2  A    between atoms: C_2  and  O_3
REMARK    3  A    between atoms: O_3  and  C_4
REMARK    4  A    between atoms: C_7  and  N_8
REMARK    5  A    between atoms: C_9  and  C_11
REMARK    6  A    between atoms: C_11  and  C_12
REMARK    7  A    between atoms: C_12  and  N_13
REMARK    8  A    between atoms: C_14  and  C_16
REMARK                            x       y       z     vdW  Elec       q    Type
REMARK                         _______ _______ _______ _____ _____    ______ ____
ROOT
ATOM      1  N   UNL     1       3.595   6.381  17.376  0.00  0.00    +0.000 N 
ATOM      2  C   UNL     1       4.792   5.762  17.697  0.00  0.00    +0.000 C 
ATOM      3  O   UNL     1       5.375   5.835  18.776  0.00  0.00    +0.000 OA
ATOM      4  H   UNL     1       3.152   6.121  16.503  0.00  0.00    +0.000 HD
ENDROOT
BRANCH   1   8
ATOM      5  C   UNL     1       1.281   8.853  19.906  0.00  0.00    +0.000 A 
ATOM      6  C   UNL     1       1.711   7.610  20.358  0.00  0.00    +0.000 A 
ATOM      7  C   UNL     1       2.492   6.792  19.544  0.00  0.00    +0.000 A 
ATOM      8  C   UNL     1       2.840   7.192  18.252  0.00  0.00    +0.000 A 
ATOM      9  C   UNL     1       2.413   8.447  17.801  0.00  0.00    +0.000 A 
ATOM     10  C   UNL     1       1.619   9.267  18.618  0.00  0.00    +0.000 A 
BRANCH   5  11
ATOM     11  O   UNL     1       0.530   9.554  20.804  0.00  0.00    +0.000 OA
BRANCH  11  13
ATOM     12  C   UNL     1      -0.240   9.549  23.051  0.00  0.00    +0.000 C 
ATOM     13  C   UNL     1      -0.221   8.784  21.740  0.00  0.00    +0.000 C 
ENDBRANCH  11  13
ENDBRANCH   5  11
ENDBRANCH   1   8
BRANCH   2  14
ATOM     14  C   UNL     1       5.384   4.952  16.567  0.00  0.00    +0.000 C 
BRANCH  14  15
ATOM     15  C   UNL     1       4.824   3.532  16.633  0.00  0.00    +0.000 C 
BRANCH  15  16
ATOM     16  N   UNL     1       4.189   3.227  17.895  0.00  0.00    +0.000 N 
ATOM     17  C   UNL     1       2.821   3.240  18.060  0.00  0.00    +0.000 C 
ATOM     18  O   UNL     1       2.049   3.400  17.118  0.00  0.00    +0.000 OA
ATOM     19  H   UNL     1       4.752   3.187  18.739  0.00  0.00    +0.000 HD
BRANCH  17  20
ATOM     20  C   UNL     1       2.388   3.037  19.424  0.00  0.00    +0.000 A 
ATOM     21  C   UNL     1       1.126   3.068  19.982  0.00  0.00    +0.000 A 
ATOM     22  C   UNL     1       1.282   2.802  21.360  0.00  0.00    +0.000 A 
ATOM     23  C   UNL     1       2.631   2.620  21.565  0.00  0.00    +0.000 A 
ATOM     24  O   UNL     1       3.312   2.756  20.398  0.00  0.00    +0.000 OA
ENDBRANCH  17  20
ENDBRANCH  15  16
ENDBRANCH  14  15
ENDBRANCH   2  14
TORSDOF 7
ENDMDL
MODEL 3
REMARK VINA RESULT:      -7.1      1.048      1.799
REMARK  Name = 
REMARK  8 active torsions:
REMARK  status: ('A' for Active; 'I' for Inactive)
REMARK    1  A    between atoms: C_1  and  C_2
REMARK    2  A    between atoms: C_2  and  O_3
REMARK    3  A    between atoms: O_3  and  C_4
REMARK    4  A    between atoms: C_7  and  N_8
REMARK    5  A    between atoms: C_9  and  C_11
REMARK    6  A    between atoms: C_11  and  C_12
REMARK    7  A    between atoms: C_12  and  N_13
REMARK    8  A    between atoms: C_14  and  C_16
REMARK                            x       y       z     vdW  Elec       q    Type
REMARK                         _______ _______ _______ _____ _____    ______ ____
ROOT
ATOM      1  N   UNL     1       7.405   5.030  16.320  0.00  0.00    +0.000 N 
ATOM      2  C   UNL     1       7.080   6.211  16.967  0.00  0.00    +0.000 C 
ATOM      3  O   UNL     1       6.319   7.078  16.546  0.00  0.00    +0.000 OA
ATOM      4  H   UNL     1       7.929   4.339  16.843  0.00  0.00    +0.000 HD
ENDROOT
BRANCH   1   8
ATOM      5  C   UNL     1       5.776   3.833  12.608  0.00  0.00    +0.000 A 
ATOM      6  C   UNL     1       7.019   4.453  12.650  0.00  0.00    +0.000 A 
ATOM      7  C   UNL     1       7.580   4.836  13.867  0.00  0.00    +0.000 A 
ATOM      8  C   UNL     1       6.896   4.624  15.066  0.00  0.00    +0.000 A 
ATOM      9  C   UNL     1       5.647   3.993  15.024  0.00  0.00    +0.000 A 
ATOM     10  C   UNL     1       5.080   3.616  13.797  0.00  0.00    +0.000 A 
BRANCH   5  11
ATOM     11  O   UNL     1       5.348   3.505  11.355  0.00  0.00    +0.000 OA
BRANCH  11  13
ATOM     12  C   UNL     1       3.356   3.836  10.106  0.00  0.00    +0.000 C 
ATOM     13  C   UNL     1       3.998   3.062  11.242  0.00  0.00    +0.000 C 
ENDBRANCH  11  13
ENDBRANCH   5  11
ENDBRANCH   1   8
BRANCH   2  14
ATOM     14  C   UNL     1       7.771   6.390  18.298  0.00  0.00    +0.000 C 
BRANCH  14  15
ATOM     15  C   UNL     1       6.945   5.695  19.380  0.00  0.00    +0.000 C 
BRANCH  15  16
ATOM     16  N   UNL     1       5.562   5.501  19.004  0.00  0.00    +0.000 N 
ATOM     17  C   UNL     1       4.935   4.277  19.089  0.00  0.00    +0.000 C 
ATOM     18  O   UNL     1       5.476   3.297  19.596  0.00  0.00    +0.000 OA
ATOM     19  H   UNL     1       5.081   6.228  18.484  0.00  0.00    +0.000 HD
BRANCH  17  20
ATOM     20  C   UNL     1       3.596   4.260  18.546  0.00  0.00    +0.000 A 
ATOM     21  C   UNL     1       2.889   3.251  17.924  0.00  0.00    +0.000 A 
ATOM     22  C   UNL     1       1.624   3.783  17.593  0.00  0.00    +0.000 A 
ATOM     23  C   UNL     1       1.629   5.087  18.035  0.00  0.00    +0.000 A 
ATOM     24  O   UNL     1       2.817   5.387  18.619  0.00  0.00    +0.000 OA
ENDBRANCH  17  20
ENDBRANCH  15  16
ENDBRANCH  14  15
ENDBRANCH   2  14
TORSDOF 7
ENDMDL
MODEL 4
REMARK VINA RESULT:      -7.0      4.014      7.014
REMARK  Name = 
REMARK  8 active torsions:
REMARK  status: ('A' for Active; 'I' for Inactive)
REMARK    1  A    between atoms: C_1  and  C_2
REMARK    2  A    between atoms: C_2  and  O_3
REMARK    3  A    between atoms: O_3  and  C_4
REMARK    4  A    between atoms: C_7  and  N_8
REMARK    5  A    between atoms: C_9  and  C_11
REMARK    6  A    between atoms: C_11  and  C_12
REMARK    7  A    between atoms: C_12  and  N_13
REMARK    8  A    between atoms: C_14  and  C_16
REMARK                            x       y       z     vdW  Elec       q    Type
REMARK                         _______ _______ _______ _____ _____    ______ ____
ROOT
ATOM      1  N   UNL     1       3.665   6.327  17.358  0.00  0.00    +0.000 N 
ATOM      2  C   UNL     1       4.881   5.762  17.706  0.00  0.00    +0.000 C 
ATOM      3  O   UNL     1       5.451   5.888  18.786  0.00  0.00    +0.000 OA
ATOM      4  H   UNL     1       3.239   6.024  16.490  0.00  0.00    +0.000 HD
ENDROOT
BRANCH   1   8
ATOM      5  C   UNL     1       1.345   8.696  19.979  0.00  0.00    +0.000 A 
ATOM      6  C   UNL     1       1.679   9.182  18.721  0.00  0.00    +0.000 A 
ATOM      7  C   UNL     1       2.425   8.405  17.837  0.00  0.00    +0.000 A 
ATOM      8  C   UNL     1       2.872   7.134  18.204  0.00  0.00    +0.000 A 
ATOM      9  C   UNL     1       2.529   6.642  19.469  0.00  0.00    +0.000 A 
ATOM     10  C   UNL     1       1.785   7.428  20.362  0.00  0.00    +0.000 A 
BRANCH   5  11
ATOM     11  O   UNL     1       0.607   9.554  20.741  0.00  0.00    +0.000 OA
BRANCH  11  13
ATOM     12  C   UNL     1       0.101   9.471  23.060  0.00  0.00    +0.000 C 
ATOM     13  C   UNL     1      -0.283   8.960  21.683  0.00  0.00    +0.000 C 
ENDBRANCH  11  13
ENDBRANCH   5  11
ENDBRANCH   1   8
BRANCH   2  14
ATOM     14  C   UNL     1       5.513   4.942  16.605  0.00  0.00    +0.000 C 
BRANCH  14  15
ATOM     15  C   UNL     1       4.935   3.528  16.651  0.00  0.00    +0.000 C 
BRANCH  15  16
ATOM     16  N   UNL     1       4.277   3.221  17.901  0.00  0.00    +0.000 N 
ATOM     17  C   UNL     1       2.906   3.180  18.027  0.00  0.00    +0.000 C 
ATOM     18  O   UNL     1       2.155   3.289  17.061  0.00  0.00    +0.000 OA
ATOM     19  H   UNL     1       4.817   3.220  18.761  0.00  0.00    +0.000 HD
BRANCH  17  20
ATOM     20  C   UNL     1       2.442   2.984  19.382  0.00  0.00    +0.000 A 
ATOM     21  C   UNL     1       1.167   3.002  19.909  0.00  0.00    +0.000 A 
ATOM     22  C   UNL     1       1.293   2.753  21.293  0.00  0.00    +0.000 A 
ATOM     23  C   UNL     1       2.639   2.594  21.533  0.00  0.00    +0.000 A 
ATOM     24  O   UNL     1       3.347   2.728  20.382  0.00  0.00    +0.000 OA
ENDBRANCH  17  20
ENDBRANCH  15  16
ENDBRANCH  14  15
ENDBRANCH   2  14
TORSDOF 7
ENDMDL
MODEL 5
REMARK VINA RESULT:      -7.0      1.421      1.582
REMARK  Name = 
REMARK  8 active torsions:
REMARK  status: ('A' for Active; 'I' for Inactive)
REMARK    1  A    between atoms: C_1  and  C_2
REMARK    2  A    between atoms: C_2  and  O_3
REMARK    3  A    between atoms: O_3  and  C_4
REMARK    4  A    between atoms: C_7  and  N_8
REMARK    5  A    between atoms: C_9  and  C_11
REMARK    6  A    between atoms: C_11  and  C_12
REMARK    7  A    between atoms: C_12  and  N_13
REMARK    8  A    between atoms: C_14  and  C_16
REMARK                            x       y       z     vdW  Elec       q    Type
REMARK                         _______ _______ _______ _____ _____    ______ ____
ROOT
ATOM      1  N   UNL     1       6.959   5.777  16.177  0.00  0.00    +0.000 N 
ATOM      2  C   UNL     1       7.595   5.248  17.289  0.00  0.00    +0.000 C 
ATOM      3  O   UNL     1       8.099   4.130  17.367  0.00  0.00    +0.000 OA
ATOM      4  H   UNL     1       6.718   6.760  16.200  0.00  0.00    +0.000 HD
ENDROOT
BRANCH   1   8
ATOM      5  C   UNL     1       6.595   3.802  12.458  0.00  0.00    +0.000 A 
ATOM      6  C   UNL     1       5.725   3.488  13.495  0.00  0.00    +0.000 A 
ATOM      7  C   UNL     1       5.818   4.144  14.721  0.00  0.00    +0.000 A 
ATOM      8  C   UNL     1       6.799   5.113  14.940  0.00  0.00    +0.000 A 
ATOM      9  C   UNL     1       7.671   5.434  13.892  0.00  0.00    +0.000 A 
ATOM     10  C   UNL     1       7.582   4.767  12.661  0.00  0.00    +0.000 A 
BRANCH   5  11
ATOM     11  O   UNL     1       6.390   3.091  11.312  0.00  0.00    +0.000 OA
BRANCH  11  13
ATOM     12  C   UNL     1       6.336   0.729  11.071  0.00  0.00    +0.000 C 
ATOM     13  C   UNL     1       5.523   1.964  11.411  0.00  0.00    +0.000 C 
ENDBRANCH  11  13
ENDBRANCH   5  11
ENDBRANCH   1   8
BRANCH   2  14
ATOM     14  C   UNL     1       7.622   6.177  18.479  0.00  0.00    +0.000 C 
BRANCH  14  15
ATOM     15  C   UNL     1       6.876   5.516  19.637  0.00  0.00    +0.000 C 
BRANCH  15  16
ATOM     16  N   UNL     1       5.854   4.590  19.203  0.00  0.00    +0.000 N 
ATOM     17  C   UNL     1       4.532   4.954  19.068  0.00  0.00    +0.000 C 
ATOM     18  O   UNL     1       4.155   6.116  19.199  0.00  0.00    +0.000 OA
ATOM     19  H   UNL     1       6.062   3.597  19.175  0.00  0.00    +0.000 HD
BRANCH  17  20
ATOM     20  C   UNL     1       3.646   3.857  18.749  0.00  0.00    +0.000 A 
ATOM     21  C   UNL     1       2.268   3.798  18.697  0.00  0.00    +0.000 A 
ATOM     22  C   UNL     1       1.930   2.476  18.335  0.00  0.00    +0.000 A 
ATOM     23  C   UNL     1       3.121   1.803  18.183  0.00  0.00    +0.000 A 
ATOM     24  O   UNL     1       4.170   2.630  18.427  0.00  0.00    +0.000 OA
ENDBRANCH  17  20
ENDBRANCH  15  16
ENDBRANCH  14  15
ENDBRANCH   2  14
TORSDOF 7
ENDMDL
MODEL 6
REMARK VINA RESULT:      -6.9      4.252      7.286
REMARK  Name = 
REMARK  8 active torsions:
REMARK  status: ('A' for Active; 'I' for Inactive)
REMARK    1  A    between atoms: C_1  and  C_2
REMARK    2  A    between atoms: C_2  and  O_3
REMARK    3  A    between atoms: O_3  and  C_4
REMARK    4  A    between atoms: C_7  and  N_8
REMARK    5  A    between atoms: C_9  and  C_11
REMARK    6  A    between atoms: C_11  and  C_12
REMARK    7  A    between atoms: C_12  and  N_13
REMARK    8  A    between atoms: C_14  and  C_16
REMARK                            x       y       z     vdW  Elec       q    Type
REMARK                         _______ _______ _______ _____ _____    ______ ____
ROOT
ATOM      1  N   UNL     1       2.791   5.696  20.264  0.00  0.00    +0.000 N 
ATOM      2  C   UNL     1       2.039   4.540  20.395  0.00  0.00    +0.000 C 
ATOM      3  O   UNL     1       0.837   4.433  20.168  0.00  0.00    +0.000 OA
ATOM      4  H   UNL     1       3.797   5.611  20.342  0.00  0.00    +0.000 HD
ENDROOT
BRANCH   1   8
ATOM      5  C   UNL     1       1.284   9.388  18.863  0.00  0.00    +0.000 A 
ATOM      6  C   UNL     1       1.092   9.022  20.190  0.00  0.00    +0.000 A 
ATOM      7  C   UNL     1       1.600   7.817  20.673  0.00  0.00    +0.000 A 
ATOM      8  C   UNL     1       2.292   6.945  19.830  0.00  0.00    +0.000 A 
ATOM      9  C   UNL     1       2.492   7.318  18.496  0.00  0.00    +0.000 A 
ATOM     10  C   UNL     1       1.973   8.527  18.008  0.00  0.00    +0.000 A 
BRANCH   5  11
ATOM     11  O   UNL     1       0.741  10.593  18.523  0.00  0.00    +0.000 OA
BRANCH  11  13
ATOM     12  C   UNL     1       2.317  12.355  18.297  0.00  0.00    +0.000 C 
ATOM     13  C   UNL     1       1.263  11.736  19.196  0.00  0.00    +0.000 C 
ENDBRANCH  11  13
ENDBRANCH   5  11
ENDBRANCH   1   8
BRANCH   2  14
ATOM     14  C   UNL     1       2.830   3.347  20.878  0.00  0.00    +0.000 C 
BRANCH  14  15
ATOM     15  C   UNL     1       3.214   2.490  19.672  0.00  0.00    +0.000 C 
BRANCH  15  16
ATOM     16  N   UNL     1       4.271   3.070  18.874  0.00  0.00    +0.000 N 
ATOM     17  C   UNL     1       4.054   3.582  17.614  0.00  0.00    +0.000 C 
ATOM     18  O   UNL     1       2.928   3.682  17.132  0.00  0.00    +0.000 OA
ATOM     19  H   UNL     1       5.238   2.934  19.154  0.00  0.00    +0.000 HD
BRANCH  17  20
ATOM     20  C   UNL     1       5.257   3.998  16.928  0.00  0.00    +0.000 A 
ATOM     21  C   UNL     1       5.542   4.081  15.581  0.00  0.00    +0.000 A 
ATOM     22  C   UNL     1       6.871   4.545  15.473  0.00  0.00    +0.000 A 
ATOM     23  C   UNL     1       7.321   4.723  16.762  0.00  0.00    +0.000 A 
ATOM     24  O   UNL     1       6.350   4.398  17.654  0.00  0.00    +0.000 OA
ENDBRANCH  17  20
ENDBRANCH  15  16
ENDBRANCH  14  15
ENDBRANCH   2  14
TORSDOF 7
ENDMDL
MODEL 7
REMARK VINA RESULT:      -6.9      4.379      7.295
REMARK  Name = 
REMARK  8 active torsions:
REMARK  status: ('A' for Active; 'I' for Inactive)
REMARK    1  A    between atoms: C_1  and  C_2
REMARK    2  A    between atoms: C_2  and  O_3
REMARK    3  A    between atoms: O_3  and  C_4
REMARK    4  A    between atoms: C_7  and  N_8
REMARK    5  A    between atoms: C_9  and  C_11
REMARK    6  A    between atoms: C_11  and  C_12
REMARK    7  A    between atoms: C_12  and  N_13
REMARK    8  A    between atoms: C_14  and  C_16
REMARK                            x       y       z     vdW  Elec       q    Type
REMARK                         _______ _______ _______ _____ _____    ______ ____
ROOT
ATOM      1  N   UNL     1       2.878   5.729  20.124  0.00  0.00    +0.000 N 
ATOM      2  C   UNL     1       2.168   4.564  20.363  0.00  0.00    +0.000 C 
ATOM      3  O   UNL     1       0.951   4.429  20.269  0.00  0.00    +0.000 OA
ATOM      4  H   UNL     1       3.888   5.665  20.096  0.00  0.00    +0.000 HD
ENDROOT
BRANCH   1   8
ATOM      5  C   UNL     1       1.195   9.443  19.011  0.00  0.00    +0.000 A 
ATOM      6  C   UNL     1       1.878   8.684  18.068  0.00  0.00    +0.000 A 
ATOM      7  C   UNL     1       2.422   7.448  18.414  0.00  0.00    +0.000 A 
ATOM      8  C   UNL     1       2.310   6.957  19.716  0.00  0.00    +0.000 A 
ATOM      9  C   UNL     1       1.615   7.719  20.663  0.00  0.00    +0.000 A 
ATOM     10  C   UNL     1       1.075   8.968  20.317  0.00  0.00    +0.000 A 
BRANCH   5  11
ATOM     11  O   UNL     1       0.709  10.628  18.540  0.00  0.00    +0.000 OA
BRANCH  11  13
ATOM     12  C   UNL     1      -1.471  10.155  17.724  0.00  0.00    +0.000 C 
ATOM     13  C   UNL     1      -0.671  10.889  18.784  0.00  0.00    +0.000 C 
ENDBRANCH  11  13
ENDBRANCH   5  11
ENDBRANCH   1   8
BRANCH   2  14
ATOM     14  C   UNL     1       3.030   3.398  20.787  0.00  0.00    +0.000 C 
BRANCH  14  15
ATOM     15  C   UNL     1       3.331   2.536  19.562  0.00  0.00    +0.000 C 
BRANCH  15  16
ATOM     16  N   UNL     1       4.385   3.074  18.731  0.00  0.00    +0.000 N 
ATOM     17  C   UNL     1       4.133   3.758  17.563  0.00  0.00    +0.000 C 
ATOM     18  O   UNL     1       2.995   4.054  17.209  0.00  0.00    +0.000 OA
ATOM     19  H   UNL     1       5.345   2.786  18.897  0.00  0.00    +0.000 HD
BRANCH  17  20
ATOM     20  C   UNL     1       5.319   4.101  16.810  0.00  0.00    +0.000 A 
ATOM     21  C   UNL     1       6.543   4.582  17.229  0.00  0.00    +0.000 A 
ATOM     22  C   UNL     1       7.335   4.745  16.071  0.00  0.00    +0.000 A 
ATOM     23  C   UNL     1       6.550   4.350  15.011  0.00  0.00    +0.000 A 
ATOM     24  O   UNL     1       5.327   3.953  15.446  0.00  0.00    +0.000 OA
ENDBRANCH  17  20
ENDBRANCH  15  16
ENDBRANCH  14  15
ENDBRANCH   2  14
TORSDOF 7
ENDMDL
MODEL 8
REMARK VINA RESULT:      -6.8      1.185      1.362
REMARK  Name = 
REMARK  8 active torsions:
REMARK  status: ('A' for Active; 'I' for Inactive)
REMARK    1  A    between atoms: C_1  and  C_2
REMARK    2  A    between atoms: C_2  and  O_3
REMARK    3  A    between atoms: O_3  and  C_4
REMARK    4  A    between atoms: C_7  and  N_8
REMARK    5  A    between atoms: C_9  and  C_11
REMARK    6  A    between atoms: C_11  and  C_12
REMARK    7  A    between atoms: C_12  and  N_13
REMARK    8  A    between atoms: C_14  and  C_16
REMARK                            x       y       z     vdW  Elec       q    Type
REMARK                         _______ _______ _______ _____ _____    ______ ____
ROOT
ATOM      1  N   UNL     1       7.292   4.981  16.253  0.00  0.00    +0.000 N 
ATOM      2  C   UNL     1       6.920   6.121  16.947  0.00  0.00    +0.000 C 
ATOM      3  O   UNL     1       6.087   6.947  16.582  0.00  0.00    +0.000 OA
ATOM      4  H   UNL     1       7.881   4.312  16.734  0.00  0.00    +0.000 HD
ENDROOT
BRANCH   1   8
ATOM      5  C   UNL     1       5.801   3.748  12.495  0.00  0.00    +0.000 A 
ATOM      6  C   UNL     1       5.038   3.552  13.640  0.00  0.00    +0.000 A 
ATOM      7  C   UNL     1       5.506   3.971  14.884  0.00  0.00    +0.000 A 
ATOM      8  C   UNL     1       6.758   4.576  15.010  0.00  0.00    +0.000 A 
ATOM      9  C   UNL     1       7.523   4.780  13.855  0.00  0.00    +0.000 A 
ATOM     10  C   UNL     1       7.055   4.350  12.604  0.00  0.00    +0.000 A 
BRANCH   5  11
ATOM     11  O   UNL     1       5.223   3.297  11.344  0.00  0.00    +0.000 OA
BRANCH  11  13
ATOM     12  C   UNL     1       3.120   2.910  10.312  0.00  0.00    +0.000 C 
ATOM     13  C   UNL     1       4.026   3.955  10.936  0.00  0.00    +0.000 C 
ENDBRANCH  11  13
ENDBRANCH   5  11
ENDBRANCH   1   8
BRANCH   2  14
ATOM     14  C   UNL     1       7.653   6.309  18.254  0.00  0.00    +0.000 C 
BRANCH  14  15
ATOM     15  C   UNL     1       6.895   5.571  19.356  0.00  0.00    +0.000 C 
BRANCH  15  16
ATOM     16  N   UNL     1       5.489   5.402  19.064  0.00  0.00    +0.000 N 
ATOM     17  C   UNL     1       4.842   4.194  19.205  0.00  0.00    +0.000 C 
ATOM     18  O   UNL     1       5.391   3.210  19.696  0.00  0.00    +0.000 OA
ATOM     19  H   UNL     1       4.993   6.132  18.562  0.00  0.00    +0.000 HD
BRANCH  17  20
ATOM     20  C   UNL     1       3.473   4.198  18.742  0.00  0.00    +0.000 A 
ATOM     21  C   UNL     1       2.900   4.780  17.630  0.00  0.00    +0.000 A 
ATOM     22  C   UNL     1       1.523   4.469  17.669  0.00  0.00    +0.000 A 
ATOM     23  C   UNL     1       1.334   3.711  18.803  0.00  0.00    +0.000 A 
ATOM     24  O   UNL     1       2.508   3.536  19.460  0.00  0.00    +0.000 OA
ENDBRANCH  17  20
ENDBRANCH  15  16
ENDBRANCH  14  15
ENDBRANCH   2  14
TORSDOF 7
ENDMDL
MODEL 9
REMARK VINA RESULT:      -6.8      4.298      5.850
REMARK  Name = 
REMARK  8 active torsions:
REMARK  status: ('A' for Active; 'I' for Inactive)
REMARK    1  A    between atoms: C_1  and  C_2
REMARK    2  A    between atoms: C_2  and  O_3
REMARK    3  A    between atoms: O_3  and  C_4
REMARK    4  A    between atoms: C_7  and  N_8
REMARK    5  A    between atoms: C_9  and  C_11
REMARK    6  A    between atoms: C_11  and  C_12
REMARK    7  A    between atoms: C_12  and  N_13
REMARK    8  A    between atoms: C_14  and  C_16
REMARK                            x       y       z     vdW  Elec       q    Type
REMARK                         _______ _______ _______ _____ _____    ______ ____
ROOT
ATOM      1  N   UNL     1       3.199   4.854  18.532  0.00  0.00    +0.000 N 
ATOM      2  C   UNL     1       1.941   4.274  18.519  0.00  0.00    +0.000 C 
ATOM      3  O   UNL     1       1.399   3.749  17.550  0.00  0.00    +0.000 OA
ATOM      4  H   UNL     1       3.583   5.119  19.431  0.00  0.00    +0.000 HD
ENDROOT
BRANCH   1   8
ATOM      5  C   UNL     1       5.853   5.159  15.257  0.00  0.00    +0.000 A 
ATOM      6  C   UNL     1       5.529   3.909  15.769  0.00  0.00    +0.000 A 
ATOM      7  C   UNL     1       4.639   3.789  16.836  0.00  0.00    +0.000 A 
ATOM      8  C   UNL     1       4.074   4.922  17.425  0.00  0.00    +0.000 A 
ATOM      9  C   UNL     1       4.395   6.181  16.904  0.00  0.00    +0.000 A 
ATOM     10  C   UNL     1       5.298   6.301  15.836  0.00  0.00    +0.000 A 
BRANCH   5  11
ATOM     11  O   UNL     1       6.729   5.134  14.211  0.00  0.00    +0.000 OA
BRANCH  11  13
ATOM     12  C   UNL     1       7.245   4.479  11.988  0.00  0.00    +0.000 C 
ATOM     13  C   UNL     1       6.581   4.060  13.286  0.00  0.00    +0.000 C 
ENDBRANCH  11  13
ENDBRANCH   5  11
ENDBRANCH   1   8
BRANCH   2  14
ATOM     14  C   UNL     1       1.222   4.341  19.846  0.00  0.00    +0.000 C 
BRANCH  14  15
ATOM     15  C   UNL     1       2.023   5.230  20.796  0.00  0.00    +0.000 C 
BRANCH  15  16
ATOM     16  N   UNL     1       1.343   6.461  21.134  0.00  0.00    +0.000 N 
ATOM     17  C   UNL     1       1.572   7.643  20.466  0.00  0.00    +0.000 C 
ATOM     18  O   UNL     1       2.284   7.703  19.466  0.00  0.00    +0.000 OA
ATOM     19  H   UNL     1       0.823   6.519  22.005  0.00  0.00    +0.000 HD
BRANCH  17  20
ATOM     20  C   UNL     1       0.895   8.786  21.035  0.00  0.00    +0.000 A 
ATOM     21  C   UNL     1      -0.056   8.865  22.033  0.00  0.00    +0.000 A 
ATOM     22  C   UNL     1      -0.373  10.232  22.188  0.00  0.00    +0.000 A 
ATOM     23  C   UNL     1       0.405  10.911  21.278  0.00  0.00    +0.000 A 
ATOM     24  O   UNL     1       1.182  10.046  20.576  0.00  0.00    +0.000 OA
ENDBRANCH  17  20
ENDBRANCH  15  16
ENDBRANCH  14  15
ENDBRANCH   2  14
TORSDOF 7
ENDMDL
