MODEL 1
REMARK VINA RESULT:      -8.5      0.000      0.000
REMARK  Name = 
REMARK  7 active torsions:
REMARK  status: ('A' for Active; 'I' for Inactive)
REMARK    1  A    between atoms: C_1  and  N_2
REMARK    2  A    between atoms: N_2  and  C_3
REMARK    3  A    between atoms: N_2  and  C_13
REMARK    4  A    between atoms: C_3  and  C_4
REMARK    5  A    between atoms: C_4  and  C_5
REMARK    6  A    between atoms: C_13  and  C_14
REMARK    7  A    between atoms: C_14  and  N_15
REMARK                            x       y       z     vdW  Elec       q    Type
REMARK                         _______ _______ _______ _____ _____    ______ ____
ROOT
ATOM      1  N   UNL     1       5.428   4.027  18.363  0.00  0.00    +0.000 NA
ATOM      2  C   UNL     1       5.987   5.456  18.545  0.00  0.00    +0.000 C 
ATOM      3  C   UNL     1       4.607   6.141  18.158  0.00  0.00    +0.000 C 
ATOM      4  C   UNL     1       3.995   5.294  17.034  0.00  0.00    +0.000 C 
ATOM      5  C   UNL     1       4.858   4.027  16.996  0.00  0.00    +0.000 C 
ATOM      6  C   UNL     1       6.015   4.205  16.023  0.00  0.00    +0.000 A 
ATOM      7  C   UNL     1       7.190   4.821  16.408  0.00  0.00    +0.000 A 
ATOM      8  N   UNL     1       7.882   5.188  15.292  0.00  0.00    +0.000 N 
ATOM      9  C   UNL     1       7.213   4.714  14.173  0.00  0.00    +0.000 A 
ATOM     10  C   UNL     1       7.484   4.905  12.808  0.00  0.00    +0.000 A 
ATOM     11  C   UNL     1       6.652   4.259  11.886  0.00  0.00    +0.000 A 
ATOM     12  C   UNL     1       5.598   3.453  12.310  0.00  0.00    +0.000 A 
ATOM     13  C   UNL     1       5.302   3.329  13.672  0.00  0.00    +0.000 A 
ATOM     14  C   UNL     1       6.104   3.993  14.620  0.00  0.00    +0.000 A 
ATOM     15  C   UNL     1       7.439   5.201  17.840  0.00  0.00    +0.000 C 
ATOM     16  H   UNL     1       8.707   5.773  15.264  0.00  0.00    +0.000 HD
ENDROOT
BRANCH   1  17
ATOM     17  C   UNL     1       4.469   3.634  19.455  0.00  0.00    +0.000 C 
BRANCH  17  18
ATOM     18  C   UNL     1       3.035   3.033  19.179  0.00  0.00    +0.000 C 
BRANCH  18  20
ATOM     19  C   UNL     1       2.288   2.972  21.512  0.00  0.00    +0.000 C 
ATOM     20  N   UNL     1       1.896   3.198  20.113  0.00  0.00    +0.000 NA
BRANCH  20  21
ATOM     21  C   UNL     1       1.325   4.581  20.030  0.00  0.00    +0.000 C 
BRANCH  21  22
ATOM     22  C   UNL     1       2.184   5.692  20.668  0.00  0.00    +0.000 C 
BRANCH  22  23
ATOM     23  C   UNL     1       1.614   7.084  20.488  0.00  0.00    +0.000 A 
ATOM     24  C   UNL     1       1.910   7.830  19.342  0.00  0.00    +0.000 A 
ATOM     25  C   UNL     1       1.437   9.135  19.211  0.00  0.00    +0.000 A 
ATOM     26  C   UNL     1       0.666   9.717  20.210  0.00  0.00    +0.000 A 
ATOM     27 CL   UNL     1       0.130  11.352  19.989  0.00  0.00    +0.000 Cl
ATOM     28  C   UNL     1       0.345   8.982  21.359  0.00  0.00    +0.000 A 
ATOM     29 CL   UNL     1      -0.597   9.631  22.654  0.00  0.00    +0.000 Cl
ATOM     30  C   UNL     1       0.815   7.667  21.488  0.00  0.00    +0.000 A 
ENDBRANCH  22  23
ENDBRANCH  21  22
ENDBRANCH  20  21
ENDBRANCH  18  20
ENDBRANCH  17  18
ENDBRANCH   1  17
TORSDOF 6
ENDMDL
MODEL 2
REMARK VINA RESULT:      -8.2      0.906      1.499
REMARK  Name = 
REMARK  7 active torsions:
REMARK  status: ('A' for Active; 'I' for Inactive)
REMARK    1  A    between atoms: C_1  and  N_2
REMARK    2  A    between atoms: N_2  and  C_3
REMARK    3  A    between atoms: N_2  and  C_13
REMARK    4  A    between atoms: C_3  and  C_4
REMARK    5  A    between atoms: C_4  and  C_5
REMARK    6  A    between atoms: C_13  and  C_14
REMARK    7  A    between atoms: C_14  and  N_15
REMARK                            x       y       z     vdW  Elec       q    Type
REMARK                         _______ _______ _______ _____ _____    ______ ____
ROOT
ATOM      1  N   UNL     1       5.136   3.699  18.231  0.00  0.00    +0.000 NA
ATOM      2  C   UNL     1       5.251   5.215  18.510  0.00  0.00    +0.000 C 
ATOM      3  C   UNL     1       3.807   5.523  17.922  0.00  0.00    +0.000 C 
ATOM      4  C   UNL     1       3.620   4.602  16.709  0.00  0.00    +0.000 C 
ATOM      5  C   UNL     1       4.792   3.617  16.791  0.00  0.00    +0.000 C 
ATOM      6  C   UNL     1       5.985   4.149  16.010  0.00  0.00    +0.000 A 
ATOM      7  C   UNL     1       6.879   5.037  16.577  0.00  0.00    +0.000 A 
ATOM      8  N   UNL     1       7.599   5.632  15.585  0.00  0.00    +0.000 N 
ATOM      9  C   UNL     1       7.254   5.055  14.372  0.00  0.00    +0.000 A 
ATOM     10  C   UNL     1       7.659   5.381  13.067  0.00  0.00    +0.000 A 
ATOM     11  C   UNL     1       7.177   4.584  12.021  0.00  0.00    +0.000 A 
ATOM     12  C   UNL     1       6.333   3.504  12.270  0.00  0.00    +0.000 A 
ATOM     13  C   UNL     1       5.888   3.236  13.569  0.00  0.00    +0.000 A 
ATOM     14  C   UNL     1       6.332   4.040  14.636  0.00  0.00    +0.000 A 
ATOM     15  C   UNL     1       6.803   5.395  18.035  0.00  0.00    +0.000 C 
ATOM     16  H   UNL     1       8.228   6.418  15.690  0.00  0.00    +0.000 HD
ENDROOT
BRANCH   1  17
ATOM     17  C   UNL     1       4.172   3.008  19.157  0.00  0.00    +0.000 C 
BRANCH  17  18
ATOM     18  C   UNL     1       3.248   3.776  20.184  0.00  0.00    +0.000 C 
BRANCH  18  20
ATOM     19  C   UNL     1       1.373   2.752  21.383  0.00  0.00    +0.000 C 
ATOM     20  N   UNL     1       1.779   3.589  20.245  0.00  0.00    +0.000 NA
BRANCH  20  21
ATOM     21  C   UNL     1       1.072   4.902  20.385  0.00  0.00    +0.000 C 
BRANCH  21  22
ATOM     22  C   UNL     1       1.892   6.030  21.046  0.00  0.00    +0.000 C 
BRANCH  22  23
ATOM     23  C   UNL     1       1.409   7.422  20.697  0.00  0.00    +0.000 A 
ATOM     24  C   UNL     1       0.456   8.064  21.496  0.00  0.00    +0.000 A 
ATOM     25  C   UNL     1      -0.033   9.319  21.135  0.00  0.00    +0.000 A 
ATOM     26  C   UNL     1       0.414   9.953  19.981  0.00  0.00    +0.000 A 
ATOM     27 CL   UNL     1      -0.255  11.503  19.582  0.00  0.00    +0.000 Cl
ATOM     28  C   UNL     1       1.379   9.334  19.176  0.00  0.00    +0.000 A 
ATOM     29 CL   UNL     1       1.980  10.045  17.720  0.00  0.00    +0.000 Cl
ATOM     30  C   UNL     1       1.876   8.075  19.543  0.00  0.00    +0.000 A 
ENDBRANCH  22  23
ENDBRANCH  21  22
ENDBRANCH  20  21
ENDBRANCH  18  20
ENDBRANCH  17  18
ENDBRANCH   1  17
TORSDOF 6
ENDMDL
MODEL 3
REMARK VINA RESULT:      -8.0      2.878      4.983
REMARK  Name = 
REMARK  7 active torsions:
REMARK  status: ('A' for Active; 'I' for Inactive)
REMARK    1  A    between atoms: C_1  and  N_2
REMARK    2  A    between atoms: N_2  and  C_3
REMARK    3  A    between atoms: N_2  and  C_13
REMARK    4  A    between atoms: C_3  and  C_4
REMARK    5  A    between atoms: C_4  and  C_5
REMARK    6  A    between atoms: C_13  and  C_14
REMARK    7  A    between atoms: C_14  and  N_15
REMARK                            x       y       z     vdW  Elec       q    Type
REMARK                         _______ _______ _______ _____ _____    ______ ____
ROOT
ATOM      1  N   UNL     1       1.776   5.622  19.637  0.00  0.00    +0.000 NA
ATOM      2  C   UNL     1       1.409   4.121  19.596  0.00  0.00    +0.000 C 
ATOM      3  C   UNL     1       2.387   3.758  20.795  0.00  0.00    +0.000 C 
ATOM      4  C   UNL     1       3.640   4.627  20.619  0.00  0.00    +0.000 C 
ATOM      5  C   UNL     1       3.254   5.641  19.536  0.00  0.00    +0.000 C 
ATOM      6  C   UNL     1       3.619   5.106  18.158  0.00  0.00    +0.000 A 
ATOM      7  C   UNL     1       2.773   4.260  17.467  0.00  0.00    +0.000 A 
ATOM      8  N   UNL     1       3.479   3.643  16.477  0.00  0.00    +0.000 N 
ATOM      9  C   UNL     1       4.763   4.165  16.448  0.00  0.00    +0.000 A 
ATOM     10  C   UNL     1       5.872   3.798  15.669  0.00  0.00    +0.000 A 
ATOM     11  C   UNL     1       7.048   4.543  15.823  0.00  0.00    +0.000 A 
ATOM     12  C   UNL     1       7.110   5.612  16.713  0.00  0.00    +0.000 A 
ATOM     13  C   UNL     1       6.016   5.921  17.529  0.00  0.00    +0.000 A 
ATOM     14  C   UNL     1       4.831   5.168  17.417  0.00  0.00    +0.000 A 
ATOM     15  C   UNL     1       1.391   3.957  17.971  0.00  0.00    +0.000 C 
ATOM     16  H   UNL     1       3.157   2.876  15.900  0.00  0.00    +0.000 HD
ENDROOT
BRANCH   1  17
ATOM     17  C   UNL     1       1.210   6.327  20.841  0.00  0.00    +0.000 C 
BRANCH  17  18
ATOM     18  C   UNL     1       1.364   7.879  21.093  0.00  0.00    +0.000 C 
BRANCH  18  20
ATOM     19  C   UNL     1      -0.341   9.039  22.416  0.00  0.00    +0.000 C 
ATOM     20  N   UNL     1       0.217   8.817  21.075  0.00  0.00    +0.000 NA
BRANCH  20  21
ATOM     21  C   UNL     1       0.623  10.156  20.536  0.00  0.00    +0.000 C 
BRANCH  21  22
ATOM     22  C   UNL     1       0.520  10.314  19.005  0.00  0.00    +0.000 C 
BRANCH  22  23
ATOM     23  C   UNL     1      -0.868  10.677  18.520  0.00  0.00    +0.000 A 
ATOM     24  C   UNL     1      -1.689  11.517  19.282  0.00  0.00    +0.000 A 
ATOM     25  C   UNL     1      -2.990  11.796  18.863  0.00  0.00    +0.000 A 
ATOM     26  C   UNL     1      -3.494  11.249  17.688  0.00  0.00    +0.000 A 
ATOM     27 CL   UNL     1      -5.127  11.622  17.241  0.00  0.00    +0.000 Cl
ATOM     28  C   UNL     1      -2.682  10.418  16.904  0.00  0.00    +0.000 A 
ATOM     29 CL   UNL     1      -3.231   9.687  15.437  0.00  0.00    +0.000 Cl
ATOM     30  C   UNL     1      -1.372  10.143  17.321  0.00  0.00    +0.000 A 
ENDBRANCH  22  23
ENDBRANCH  21  22
ENDBRANCH  20  21
ENDBRANCH  18  20
ENDBRANCH  17  18
ENDBRANCH   1  17
TORSDOF 6
ENDMDL
MODEL 4
REMARK VINA RESULT:      -7.9      6.165      8.435
REMARK  Name = 
REMARK  7 active torsions:
REMARK  status: ('A' for Active; 'I' for Inactive)
REMARK    1  A    between atoms: C_1  and  N_2
REMARK    2  A    between atoms: N_2  and  C_3
REMARK    3  A    between atoms: N_2  and  C_13
REMARK    4  A    between atoms: C_3  and  C_4
REMARK    5  A    between atoms: C_4  and  C_5
REMARK    6  A    between atoms: C_13  and  C_14
REMARK    7  A    between atoms: C_14  and  N_15
REMARK                            x       y       z     vdW  Elec       q    Type
REMARK                         _______ _______ _______ _____ _____    ______ ____
ROOT
ATOM      1  N   UNL     1       6.453   6.822  17.809  0.00  0.00    +0.000 NA
ATOM      2  C   UNL     1       7.439   5.665  17.530  0.00  0.00    +0.000 C 
ATOM      3  C   UNL     1       7.072   5.606  15.985  0.00  0.00    +0.000 C 
ATOM      4  C   UNL     1       5.563   5.862  15.882  0.00  0.00    +0.000 C 
ATOM      5  C   UNL     1       5.156   6.333  17.283  0.00  0.00    +0.000 C 
ATOM      6  C   UNL     1       4.741   5.145  18.139  0.00  0.00    +0.000 A 
ATOM      7  C   UNL     1       5.673   4.387  18.820  0.00  0.00    +0.000 A 
ATOM      8  N   UNL     1       5.102   3.201  19.178  0.00  0.00    +0.000 N 
ATOM      9  C   UNL     1       3.761   3.226  18.827  0.00  0.00    +0.000 A 
ATOM     10  C   UNL     1       2.785   2.219  18.914  0.00  0.00    +0.000 A 
ATOM     11  C   UNL     1       1.480   2.546  18.523  0.00  0.00    +0.000 A 
ATOM     12  C   UNL     1       1.165   3.825  18.070  0.00  0.00    +0.000 A 
ATOM     13  C   UNL     1       2.165   4.794  17.927  0.00  0.00    +0.000 A 
ATOM     14  C   UNL     1       3.490   4.483  18.284  0.00  0.00    +0.000 A 
ATOM     15  C   UNL     1       7.119   4.793  18.874  0.00  0.00    +0.000 C 
ATOM     16  H   UNL     1       5.582   2.399  19.566  0.00  0.00    +0.000 HD
ENDROOT
BRANCH   1  17
ATOM     17  C   UNL     1       6.918   8.134  17.238  0.00  0.00    +0.000 C 
BRANCH  17  18
ATOM     18  C   UNL     1       8.268   8.838  17.660  0.00  0.00    +0.000 C 
BRANCH  18  20
ATOM     19  C   UNL     1       9.231   9.851  19.672  0.00  0.00    +0.000 C 
ATOM     20  N   UNL     1       8.317  10.032  18.535  0.00  0.00    +0.000 NA
BRANCH  20  21
ATOM     21  C   UNL     1       8.784  11.238  17.779  0.00  0.00    +0.000 C 
BRANCH  21  22
ATOM     22  C   UNL     1      10.309  11.470  17.775  0.00  0.00    +0.000 C 
BRANCH  22  23
ATOM     23  C   UNL     1      10.719  12.851  18.240  0.00  0.00    +0.000 A 
ATOM     24  C   UNL     1      11.091  13.071  19.572  0.00  0.00    +0.000 A 
ATOM     25  C   UNL     1      11.405  14.356  20.011  0.00  0.00    +0.000 A 
ATOM     26  C   UNL     1      11.356  15.439  19.139  0.00  0.00    +0.000 A 
ATOM     27 CL   UNL     1      11.738  17.013  19.760  0.00  0.00    +0.000 Cl
ATOM     28  C   UNL     1      11.002  15.238  17.799  0.00  0.00    +0.000 A 
ATOM     29 CL   UNL     1      10.905  16.527  16.651  0.00  0.00    +0.000 Cl
ATOM     30  C   UNL     1      10.693  13.944  17.355  0.00  0.00    +0.000 A 
ENDBRANCH  22  23
ENDBRANCH  21  22
ENDBRANCH  20  21
ENDBRANCH  18  20
ENDBRANCH  17  18
ENDBRANCH   1  17
TORSDOF 6
ENDMDL
MODEL 5
REMARK VINA RESULT:      -7.9      3.901      8.244
REMARK  Name = 
REMARK  7 active torsions:
REMARK  status: ('A' for Active; 'I' for Inactive)
REMARK    1  A    between atoms: C_1  and  N_2
REMARK    2  A    between atoms: N_2  and  C_3
REMARK    3  A    between atoms: N_2  and  C_13
REMARK    4  A    between atoms: C_3  and  C_4
REMARK    5  A    between atoms: C_4  and  C_5
REMARK    6  A    between atoms: C_13  and  C_14
REMARK    7  A    between atoms: C_14  and  N_15
REMARK                            x       y       z     vdW  Elec       q    Type
REMARK                         _______ _______ _______ _____ _____    ______ ____
ROOT
ATOM      1  N   UNL     1       3.511   4.564  19.233  0.00  0.00    +0.000 NA
ATOM      2  C   UNL     1       2.276   3.982  19.958  0.00  0.00    +0.000 C 
ATOM      3  C   UNL     1       1.485   3.739  18.601  0.00  0.00    +0.000 C 
ATOM      4  C   UNL     1       1.809   4.926  17.684  0.00  0.00    +0.000 C 
ATOM      5  C   UNL     1       2.961   5.651  18.388  0.00  0.00    +0.000 C 
ATOM      6  C   UNL     1       2.418   6.721  19.325  0.00  0.00    +0.000 A 
ATOM      7  C   UNL     1       2.014   6.415  20.610  0.00  0.00    +0.000 A 
ATOM      8  N   UNL     1       1.238   7.431  21.083  0.00  0.00    +0.000 N 
ATOM      9  C   UNL     1       1.222   8.455  20.147  0.00  0.00    +0.000 A 
ATOM     10  C   UNL     1       0.504   9.663  20.141  0.00  0.00    +0.000 A 
ATOM     11  C   UNL     1       0.723  10.540  19.071  0.00  0.00    +0.000 A 
ATOM     12  C   UNL     1       1.624  10.227  18.056  0.00  0.00    +0.000 A 
ATOM     13  C   UNL     1       2.279   8.990  18.046  0.00  0.00    +0.000 A 
ATOM     14  C   UNL     1       2.054   8.076  19.093  0.00  0.00    +0.000 A 
ATOM     15  C   UNL     1       2.239   5.049  21.194  0.00  0.00    +0.000 C 
ATOM     16  H   UNL     1       0.696   7.423  21.937  0.00  0.00    +0.000 HD
ENDROOT
BRANCH   1  17
ATOM     17  C   UNL     1       4.300   3.518  18.493  0.00  0.00    +0.000 C 
BRANCH  17  18
ATOM     18  C   UNL     1       5.526   3.853  17.555  0.00  0.00    +0.000 C 
BRANCH  18  20
ATOM     19  C   UNL     1       7.802   4.651  17.985  0.00  0.00    +0.000 C 
ATOM     20  N   UNL     1       6.400   5.032  17.759  0.00  0.00    +0.000 NA
BRANCH  20  21
ATOM     21  C   UNL     1       6.373   5.938  16.565  0.00  0.00    +0.000 C 
BRANCH  21  22
ATOM     22  C   UNL     1       5.288   5.621  15.517  0.00  0.00    +0.000 C 
BRANCH  22  23
ATOM     23  C   UNL     1       5.785   4.787  14.354  0.00  0.00    +0.000 A 
ATOM     24  C   UNL     1       7.157   4.652  14.114  0.00  0.00    +0.000 A 
ATOM     25  C   UNL     1       7.609   3.937  13.005  0.00  0.00    +0.000 A 
ATOM     26  C   UNL     1       6.711   3.349  12.122  0.00  0.00    +0.000 A 
ATOM     27 CL   UNL     1       7.344   2.495  10.751  0.00  0.00    +0.000 Cl
ATOM     28  C   UNL     1       5.334   3.460  12.353  0.00  0.00    +0.000 A 
ATOM     29 CL   UNL     1       4.148   2.771  11.301  0.00  0.00    +0.000 Cl
ATOM     30  C   UNL     1       4.879   4.172  13.472  0.00  0.00    +0.000 A 
ENDBRANCH  22  23
ENDBRANCH  21  22
ENDBRANCH  20  21
ENDBRANCH  18  20
ENDBRANCH  17  18
ENDBRANCH   1  17
TORSDOF 6
ENDMDL
MODEL 6
REMARK VINA RESULT:      -7.8      6.193      8.660
REMARK  Name = 
REMARK  7 active torsions:
REMARK  status: ('A' for Active; 'I' for Inactive)
REMARK    1  A    between atoms: C_1  and  N_2
REMARK    2  A    between atoms: N_2  and  C_3
REMARK    3  A    between atoms: N_2  and  C_13
REMARK    4  A    between atoms: C_3  and  C_4
REMARK    5  A    between atoms: C_4  and  C_5
REMARK    6  A    between atoms: C_13  and  C_14
REMARK    7  A    between atoms: C_14  and  N_15
REMARK                            x       y       z     vdW  Elec       q    Type
REMARK                         _______ _______ _______ _____ _____    ______ ____
ROOT
ATOM      1  N   UNL     1       6.688   6.828  17.901  0.00  0.00    +0.000 NA
ATOM      2  C   UNL     1       6.996   5.703  16.888  0.00  0.00    +0.000 C 
ATOM      3  C   UNL     1       5.913   6.222  15.847  0.00  0.00    +0.000 C 
ATOM      4  C   UNL     1       4.714   6.715  16.670  0.00  0.00    +0.000 C 
ATOM      5  C   UNL     1       5.224   6.740  18.115  0.00  0.00    +0.000 C 
ATOM      6  C   UNL     1       4.947   5.406  18.795  0.00  0.00    +0.000 A 
ATOM      7  C   UNL     1       5.810   4.336  18.660  0.00  0.00    +0.000 A 
ATOM      8  N   UNL     1       5.160   3.196  19.030  0.00  0.00    +0.000 N 
ATOM      9  C   UNL     1       3.904   3.532  19.513  0.00  0.00    +0.000 A 
ATOM     10  C   UNL     1       2.846   2.709  19.931  0.00  0.00    +0.000 A 
ATOM     11  C   UNL     1       1.693   3.335  20.421  0.00  0.00    +0.000 A 
ATOM     12  C   UNL     1       1.604   4.723  20.495  0.00  0.00    +0.000 A 
ATOM     13  C   UNL     1       2.643   5.527  20.011  0.00  0.00    +0.000 A 
ATOM     14  C   UNL     1       3.801   4.924  19.484  0.00  0.00    +0.000 A 
ATOM     15  C   UNL     1       7.135   4.485  17.968  0.00  0.00    +0.000 C 
ATOM     16  H   UNL     1       5.495   2.249  18.908  0.00  0.00    +0.000 HD
ENDROOT
BRANCH   1  17
ATOM     17  C   UNL     1       7.186   8.174  17.446  0.00  0.00    +0.000 C 
BRANCH  17  18
ATOM     18  C   UNL     1       8.538   8.819  17.948  0.00  0.00    +0.000 C 
BRANCH  18  20
ATOM     19  C   UNL     1       9.099  10.142  19.933  0.00  0.00    +0.000 C 
ATOM     20  N   UNL     1       8.613  10.173  18.546  0.00  0.00    +0.000 NA
BRANCH  20  21
ATOM     21  C   UNL     1       9.544  11.055  17.769  0.00  0.00    +0.000 C 
BRANCH  21  22
ATOM     22  C   UNL     1      10.837  11.464  18.503  0.00  0.00    +0.000 C 
BRANCH  22  23
ATOM     23  C   UNL     1      10.941  12.950  18.776  0.00  0.00    +0.000 A 
ATOM     24  C   UNL     1      11.008  13.427  20.090  0.00  0.00    +0.000 A 
ATOM     25  C   UNL     1      11.038  14.799  20.339  0.00  0.00    +0.000 A 
ATOM     26  C   UNL     1      11.004  15.714  19.293  0.00  0.00    +0.000 A 
ATOM     27 CL   UNL     1      11.022  17.405  19.677  0.00  0.00    +0.000 Cl
ATOM     28  C   UNL     1      10.953  15.256  17.969  0.00  0.00    +0.000 A 
ATOM     29 CL   UNL     1      10.896  16.322  16.610  0.00  0.00    +0.000 Cl
ATOM     30  C   UNL     1      10.930  13.876  17.719  0.00  0.00    +0.000 A 
ENDBRANCH  22  23
ENDBRANCH  21  22
ENDBRANCH  20  21
ENDBRANCH  18  20
ENDBRANCH  17  18
ENDBRANCH   1  17
TORSDOF 6
ENDMDL
MODEL 7
REMARK VINA RESULT:      -7.8      6.932      9.082
REMARK  Name = 
REMARK  7 active torsions:
REMARK  status: ('A' for Active; 'I' for Inactive)
REMARK    1  A    between atoms: C_1  and  N_2
REMARK    2  A    between atoms: N_2  and  C_3
REMARK    3  A    between atoms: N_2  and  C_13
REMARK    4  A    between atoms: C_3  and  C_4
REMARK    5  A    between atoms: C_4  and  C_5
REMARK    6  A    between atoms: C_13  and  C_14
REMARK    7  A    between atoms: C_14  and  N_15
REMARK                            x       y       z     vdW  Elec       q    Type
REMARK                         _______ _______ _______ _____ _____    ______ ____
ROOT
ATOM      1  N   UNL     1       9.425  11.236  18.144  0.00  0.00    +0.000 NA
ATOM      2  C   UNL     1      10.918  11.344  18.528  0.00  0.00    +0.000 C 
ATOM      3  C   UNL     1      10.603  11.430  20.083  0.00  0.00    +0.000 C 
ATOM      4  C   UNL     1       9.328  12.272  20.228  0.00  0.00    +0.000 C 
ATOM      5  C   UNL     1       8.792  12.405  18.798  0.00  0.00    +0.000 C 
ATOM      6  C   UNL     1       9.358  13.654  18.137  0.00  0.00    +0.000 A 
ATOM      7  C   UNL     1      10.594  13.645  17.519  0.00  0.00    +0.000 A 
ATOM      8  N   UNL     1      11.016  14.932  17.359  0.00  0.00    +0.000 N 
ATOM      9  C   UNL     1      10.008  15.790  17.772  0.00  0.00    +0.000 A 
ATOM     10  C   UNL     1       9.998  17.191  17.875  0.00  0.00    +0.000 A 
ATOM     11  C   UNL     1       8.806  17.802  18.285  0.00  0.00    +0.000 A 
ATOM     12  C   UNL     1       7.673  17.046  18.572  0.00  0.00    +0.000 A 
ATOM     13  C   UNL     1       7.721  15.648  18.528  0.00  0.00    +0.000 A 
ATOM     14  C   UNL     1       8.916  15.006  18.149  0.00  0.00    +0.000 A 
ATOM     15  C   UNL     1      11.364  12.368  17.336  0.00  0.00    +0.000 C 
ATOM     16  H   UNL     1      11.937  15.227  17.061  0.00  0.00    +0.000 HD
ENDROOT
BRANCH   1  17
ATOM     17  C   UNL     1       8.826   9.903  18.503  0.00  0.00    +0.000 C 
BRANCH  17  18
ATOM     18  C   UNL     1       7.740   9.170  17.621  0.00  0.00    +0.000 C 
BRANCH  18  20
ATOM     19  C   UNL     1       8.190   6.986  18.638  0.00  0.00    +0.000 C 
ATOM     20  N   UNL     1       7.698   7.698  17.450  0.00  0.00    +0.000 NA
BRANCH  20  21
ATOM     21  C   UNL     1       6.299   7.223  17.195  0.00  0.00    +0.000 C 
BRANCH  21  22
ATOM     22  C   UNL     1       6.096   5.695  17.256  0.00  0.00    +0.000 C 
BRANCH  22  23
ATOM     23  C   UNL     1       4.999   5.262  18.205  0.00  0.00    +0.000 A 
ATOM     24  C   UNL     1       4.837   3.911  18.534  0.00  0.00    +0.000 A 
ATOM     25  C   UNL     1       3.786   3.509  19.357  0.00  0.00    +0.000 A 
ATOM     26  C   UNL     1       2.883   4.437  19.864  0.00  0.00    +0.000 A 
ATOM     27 CL   UNL     1       1.586   3.862  20.862  0.00  0.00    +0.000 Cl
ATOM     28  C   UNL     1       3.036   5.796  19.560  0.00  0.00    +0.000 A 
ATOM     29 CL   UNL     1       1.954   7.014  20.137  0.00  0.00    +0.000 Cl
ATOM     30  C   UNL     1       4.098   6.201  18.738  0.00  0.00    +0.000 A 
ENDBRANCH  22  23
ENDBRANCH  21  22
ENDBRANCH  20  21
ENDBRANCH  18  20
ENDBRANCH  17  18
ENDBRANCH   1  17
TORSDOF 6
ENDMDL
MODEL 8
REMARK VINA RESULT:      -7.8      5.390      7.616
REMARK  Name = 
REMARK  7 active torsions:
REMARK  status: ('A' for Active; 'I' for Inactive)
REMARK    1  A    between atoms: C_1  and  N_2
REMARK    2  A    between atoms: N_2  and  C_3
REMARK    3  A    between atoms: N_2  and  C_13
REMARK    4  A    between atoms: C_3  and  C_4
REMARK    5  A    between atoms: C_4  and  C_5
REMARK    6  A    between atoms: C_13  and  C_14
REMARK    7  A    between atoms: C_14  and  N_15
REMARK                            x       y       z     vdW  Elec       q    Type
REMARK                         _______ _______ _______ _____ _____    ______ ____
ROOT
ATOM      1  N   UNL     1       7.020   6.817  17.738  0.00  0.00    +0.000 NA
ATOM      2  C   UNL     1       7.285   5.581  16.849  0.00  0.00    +0.000 C 
ATOM      3  C   UNL     1       6.251   6.048  15.737  0.00  0.00    +0.000 C 
ATOM      4  C   UNL     1       5.066   6.683  16.477  0.00  0.00    +0.000 C 
ATOM      5  C   UNL     1       5.550   6.826  17.924  0.00  0.00    +0.000 C 
ATOM      6  C   UNL     1       5.189   5.584  18.727  0.00  0.00    +0.000 A 
ATOM      7  C   UNL     1       5.995   4.462  18.720  0.00  0.00    +0.000 A 
ATOM      8  N   UNL     1       5.277   3.400  19.186  0.00  0.00    +0.000 N 
ATOM      9  C   UNL     1       4.033   3.848  19.603  0.00  0.00    +0.000 A 
ATOM     10  C   UNL     1       2.924   3.127  20.076  0.00  0.00    +0.000 A 
ATOM     11  C   UNL     1       1.797   3.858  20.473  0.00  0.00    +0.000 A 
ATOM     12  C   UNL     1       1.783   5.250  20.407  0.00  0.00    +0.000 A 
ATOM     13  C   UNL     1       2.872   5.946  19.870  0.00  0.00    +0.000 A 
ATOM     14  C   UNL     1       4.005   5.234  19.434  0.00  0.00    +0.000 A 
ATOM     15  C   UNL     1       7.339   4.473  18.048  0.00  0.00    +0.000 C 
ATOM     16  H   UNL     1       5.563   2.430  19.166  0.00  0.00    +0.000 HD
ENDROOT
BRANCH   1  17
ATOM     17  C   UNL     1       7.598   8.083  17.163  0.00  0.00    +0.000 C 
BRANCH  17  18
ATOM     18  C   UNL     1       7.713   9.434  17.973  0.00  0.00    +0.000 C 
BRANCH  18  20
ATOM     19  C   UNL     1       8.830  11.598  17.707  0.00  0.00    +0.000 C 
ATOM     20  N   UNL     1       8.980  10.191  18.104  0.00  0.00    +0.000 NA
BRANCH  20  21
ATOM     21  C   UNL     1       9.473  10.180  19.519  0.00  0.00    +0.000 C 
BRANCH  21  22
ATOM     22  C   UNL     1      10.275  11.424  19.953  0.00  0.00    +0.000 C 
BRANCH  22  23
ATOM     23  C   UNL     1       9.638  12.198  21.088  0.00  0.00    +0.000 A 
ATOM     24  C   UNL     1       9.869  13.571  21.228  0.00  0.00    +0.000 A 
ATOM     25  C   UNL     1       9.333  14.266  22.311  0.00  0.00    +0.000 A 
ATOM     26  C   UNL     1       8.562  13.613  23.267  0.00  0.00    +0.000 A 
ATOM     27 CL   UNL     1       7.947  14.537  24.600  0.00  0.00    +0.000 Cl
ATOM     28  C   UNL     1       8.306  12.242  23.136  0.00  0.00    +0.000 A 
ATOM     29 CL   UNL     1       7.369  11.350  24.282  0.00  0.00    +0.000 Cl
ATOM     30  C   UNL     1       8.839  11.544  22.042  0.00  0.00    +0.000 A 
ENDBRANCH  22  23
ENDBRANCH  21  22
ENDBRANCH  20  21
ENDBRANCH  18  20
ENDBRANCH  17  18
ENDBRANCH   1  17
TORSDOF 6
ENDMDL
MODEL 9
REMARK VINA RESULT:      -7.7      2.757      4.763
REMARK  Name = 
REMARK  7 active torsions:
REMARK  status: ('A' for Active; 'I' for Inactive)
REMARK    1  A    between atoms: C_1  and  N_2
REMARK    2  A    between atoms: N_2  and  C_3
REMARK    3  A    between atoms: N_2  and  C_13
REMARK    4  A    between atoms: C_3  and  C_4
REMARK    5  A    between atoms: C_4  and  C_5
REMARK    6  A    between atoms: C_13  and  C_14
REMARK    7  A    between atoms: C_14  and  N_15
REMARK                            x       y       z     vdW  Elec       q    Type
REMARK                         _______ _______ _______ _____ _____    ______ ____
ROOT
ATOM      1  N   UNL     1       1.834   5.682  19.495  0.00  0.00    +0.000 NA
ATOM      2  C   UNL     1       1.499   4.173  19.494  0.00  0.00    +0.000 C 
ATOM      3  C   UNL     1       2.485   3.864  20.701  0.00  0.00    +0.000 C 
ATOM      4  C   UNL     1       3.719   4.754  20.501  0.00  0.00    +0.000 C 
ATOM      5  C   UNL     1       3.311   5.730  19.392  0.00  0.00    +0.000 C 
ATOM      6  C   UNL     1       3.687   5.167  18.029  0.00  0.00    +0.000 A 
ATOM      7  C   UNL     1       2.859   4.286  17.360  0.00  0.00    +0.000 A 
ATOM      8  N   UNL     1       3.578   3.657  16.386  0.00  0.00    +0.000 N 
ATOM      9  C   UNL     1       4.851   4.206  16.343  0.00  0.00    +0.000 A 
ATOM     10  C   UNL     1       5.967   3.842  15.572  0.00  0.00    +0.000 A 
ATOM     11  C   UNL     1       7.127   4.616  15.706  0.00  0.00    +0.000 A 
ATOM     12  C   UNL     1       7.166   5.709  16.567  0.00  0.00    +0.000 A 
ATOM     13  C   UNL     1       6.066   6.016  17.376  0.00  0.00    +0.000 A 
ATOM     14  C   UNL     1       4.897   5.236  17.285  0.00  0.00    +0.000 A 
ATOM     15  C   UNL     1       1.484   3.967  17.874  0.00  0.00    +0.000 C 
ATOM     16  H   UNL     1       3.271   2.869  15.831  0.00  0.00    +0.000 HD
ENDROOT
BRANCH   1  17
ATOM     17  C   UNL     1       1.253   6.407  20.680  0.00  0.00    +0.000 C 
BRANCH  17  18
ATOM     18  C   UNL     1       1.457   7.951  20.942  0.00  0.00    +0.000 C 
BRANCH  18  20
ATOM     19  C   UNL     1      -0.367   8.953  22.234  0.00  0.00    +0.000 C 
ATOM     20  N   UNL     1       0.340   8.924  20.946  0.00  0.00    +0.000 NA
BRANCH  20  21
ATOM     21  C   UNL     1       0.832  10.314  20.678  0.00  0.00    +0.000 C 
BRANCH  21  22
ATOM     22  C   UNL     1       0.651  10.814  19.230  0.00  0.00    +0.000 C 
BRANCH  22  23
ATOM     23  C   UNL     1      -0.793  10.864  18.776  0.00  0.00    +0.000 A 
ATOM     24  C   UNL     1      -1.209  10.142  17.652  0.00  0.00    +0.000 A 
ATOM     25  C   UNL     1      -2.524  10.242  17.200  0.00  0.00    +0.000 A 
ATOM     26  C   UNL     1      -3.443  11.056  17.853  0.00  0.00    +0.000 A 
ATOM     27 CL   UNL     1      -5.056  11.149  17.222  0.00  0.00    +0.000 Cl
ATOM     28  C   UNL     1      -3.051  11.775  18.990  0.00  0.00    +0.000 A 
ATOM     29 CL   UNL     1      -4.123  12.818  19.856  0.00  0.00    +0.000 Cl
ATOM     30  C   UNL     1      -1.730  11.668  19.449  0.00  0.00    +0.000 A 
ENDBRANCH  22  23
ENDBRANCH  21  22
ENDBRANCH  20  21
ENDBRANCH  18  20
ENDBRANCH  17  18
ENDBRANCH   1  17
TORSDOF 6
ENDMDL
