MODEL 1
REMARK VINA RESULT:      -9.0      0.000      0.000
REMARK  Name = 
REMARK  4 active torsions:
REMARK  status: ('A' for Active; 'I' for Inactive)
REMARK    1  A    between atoms: N_8  and  C_9
REMARK    2  A    between atoms: C_9  and  C_10
REMARK    3  A    between atoms: N_18  and  C_19
REMARK    4  A    between atoms: C_19  and  C_20
REMARK                            x       y       z     vdW  Elec       q    Type
REMARK                         _______ _______ _______ _____ _____    ______ ____
ROOT
ATOM      1  O   UNL     1       7.857   5.143  20.581  0.00  0.00    +0.000 OA
ATOM      2  C   UNL     1       7.475   5.627  19.531  0.00  0.00    +0.000 C 
ATOM      3  N   UNL     1       7.971   6.734  18.899  0.00  0.00    +0.000 N 
ATOM      4  C   UNL     1       7.457   6.874  17.640  0.00  0.00    +0.000 C 
ATOM      5  O   UNL     1       7.771   7.678  16.786  0.00  0.00    +0.000 OA
ATOM      6  C   UNL     1       6.466   5.823  17.533  0.00  0.00    +0.000 A 
ATOM      7  C   UNL     1       6.450   5.098  18.642  0.00  0.00    +0.000 A 
ATOM      8  N   UNL     1       5.492   4.138  18.563  0.00  0.00    +0.000 N 
ATOM      9  C   UNL     1       4.872   4.266  17.274  0.00  0.00    +0.000 A 
ATOM     10  O   UNL     1       3.961   3.595  16.820  0.00  0.00    +0.000 OA
ATOM     11  N   UNL     1       5.541   5.363  16.652  0.00  0.00    +0.000 N 
ATOM     12  H   UNL     1       8.733   7.292  19.249  0.00  0.00    +0.000 HD
ENDROOT
BRANCH   8  13
ATOM     13  C   UNL     1       4.948   3.345  19.632  0.00  0.00    +0.000 C 
BRANCH  13  14
ATOM     14  C   UNL     1       3.502   3.617  19.974  0.00  0.00    +0.000 A 
ATOM     15  C   UNL     1       3.071   4.921  20.247  0.00  0.00    +0.000 A 
ATOM     16  C   UNL     1       1.711   5.196  20.437  0.00  0.00    +0.000 A 
ATOM     17  C   UNL     1       0.775   4.169  20.356  0.00  0.00    +0.000 A 
ATOM     18  C   UNL     1       1.194   2.863  20.111  0.00  0.00    +0.000 A 
ATOM     19  C   UNL     1       2.552   2.585  19.930  0.00  0.00    +0.000 A 
ENDBRANCH  13  14
ENDBRANCH   8  13
BRANCH  11  20
ATOM     20  C   UNL     1       5.286   5.868  15.330  0.00  0.00    +0.000 C 
BRANCH  20  21
ATOM     21  C   UNL     1       5.939   5.068  14.229  0.00  0.00    +0.000 A 
ATOM     22  C   UNL     1       5.249   4.029  13.588  0.00  0.00    +0.000 A 
ATOM     23  C   UNL     1       5.830   3.346  12.515  0.00  0.00    +0.000 A 
ATOM     24  C   UNL     1       7.105   3.694  12.074  0.00  0.00    +0.000 A 
ATOM     25  C   UNL     1       7.809   4.709  12.717  0.00  0.00    +0.000 A 
ATOM     26  C   UNL     1       7.235   5.385  13.796  0.00  0.00    +0.000 A 
ENDBRANCH  20  21
ENDBRANCH  11  20
TORSDOF 4
ENDMDL
MODEL 2
REMARK VINA RESULT:      -8.7      0.340      6.355
REMARK  Name = 
REMARK  4 active torsions:
REMARK  status: ('A' for Active; 'I' for Inactive)
REMARK    1  A    between atoms: N_8  and  C_9
REMARK    2  A    between atoms: C_9  and  C_10
REMARK    3  A    between atoms: N_18  and  C_19
REMARK    4  A    between atoms: C_19  and  C_20
REMARK                            x       y       z     vdW  Elec       q    Type
REMARK                         _______ _______ _______ _____ _____    ______ ____
ROOT
ATOM      1  O   UNL     1       7.750   7.979  16.938  0.00  0.00    +0.000 OA
ATOM      2  C   UNL     1       7.495   7.023  17.648  0.00  0.00    +0.000 C 
ATOM      3  N   UNL     1       8.130   6.653  18.801  0.00  0.00    +0.000 N 
ATOM      4  C   UNL     1       7.455   5.662  19.458  0.00  0.00    +0.000 C 
ATOM      5  O   UNL     1       7.690   5.194  20.553  0.00  0.00    +0.000 OA
ATOM      6  C   UNL     1       6.370   5.310  18.567  0.00  0.00    +0.000 A 
ATOM      7  C   UNL     1       6.393   6.084  17.492  0.00  0.00    +0.000 A 
ATOM      8  N   UNL     1       5.402   5.728  16.633  0.00  0.00    +0.000 N 
ATOM      9  C   UNL     1       4.683   4.645  17.244  0.00  0.00    +0.000 A 
ATOM     10  O   UNL     1       3.728   4.040  16.791  0.00  0.00    +0.000 OA
ATOM     11  N   UNL     1       5.346   4.421  18.489  0.00  0.00    +0.000 N 
ATOM     12  H   UNL     1       8.910   7.149  19.202  0.00  0.00    +0.000 HD
ENDROOT
BRANCH   8  13
ATOM     13  C   UNL     1       5.257   6.099  15.252  0.00  0.00    +0.000 C 
BRANCH  13  14
ATOM     14  C   UNL     1       5.934   5.186  14.257  0.00  0.00    +0.000 A 
ATOM     15  C   UNL     1       5.217   4.154  13.638  0.00  0.00    +0.000 A 
ATOM     16  C   UNL     1       5.803   3.390  12.623  0.00  0.00    +0.000 A 
ATOM     17  C   UNL     1       7.111   3.651  12.221  0.00  0.00    +0.000 A 
ATOM     18  C   UNL     1       7.844   4.657  12.848  0.00  0.00    +0.000 A 
ATOM     19  C   UNL     1       7.263   5.415  13.868  0.00  0.00    +0.000 A 
ENDBRANCH  13  14
ENDBRANCH   8  13
BRANCH  11  20
ATOM     20  C   UNL     1       4.978   3.443  19.477  0.00  0.00    +0.000 C 
BRANCH  20  21
ATOM     21  C   UNL     1       3.512   3.451  19.836  0.00  0.00    +0.000 A 
ATOM     22  C   UNL     1       2.920   4.582  20.419  0.00  0.00    +0.000 A 
ATOM     23  C   UNL     1       1.546   4.612  20.674  0.00  0.00    +0.000 A 
ATOM     24  C   UNL     1       0.751   3.515  20.350  0.00  0.00    +0.000 A 
ATOM     25  C   UNL     1       1.331   2.378  19.792  0.00  0.00    +0.000 A 
ATOM     26  C   UNL     1       2.705   2.341  19.547  0.00  0.00    +0.000 A 
ENDBRANCH  20  21
ENDBRANCH  11  20
TORSDOF 4
ENDMDL
MODEL 3
REMARK VINA RESULT:      -7.8      0.426      6.233
REMARK  Name = 
REMARK  4 active torsions:
REMARK  status: ('A' for Active; 'I' for Inactive)
REMARK    1  A    between atoms: N_8  and  C_9
REMARK    2  A    between atoms: C_9  and  C_10
REMARK    3  A    between atoms: N_18  and  C_19
REMARK    4  A    between atoms: C_19  and  C_20
REMARK                            x       y       z     vdW  Elec       q    Type
REMARK                         _______ _______ _______ _____ _____    ______ ____
ROOT
ATOM      1  O   UNL     1       7.748   8.097  17.015  0.00  0.00    +0.000 OA
ATOM      2  C   UNL     1       7.501   7.117  17.692  0.00  0.00    +0.000 C 
ATOM      3  N   UNL     1       8.149   6.704  18.824  0.00  0.00    +0.000 N 
ATOM      4  C   UNL     1       7.481   5.691  19.453  0.00  0.00    +0.000 C 
ATOM      5  O   UNL     1       7.728   5.183  20.527  0.00  0.00    +0.000 OA
ATOM      6  C   UNL     1       6.384   5.372  18.563  0.00  0.00    +0.000 A 
ATOM      7  C   UNL     1       6.395   6.185  17.516  0.00  0.00    +0.000 A 
ATOM      8  N   UNL     1       5.394   5.861  16.658  0.00  0.00    +0.000 N 
ATOM      9  C   UNL     1       4.681   4.758  17.238  0.00  0.00    +0.000 A 
ATOM     10  O   UNL     1       3.719   4.171  16.774  0.00  0.00    +0.000 OA
ATOM     11  N   UNL     1       5.357   4.489  18.466  0.00  0.00    +0.000 N 
ATOM     12  H   UNL     1       8.935   7.184  19.233  0.00  0.00    +0.000 HD
ENDROOT
BRANCH   8  13
ATOM     13  C   UNL     1       5.232   6.282  15.292  0.00  0.00    +0.000 C 
BRANCH  13  14
ATOM     14  C   UNL     1       5.831   5.365  14.253  0.00  0.00    +0.000 A 
ATOM     15  C   UNL     1       7.192   5.449  13.931  0.00  0.00    +0.000 A 
ATOM     16  C   UNL     1       7.778   4.519  13.065  0.00  0.00    +0.000 A 
ATOM     17  C   UNL     1       7.007   3.498  12.515  0.00  0.00    +0.000 A 
ATOM     18  C   UNL     1       5.646   3.419  12.805  0.00  0.00    +0.000 A 
ATOM     19  C   UNL     1       5.058   4.353  13.662  0.00  0.00    +0.000 A 
ENDBRANCH  13  14
ENDBRANCH   8  13
BRANCH  11  20
ATOM     20  C   UNL     1       5.001   3.476  19.422  0.00  0.00    +0.000 C 
BRANCH  20  21
ATOM     21  C   UNL     1       3.539   3.475  19.802  0.00  0.00    +0.000 A 
ATOM     22  C   UNL     1       2.762   2.315  19.670  0.00  0.00    +0.000 A 
ATOM     23  C   UNL     1       1.432   2.298  20.099  0.00  0.00    +0.000 A 
ATOM     24  C   UNL     1       0.865   3.440  20.660  0.00  0.00    +0.000 A 
ATOM     25  C   UNL     1       1.620   4.606  20.774  0.00  0.00    +0.000 A 
ATOM     26  C   UNL     1       2.945   4.628  20.337  0.00  0.00    +0.000 A 
ENDBRANCH  20  21
ENDBRANCH  11  20
TORSDOF 4
ENDMDL
MODEL 4
REMARK VINA RESULT:      -7.1      2.742      4.684
REMARK  Name = 
REMARK  4 active torsions:
REMARK  status: ('A' for Active; 'I' for Inactive)
REMARK    1  A    between atoms: N_8  and  C_9
REMARK    2  A    between atoms: C_9  and  C_10
REMARK    3  A    between atoms: N_18  and  C_19
REMARK    4  A    between atoms: C_19  and  C_20
REMARK                            x       y       z     vdW  Elec       q    Type
REMARK                         _______ _______ _______ _____ _____    ______ ____
ROOT
ATOM      1  O   UNL     1       7.967   4.005  18.052  0.00  0.00    +0.000 OA
ATOM      2  C   UNL     1       7.301   5.016  17.925  0.00  0.00    +0.000 C 
ATOM      3  N   UNL     1       7.758   6.300  17.804  0.00  0.00    +0.000 N 
ATOM      4  C   UNL     1       6.756   7.166  17.463  0.00  0.00    +0.000 C 
ATOM      5  O   UNL     1       6.847   8.341  17.173  0.00  0.00    +0.000 OA
ATOM      6  C   UNL     1       5.553   6.360  17.494  0.00  0.00    +0.000 A 
ATOM      7  C   UNL     1       5.854   5.103  17.785  0.00  0.00    +0.000 A 
ATOM      8  N   UNL     1       4.724   4.353  17.858  0.00  0.00    +0.000 N 
ATOM      9  C   UNL     1       3.621   5.222  17.562  0.00  0.00    +0.000 A 
ATOM     10  O   UNL     1       2.437   4.934  17.532  0.00  0.00    +0.000 OA
ATOM     11  N   UNL     1       4.213   6.501  17.330  0.00  0.00    +0.000 N 
ATOM     12  H   UNL     1       8.731   6.557  17.809  0.00  0.00    +0.000 HD
ENDROOT
BRANCH   8  13
ATOM     13  C   UNL     1       4.572   3.041  18.425  0.00  0.00    +0.000 C 
BRANCH  13  14
ATOM     14  C   UNL     1       3.426   2.879  19.396  0.00  0.00    +0.000 A 
ATOM     15  C   UNL     1       3.450   3.528  20.637  0.00  0.00    +0.000 A 
ATOM     16  C   UNL     1       2.337   3.486  21.484  0.00  0.00    +0.000 A 
ATOM     17  C   UNL     1       1.192   2.795  21.096  0.00  0.00    +0.000 A 
ATOM     18  C   UNL     1       1.165   2.123  19.875  0.00  0.00    +0.000 A 
ATOM     19  C   UNL     1       2.279   2.156  19.033  0.00  0.00    +0.000 A 
ENDBRANCH  13  14
ENDBRANCH   8  13
BRANCH  11  20
ATOM     20  C   UNL     1       3.511   7.705  16.975  0.00  0.00    +0.000 C 
BRANCH  20  21
ATOM     21  C   UNL     1       2.640   8.258  18.078  0.00  0.00    +0.000 A 
ATOM     22  C   UNL     1       1.904   9.437  17.891  0.00  0.00    +0.000 A 
ATOM     23  C   UNL     1       1.038   9.900  18.885  0.00  0.00    +0.000 A 
ATOM     24  C   UNL     1       0.901   9.191  20.077  0.00  0.00    +0.000 A 
ATOM     25  C   UNL     1       1.644   8.030  20.284  0.00  0.00    +0.000 A 
ATOM     26  C   UNL     1       2.518   7.572  19.296  0.00  0.00    +0.000 A 
ENDBRANCH  20  21
ENDBRANCH  11  20
TORSDOF 4
ENDMDL
MODEL 5
REMARK VINA RESULT:      -7.1      2.753      6.947
REMARK  Name = 
REMARK  4 active torsions:
REMARK  status: ('A' for Active; 'I' for Inactive)
REMARK    1  A    between atoms: N_8  and  C_9
REMARK    2  A    between atoms: C_9  and  C_10
REMARK    3  A    between atoms: N_18  and  C_19
REMARK    4  A    between atoms: C_19  and  C_20
REMARK                            x       y       z     vdW  Elec       q    Type
REMARK                         _______ _______ _______ _____ _____    ______ ____
ROOT
ATOM      1  O   UNL     1       4.991   2.289  20.152  0.00  0.00    +0.000 OA
ATOM      2  C   UNL     1       4.053   2.984  19.806  0.00  0.00    +0.000 C 
ATOM      3  N   UNL     1       2.727   2.784  20.078  0.00  0.00    +0.000 N 
ATOM      4  C   UNL     1       1.967   3.865  19.726  0.00  0.00    +0.000 C 
ATOM      5  O   UNL     1       0.786   4.050  19.935  0.00  0.00    +0.000 OA
ATOM      6  C   UNL     1       2.894   4.763  19.070  0.00  0.00    +0.000 A 
ATOM      7  C   UNL     1       4.116   4.251  19.090  0.00  0.00    +0.000 A 
ATOM      8  N   UNL     1       4.981   5.070  18.438  0.00  0.00    +0.000 N 
ATOM      9  C   UNL     1       4.229   6.209  17.992  0.00  0.00    +0.000 A 
ATOM     10  O   UNL     1       4.638   7.168  17.361  0.00  0.00    +0.000 OA
ATOM     11  N   UNL     1       2.893   5.961  18.431  0.00  0.00    +0.000 N 
ATOM     12  H   UNL     1       2.370   2.008  20.611  0.00  0.00    +0.000 HD
ENDROOT
BRANCH   8  13
ATOM     13  C   UNL     1       6.308   4.765  17.977  0.00  0.00    +0.000 C 
BRANCH  13  14
ATOM     14  C   UNL     1       6.442   4.522  16.492  0.00  0.00    +0.000 A 
ATOM     15  C   UNL     1       5.585   3.627  15.839  0.00  0.00    +0.000 A 
ATOM     16  C   UNL     1       5.620   3.496  14.446  0.00  0.00    +0.000 A 
ATOM     17  C   UNL     1       6.514   4.258  13.698  0.00  0.00    +0.000 A 
ATOM     18  C   UNL     1       7.391   5.131  14.337  0.00  0.00    +0.000 A 
ATOM     19  C   UNL     1       7.363   5.256  15.729  0.00  0.00    +0.000 A 
ENDBRANCH  13  14
ENDBRANCH   8  13
BRANCH  11  20
ATOM     20  C   UNL     1       1.765   6.832  18.238  0.00  0.00    +0.000 C 
BRANCH  20  21
ATOM     21  C   UNL     1       1.600   7.873  19.320  0.00  0.00    +0.000 A 
ATOM     22  C   UNL     1       1.366   9.217  18.995  0.00  0.00    +0.000 A 
ATOM     23  C   UNL     1       1.133  10.160  20.000  0.00  0.00    +0.000 A 
ATOM     24  C   UNL     1       1.134   9.771  21.337  0.00  0.00    +0.000 A 
ATOM     25  C   UNL     1       1.388   8.443  21.673  0.00  0.00    +0.000 A 
ATOM     26  C   UNL     1       1.631   7.501  20.672  0.00  0.00    +0.000 A 
ENDBRANCH  20  21
ENDBRANCH  11  20
TORSDOF 4
ENDMDL
MODEL 6
REMARK VINA RESULT:      -7.0      4.645      6.539
REMARK  Name = 
REMARK  4 active torsions:
REMARK  status: ('A' for Active; 'I' for Inactive)
REMARK    1  A    between atoms: N_8  and  C_9
REMARK    2  A    between atoms: C_9  and  C_10
REMARK    3  A    between atoms: N_18  and  C_19
REMARK    4  A    between atoms: C_19  and  C_20
REMARK                            x       y       z     vdW  Elec       q    Type
REMARK                         _______ _______ _______ _____ _____    ______ ____
ROOT
ATOM      1  O   UNL     1       0.175   8.485  21.590  0.00  0.00    +0.000 OA
ATOM      2  C   UNL     1       1.005   7.759  21.075  0.00  0.00    +0.000 C 
ATOM      3  N   UNL     1       1.472   6.564  21.549  0.00  0.00    +0.000 N 
ATOM      4  C   UNL     1       2.234   5.911  20.621  0.00  0.00    +0.000 C 
ATOM      5  O   UNL     1       2.699   4.792  20.685  0.00  0.00    +0.000 OA
ATOM      6  C   UNL     1       2.343   6.844  19.519  0.00  0.00    +0.000 A 
ATOM      7  C   UNL     1       1.646   7.941  19.779  0.00  0.00    +0.000 A 
ATOM      8  N   UNL     1       1.780   8.836  18.767  0.00  0.00    +0.000 N 
ATOM      9  C   UNL     1       2.622   8.228  17.775  0.00  0.00    +0.000 A 
ATOM     10  O   UNL     1       2.988   8.711  16.717  0.00  0.00    +0.000 OA
ATOM     11  N   UNL     1       2.950   6.946  18.308  0.00  0.00    +0.000 N 
ATOM     12  H   UNL     1       1.170   6.141  22.411  0.00  0.00    +0.000 HD
ENDROOT
BRANCH   8  13
ATOM     13  C   UNL     1       1.445  10.234  18.776  0.00  0.00    +0.000 C 
BRANCH  13  14
ATOM     14  C   UNL     1      -0.030  10.551  18.704  0.00  0.00    +0.000 A 
ATOM     15  C   UNL     1      -0.586  11.536  19.531  0.00  0.00    +0.000 A 
ATOM     16  C   UNL     1      -1.922  11.923  19.378  0.00  0.00    +0.000 A 
ATOM     17  C   UNL     1      -2.712  11.327  18.398  0.00  0.00    +0.000 A 
ATOM     18  C   UNL     1      -2.179  10.328  17.587  0.00  0.00    +0.000 A 
ATOM     19  C   UNL     1      -0.848   9.934  17.745  0.00  0.00    +0.000 A 
ENDBRANCH  13  14
ENDBRANCH   8  13
BRANCH  11  20
ATOM     20  C   UNL     1       3.762   5.947  17.667  0.00  0.00    +0.000 C 
BRANCH  20  21
ATOM     21  C   UNL     1       5.239   6.077  17.954  0.00  0.00    +0.000 A 
ATOM     22  C   UNL     1       6.047   6.937  17.195  0.00  0.00    +0.000 A 
ATOM     23  C   UNL     1       7.395   7.114  17.518  0.00  0.00    +0.000 A 
ATOM     24  C   UNL     1       7.950   6.433  18.599  0.00  0.00    +0.000 A 
ATOM     25  C   UNL     1       7.163   5.559  19.347  0.00  0.00    +0.000 A 
ATOM     26  C   UNL     1       5.819   5.372  19.020  0.00  0.00    +0.000 A 
ENDBRANCH  20  21
ENDBRANCH  11  20
TORSDOF 4
ENDMDL
MODEL 7
REMARK VINA RESULT:      -7.0      2.004      6.700
REMARK  Name = 
REMARK  4 active torsions:
REMARK  status: ('A' for Active; 'I' for Inactive)
REMARK    1  A    between atoms: N_8  and  C_9
REMARK    2  A    between atoms: C_9  and  C_10
REMARK    3  A    between atoms: N_18  and  C_19
REMARK    4  A    between atoms: C_19  and  C_20
REMARK                            x       y       z     vdW  Elec       q    Type
REMARK                         _______ _______ _______ _____ _____    ______ ____
ROOT
ATOM      1  O   UNL     1       6.482   7.336  16.355  0.00  0.00    +0.000 OA
ATOM      2  C   UNL     1       5.460   7.045  16.949  0.00  0.00    +0.000 C 
ATOM      3  N   UNL     1       4.696   7.861  17.737  0.00  0.00    +0.000 N 
ATOM      4  C   UNL     1       3.507   7.277  18.073  0.00  0.00    +0.000 C 
ATOM      5  O   UNL     1       2.568   7.773  18.662  0.00  0.00    +0.000 OA
ATOM      6  C   UNL     1       3.600   5.934  17.542  0.00  0.00    +0.000 A 
ATOM      7  C   UNL     1       4.747   5.775  16.899  0.00  0.00    +0.000 A 
ATOM      8  N   UNL     1       4.857   4.503  16.436  0.00  0.00    +0.000 N 
ATOM      9  C   UNL     1       3.653   3.814  16.807  0.00  0.00    +0.000 A 
ATOM     10  O   UNL     1       3.365   2.651  16.584  0.00  0.00    +0.000 OA
ATOM     11  N   UNL     1       2.877   4.784  17.512  0.00  0.00    +0.000 N 
ATOM     12  H   UNL     1       4.907   8.829  17.920  0.00  0.00    +0.000 HD
ENDROOT
BRANCH   8  13
ATOM     13  C   UNL     1       6.038   3.837  15.957  0.00  0.00    +0.000 C 
BRANCH  13  14
ATOM     14  C   UNL     1       6.387   4.091  14.509  0.00  0.00    +0.000 A 
ATOM     15  C   UNL     1       7.411   4.986  14.173  0.00  0.00    +0.000 A 
ATOM     16  C   UNL     1       7.825   5.126  12.843  0.00  0.00    +0.000 A 
ATOM     17  C   UNL     1       7.216   4.375  11.842  0.00  0.00    +0.000 A 
ATOM     18  C   UNL     1       6.178   3.501  12.159  0.00  0.00    +0.000 A 
ATOM     19  C   UNL     1       5.758   3.367  13.485  0.00  0.00    +0.000 A 
ENDBRANCH  13  14
ENDBRANCH   8  13
BRANCH  11  20
ATOM     20  C   UNL     1       1.568   4.575  18.069  0.00  0.00    +0.000 C 
BRANCH  20  21
ATOM     21  C   UNL     1       1.578   3.975  19.455  0.00  0.00    +0.000 A 
ATOM     22  C   UNL     1       1.011   2.715  19.697  0.00  0.00    +0.000 A 
ATOM     23  C   UNL     1       1.095   2.130  20.963  0.00  0.00    +0.000 A 
ATOM     24  C   UNL     1       1.743   2.798  22.000  0.00  0.00    +0.000 A 
ATOM     25  C   UNL     1       2.290   4.060  21.777  0.00  0.00    +0.000 A 
ATOM     26  C   UNL     1       2.198   4.651  20.516  0.00  0.00    +0.000 A 
ENDBRANCH  20  21
ENDBRANCH  11  20
TORSDOF 4
ENDMDL
MODEL 8
REMARK VINA RESULT:      -7.0      1.774      6.183
REMARK  Name = 
REMARK  4 active torsions:
REMARK  status: ('A' for Active; 'I' for Inactive)
REMARK    1  A    between atoms: N_8  and  C_9
REMARK    2  A    between atoms: C_9  and  C_10
REMARK    3  A    between atoms: N_18  and  C_19
REMARK    4  A    between atoms: C_19  and  C_20
REMARK                            x       y       z     vdW  Elec       q    Type
REMARK                         _______ _______ _______ _____ _____    ______ ____
ROOT
ATOM      1  O   UNL     1       8.548   4.135  17.721  0.00  0.00    +0.000 OA
ATOM      2  C   UNL     1       7.399   4.434  17.991  0.00  0.00    +0.000 C 
ATOM      3  N   UNL     1       6.699   4.104  19.119  0.00  0.00    +0.000 N 
ATOM      4  C   UNL     1       5.514   4.779  19.198  0.00  0.00    +0.000 C 
ATOM      5  O   UNL     1       4.720   4.797  20.117  0.00  0.00    +0.000 OA
ATOM      6  C   UNL     1       5.423   5.501  17.947  0.00  0.00    +0.000 A 
ATOM      7  C   UNL     1       6.510   5.291  17.219  0.00  0.00    +0.000 A 
ATOM      8  N   UNL     1       6.410   5.932  16.026  0.00  0.00    +0.000 N 
ATOM      9  C   UNL     1       5.151   6.623  16.022  0.00  0.00    +0.000 A 
ATOM     10  O   UNL     1       4.684   7.307  15.129  0.00  0.00    +0.000 OA
ATOM     11  N   UNL     1       4.560   6.315  17.285  0.00  0.00    +0.000 N 
ATOM     12  H   UNL     1       7.072   3.554  19.876  0.00  0.00    +0.000 HD
ENDROOT
BRANCH   8  13
ATOM     13  C   UNL     1       7.211   5.734  14.848  0.00  0.00    +0.000 C 
BRANCH  13  14
ATOM     14  C   UNL     1       6.678   4.723  13.860  0.00  0.00    +0.000 A 
ATOM     15  C   UNL     1       5.423   4.134  14.055  0.00  0.00    +0.000 A 
ATOM     16  C   UNL     1       4.870   3.297  13.079  0.00  0.00    +0.000 A 
ATOM     17  C   UNL     1       5.570   3.044  11.901  0.00  0.00    +0.000 A 
ATOM     18  C   UNL     1       6.831   3.602  11.707  0.00  0.00    +0.000 A 
ATOM     19  C   UNL     1       7.388   4.430  12.685  0.00  0.00    +0.000 A 
ENDBRANCH  13  14
ENDBRANCH   8  13
BRANCH  11  20
ATOM     20  C   UNL     1       3.292   6.795  17.763  0.00  0.00    +0.000 C 
BRANCH  20  21
ATOM     21  C   UNL     1       2.434   5.732  18.406  0.00  0.00    +0.000 A 
ATOM     22  C   UNL     1       2.095   4.563  17.710  0.00  0.00    +0.000 A 
ATOM     23  C   UNL     1       1.369   3.547  18.338  0.00  0.00    +0.000 A 
ATOM     24  C   UNL     1       0.973   3.690  19.666  0.00  0.00    +0.000 A 
ATOM     25  C   UNL     1       1.284   4.858  20.361  0.00  0.00    +0.000 A 
ATOM     26  C   UNL     1       2.000   5.878  19.732  0.00  0.00    +0.000 A 
ENDBRANCH  20  21
ENDBRANCH  11  20
TORSDOF 4
ENDMDL
MODEL 9
REMARK VINA RESULT:      -7.0      2.740      4.830
REMARK  Name = 
REMARK  4 active torsions:
REMARK  status: ('A' for Active; 'I' for Inactive)
REMARK    1  A    between atoms: N_8  and  C_9
REMARK    2  A    between atoms: C_9  and  C_10
REMARK    3  A    between atoms: N_18  and  C_19
REMARK    4  A    between atoms: C_19  and  C_20
REMARK                            x       y       z     vdW  Elec       q    Type
REMARK                         _______ _______ _______ _____ _____    ______ ____
ROOT
ATOM      1  O   UNL     1       0.292   3.323  19.714  0.00  0.00    +0.000 OA
ATOM      2  C   UNL     1       1.436   3.039  19.407  0.00  0.00    +0.000 C 
ATOM      3  N   UNL     1       1.908   1.821  19.002  0.00  0.00    +0.000 N 
ATOM      4  C   UNL     1       3.188   1.904  18.530  0.00  0.00    +0.000 C 
ATOM      5  O   UNL     1       3.849   1.036  17.997  0.00  0.00    +0.000 OA
ATOM      6  C   UNL     1       3.579   3.276  18.778  0.00  0.00    +0.000 A 
ATOM      7  C   UNL     1       2.570   3.948  19.312  0.00  0.00    +0.000 A 
ATOM      8  N   UNL     1       2.946   5.224  19.586  0.00  0.00    +0.000 N 
ATOM      9  C   UNL     1       4.310   5.362  19.161  0.00  0.00    +0.000 A 
ATOM     10  O   UNL     1       5.015   6.354  19.240  0.00  0.00    +0.000 OA
ATOM     11  N   UNL     1       4.666   4.080  18.644  0.00  0.00    +0.000 N 
ATOM     12  H   UNL     1       1.340   0.995  18.913  0.00  0.00    +0.000 HD
ENDROOT
BRANCH   8  13
ATOM     13  C   UNL     1       2.273   6.182  20.421  0.00  0.00    +0.000 C 
BRANCH  13  14
ATOM     14  C   UNL     1       1.842   7.456  19.734  0.00  0.00    +0.000 A 
ATOM     15  C   UNL     1       1.262   8.498  20.470  0.00  0.00    +0.000 A 
ATOM     16  C   UNL     1       0.981   9.727  19.863  0.00  0.00    +0.000 A 
ATOM     17  C   UNL     1       1.277   9.922  18.516  0.00  0.00    +0.000 A 
ATOM     18  C   UNL     1       1.828   8.886  17.767  0.00  0.00    +0.000 A 
ATOM     19  C   UNL     1       2.101   7.655  18.369  0.00  0.00    +0.000 A 
ENDBRANCH  13  14
ENDBRANCH   8  13
BRANCH  11  20
ATOM     20  C   UNL     1       5.936   3.721  18.075  0.00  0.00    +0.000 C 
BRANCH  20  21
ATOM     21  C   UNL     1       6.118   4.168  16.644  0.00  0.00    +0.000 A 
ATOM     22  C   UNL     1       7.286   4.832  16.240  0.00  0.00    +0.000 A 
ATOM     23  C   UNL     1       7.483   5.170  14.898  0.00  0.00    +0.000 A 
ATOM     24  C   UNL     1       6.516   4.850  13.948  0.00  0.00    +0.000 A 
ATOM     25  C   UNL     1       5.341   4.211  14.341  0.00  0.00    +0.000 A 
ATOM     26  C   UNL     1       5.138   3.882  15.682  0.00  0.00    +0.000 A 
ENDBRANCH  20  21
ENDBRANCH  11  20
TORSDOF 4
ENDMDL
