MODEL 1
REMARK VINA RESULT:      -6.5      0.000      0.000
REMARK  Name = 
REMARK  4 active torsions:
REMARK  status: ('A' for Active; 'I' for Inactive)
REMARK    1  A    between atoms: C_1  and  C_2
REMARK    2  A    between atoms: C_5  and  N_6
REMARK    3  A    between atoms: C_12  and  C_13
REMARK    4  A    between atoms: C_21  and  C_22
REMARK                            x       y       z     vdW  Elec       q    Type
REMARK                         _______ _______ _______ _____ _____    ______ ____
ROOT
ATOM      1  N   UNL     1      -0.437  10.607  19.668  0.00  0.00    +0.000 N 
ATOM      2  C   UNL     1      -1.689  10.699  19.019  0.00  0.00    +0.000 C 
ATOM      3  O   UNL     1      -2.183  10.003  18.150  0.00  0.00    +0.000 OA
ATOM      4  C   UNL     1      -2.302  11.821  19.621  0.00  0.00    +0.000 A 
ATOM      5  N   UNL     1      -3.433  12.532  19.514  0.00  0.00    +0.000 N 
ATOM      6  N   UNL     1      -3.419  13.603  20.342  0.00  0.00    +0.000 NA
ATOM      7  C   UNL     1      -2.234  13.539  20.997  0.00  0.00    +0.000 A 
ATOM      8  C   UNL     1      -1.522  12.408  20.567  0.00  0.00    +0.000 A 
ATOM      9  C   UNL     1      -0.239  11.681  20.704  0.00  0.00    +0.000 C 
ATOM     10  H   UNL     1      -4.235  12.379  18.907  0.00  0.00    +0.000 HD
ENDROOT
BRANCH   1  15
ATOM     11  C   UNL     1       3.545   6.730  18.203  0.00  0.00    +0.000 C 
ATOM     12  C   UNL     1       2.530   7.761  18.596  0.00  0.00    +0.000 A 
ATOM     13  C   UNL     1       2.011   7.796  19.890  0.00  0.00    +0.000 A 
ATOM     14  C   UNL     1       1.066   8.761  20.251  0.00  0.00    +0.000 A 
ATOM     15  C   UNL     1       0.595   9.694  19.320  0.00  0.00    +0.000 A 
ATOM     16  C   UNL     1       1.121   9.655  18.021  0.00  0.00    +0.000 A 
ATOM     17  C   UNL     1       2.088   8.706  17.666  0.00  0.00    +0.000 A 
ENDBRANCH   1  15
BRANCH   7  18
ATOM     18  C   UNL     1      -1.848  14.564  21.966  0.00  0.00    +0.000 A 
ATOM     19  C   UNL     1      -1.983  15.928  21.674  0.00  0.00    +0.000 A 
ATOM     20  C   UNL     1      -1.582  16.896  22.600  0.00  0.00    +0.000 A 
ATOM     21  C   UNL     1      -1.045  16.505  23.825  0.00  0.00    +0.000 A 
ATOM     22 BR   UNL     1      -0.473  17.815  25.060  0.00  0.00    +0.000 Br
ATOM     23  C   UNL     1      -0.917  15.154  24.139  0.00  0.00    +0.000 A 
ATOM     24  C   UNL     1      -1.316  14.189  23.210  0.00  0.00    +0.000 A 
ENDBRANCH   7  18
BRANCH   9  25
ATOM     25  C   UNL     1       0.934  12.534  20.357  0.00  0.00    +0.000 A 
ATOM     26  C   UNL     1       1.349  13.161  19.196  0.00  0.00    +0.000 A 
ATOM     27  C   UNL     1       2.586  13.777  19.492  0.00  0.00    +0.000 A 
ATOM     28  C   UNL     1       2.845  13.499  20.814  0.00  0.00    +0.000 A 
ATOM     29  O   UNL     1       1.848  12.749  21.350  0.00  0.00    +0.000 OA
ENDBRANCH   9  25
TORSDOF 3
ENDMDL
MODEL 2
REMARK VINA RESULT:      -6.3      2.758      3.733
REMARK  Name = 
REMARK  4 active torsions:
REMARK  status: ('A' for Active; 'I' for Inactive)
REMARK    1  A    between atoms: C_1  and  C_2
REMARK    2  A    between atoms: C_5  and  N_6
REMARK    3  A    between atoms: C_12  and  C_13
REMARK    4  A    between atoms: C_21  and  C_22
REMARK                            x       y       z     vdW  Elec       q    Type
REMARK                         _______ _______ _______ _____ _____    ______ ____
ROOT
ATOM      1  N   UNL     1       1.021  10.238  18.974  0.00  0.00    +0.000 N 
ATOM      2  C   UNL     1       1.573  11.486  18.605  0.00  0.00    +0.000 C 
ATOM      3  O   UNL     1       2.606  11.753  18.018  0.00  0.00    +0.000 OA
ATOM      4  C   UNL     1       0.626  12.427  19.069  0.00  0.00    +0.000 A 
ATOM      5  N   UNL     1       0.468  13.756  19.128  0.00  0.00    +0.000 N 
ATOM      6  N   UNL     1      -0.660  14.088  19.800  0.00  0.00    +0.000 NA
ATOM      7  C   UNL     1      -1.228  12.909  20.157  0.00  0.00    +0.000 A 
ATOM      8  C   UNL     1      -0.439  11.848  19.687  0.00  0.00    +0.000 A 
ATOM      9  C   UNL     1      -0.300  10.373  19.682  0.00  0.00    +0.000 C 
ATOM     10  H   UNL     1       1.071  14.493  18.768  0.00  0.00    +0.000 HD
ENDROOT
BRANCH   1  15
ATOM     11  C   UNL     1       3.886   5.286  18.420  0.00  0.00    +0.000 C 
ATOM     12  C   UNL     1       3.112   6.563  18.552  0.00  0.00    +0.000 A 
ATOM     13  C   UNL     1       3.036   7.466  17.491  0.00  0.00    +0.000 A 
ATOM     14  C   UNL     1       2.312   8.654  17.620  0.00  0.00    +0.000 A 
ATOM     15  C   UNL     1       1.672   8.984  18.820  0.00  0.00    +0.000 A 
ATOM     16  C   UNL     1       1.750   8.073  19.882  0.00  0.00    +0.000 A 
ATOM     17  C   UNL     1       2.453   6.870  19.746  0.00  0.00    +0.000 A 
ENDBRANCH   1  15
BRANCH   7  18
ATOM     18  C   UNL     1      -2.465  12.870  20.935  0.00  0.00    +0.000 A 
ATOM     19  C   UNL     1      -3.710  13.105  20.336  0.00  0.00    +0.000 A 
ATOM     20  C   UNL     1      -4.880  13.094  21.100  0.00  0.00    +0.000 A 
ATOM     21  C   UNL     1      -4.813  12.843  22.469  0.00  0.00    +0.000 A 
ATOM     22 BR   UNL     1      -6.393  12.861  23.505  0.00  0.00    +0.000 Br
ATOM     23  C   UNL     1      -3.587  12.592  23.080  0.00  0.00    +0.000 A 
ATOM     24  C   UNL     1      -2.418  12.607  22.314  0.00  0.00    +0.000 A 
ENDBRANCH   7  18
BRANCH   9  25
ATOM     25  C   UNL     1      -0.215   9.809  21.060  0.00  0.00    +0.000 A 
ATOM     26  C   UNL     1      -0.792   8.718  21.683  0.00  0.00    +0.000 A 
ATOM     27  C   UNL     1      -0.362   8.750  23.029  0.00  0.00    +0.000 A 
ATOM     28  C   UNL     1       0.457   9.849  23.144  0.00  0.00    +0.000 A 
ATOM     29  O   UNL     1       0.556  10.498  21.955  0.00  0.00    +0.000 OA
ENDBRANCH   9  25
TORSDOF 3
ENDMDL
MODEL 3
REMARK VINA RESULT:      -6.2      4.574      7.856
REMARK  Name = 
REMARK  4 active torsions:
REMARK  status: ('A' for Active; 'I' for Inactive)
REMARK    1  A    between atoms: C_1  and  C_2
REMARK    2  A    between atoms: C_5  and  N_6
REMARK    3  A    between atoms: C_12  and  C_13
REMARK    4  A    between atoms: C_21  and  C_22
REMARK                            x       y       z     vdW  Elec       q    Type
REMARK                         _______ _______ _______ _____ _____    ______ ____
ROOT
ATOM      1  N   UNL     1      -4.273  15.044  23.146  0.00  0.00    +0.000 N 
ATOM      2  C   UNL     1      -5.663  14.871  23.339  0.00  0.00    +0.000 C 
ATOM      3  O   UNL     1      -6.393  15.260  24.234  0.00  0.00    +0.000 OA
ATOM      4  C   UNL     1      -6.072  14.121  22.214  0.00  0.00    +0.000 A 
ATOM      5  N   UNL     1      -7.185  13.556  21.727  0.00  0.00    +0.000 N 
ATOM      6  N   UNL     1      -6.927  12.860  20.594  0.00  0.00    +0.000 NA
ATOM      7  C   UNL     1      -5.599  13.017  20.367  0.00  0.00    +0.000 A 
ATOM      8  C   UNL     1      -5.045  13.826  21.371  0.00  0.00    +0.000 A 
ATOM      9  C   UNL     1      -3.778  14.400  21.880  0.00  0.00    +0.000 C 
ATOM     10  H   UNL     1      -8.131  13.572  22.099  0.00  0.00    +0.000 HD
ENDROOT
BRANCH   1  15
ATOM     11  C   UNL     1      -0.498  17.357  26.811  0.00  0.00    +0.000 C 
ATOM     12  C   UNL     1      -1.507  16.764  25.874  0.00  0.00    +0.000 A 
ATOM     13  C   UNL     1      -1.997  15.474  26.075  0.00  0.00    +0.000 A 
ATOM     14  C   UNL     1      -2.939  14.927  25.199  0.00  0.00    +0.000 A 
ATOM     15  C   UNL     1      -3.391  15.644  24.085  0.00  0.00    +0.000 A 
ATOM     16  C   UNL     1      -2.896  16.940  23.889  0.00  0.00    +0.000 A 
ATOM     17  C   UNL     1      -1.973  17.500  24.781  0.00  0.00    +0.000 A 
ENDBRANCH   1  15
BRANCH   7  18
ATOM     18  C   UNL     1      -4.944  12.372  19.230  0.00  0.00    +0.000 A 
ATOM     19  C   UNL     1      -3.596  11.992  19.288  0.00  0.00    +0.000 A 
ATOM     20  C   UNL     1      -2.976  11.403  18.181  0.00  0.00    +0.000 A 
ATOM     21  C   UNL     1      -3.702  11.188  17.012  0.00  0.00    +0.000 A 
ATOM     22 BR   UNL     1      -2.851  10.423  15.508  0.00  0.00    +0.000 Br
ATOM     23  C   UNL     1      -5.045  11.546  16.941  0.00  0.00    +0.000 A 
ATOM     24  C   UNL     1      -5.662  12.137  18.047  0.00  0.00    +0.000 A 
ENDBRANCH   7  18
BRANCH   9  25
ATOM     25  C   UNL     1      -2.767  13.348  22.188  0.00  0.00    +0.000 A 
ATOM     26  C   UNL     1      -2.813  12.152  22.879  0.00  0.00    +0.000 A 
ATOM     27  C   UNL     1      -1.498  11.633  22.874  0.00  0.00    +0.000 A 
ATOM     28  C   UNL     1      -0.733  12.536  22.174  0.00  0.00    +0.000 A 
ATOM     29  O   UNL     1      -1.493  13.579  21.750  0.00  0.00    +0.000 OA
ENDBRANCH   9  25
TORSDOF 3
ENDMDL
MODEL 4
REMARK VINA RESULT:      -6.2      3.243      7.247
REMARK  Name = 
REMARK  4 active torsions:
REMARK  status: ('A' for Active; 'I' for Inactive)
REMARK    1  A    between atoms: C_1  and  C_2
REMARK    2  A    between atoms: C_5  and  N_6
REMARK    3  A    between atoms: C_12  and  C_13
REMARK    4  A    between atoms: C_21  and  C_22
REMARK                            x       y       z     vdW  Elec       q    Type
REMARK                         _______ _______ _______ _____ _____    ______ ____
ROOT
ATOM      1  N   UNL     1      -1.718  12.658  21.587  0.00  0.00    +0.000 N 
ATOM      2  C   UNL     1      -1.877  12.023  22.840  0.00  0.00    +0.000 C 
ATOM      3  O   UNL     1      -2.471  12.383  23.841  0.00  0.00    +0.000 OA
ATOM      4  C   UNL     1      -1.176  10.805  22.695  0.00  0.00    +0.000 A 
ATOM      5  N   UNL     1      -0.851   9.733  23.431  0.00  0.00    +0.000 N 
ATOM      6  N   UNL     1      -0.052   8.886  22.739  0.00  0.00    +0.000 NA
ATOM      7  C   UNL     1       0.109   9.457  21.519  0.00  0.00    +0.000 A 
ATOM      8  C   UNL     1      -0.609  10.662  21.467  0.00  0.00    +0.000 A 
ATOM      9  C   UNL     1      -0.908  11.838  20.619  0.00  0.00    +0.000 C 
ATOM     10  H   UNL     1      -1.103   9.510  24.391  0.00  0.00    +0.000 HD
ENDROOT
BRANCH   1  15
ATOM     11  C   UNL     1      -3.576  18.008  20.607  0.00  0.00    +0.000 C 
ATOM     12  C   UNL     1      -3.085  16.610  20.831  0.00  0.00    +0.000 A 
ATOM     13  C   UNL     1      -3.943  15.519  20.690  0.00  0.00    +0.000 A 
ATOM     14  C   UNL     1      -3.479  14.218  20.898  0.00  0.00    +0.000 A 
ATOM     15  C   UNL     1      -2.155  13.976  21.282  0.00  0.00    +0.000 A 
ATOM     16  C   UNL     1      -1.296  15.074  21.420  0.00  0.00    +0.000 A 
ATOM     17  C   UNL     1      -1.753  16.377  21.185  0.00  0.00    +0.000 A 
ENDBRANCH   1  15
BRANCH   7  18
ATOM     18  C   UNL     1       0.949   8.834  20.497  0.00  0.00    +0.000 A 
ATOM     19  C   UNL     1       1.599   7.615  20.734  0.00  0.00    +0.000 A 
ATOM     20  C   UNL     1       2.423   7.048  19.757  0.00  0.00    +0.000 A 
ATOM     21  C   UNL     1       2.599   7.695  18.536  0.00  0.00    +0.000 A 
ATOM     22 BR   UNL     1       3.739   6.942  17.231  0.00  0.00    +0.000 Br
ATOM     23  C   UNL     1       1.950   8.899  18.277  0.00  0.00    +0.000 A 
ATOM     24  C   UNL     1       1.129   9.465  19.256  0.00  0.00    +0.000 A 
ENDBRANCH   7  18
BRANCH   9  25
ATOM     25  C   UNL     1       0.327  12.573  20.218  0.00  0.00    +0.000 A 
ATOM     26  C   UNL     1       0.759  13.137  19.032  0.00  0.00    +0.000 A 
ATOM     27  C   UNL     1       2.057  13.641  19.276  0.00  0.00    +0.000 A 
ATOM     28  C   UNL     1       2.333  13.364  20.595  0.00  0.00    +0.000 A 
ATOM     29  O   UNL     1       1.289  12.719  21.177  0.00  0.00    +0.000 OA
ENDBRANCH   9  25
TORSDOF 3
ENDMDL
MODEL 5
REMARK VINA RESULT:      -6.2      4.484      7.779
REMARK  Name = 
REMARK  4 active torsions:
REMARK  status: ('A' for Active; 'I' for Inactive)
REMARK    1  A    between atoms: C_1  and  C_2
REMARK    2  A    between atoms: C_5  and  N_6
REMARK    3  A    between atoms: C_12  and  C_13
REMARK    4  A    between atoms: C_21  and  C_22
REMARK                            x       y       z     vdW  Elec       q    Type
REMARK                         _______ _______ _______ _____ _____    ______ ____
ROOT
ATOM      1  N   UNL     1      -4.567  14.231  22.927  0.00  0.00    +0.000 N 
ATOM      2  C   UNL     1      -5.753  13.568  23.317  0.00  0.00    +0.000 C 
ATOM      3  O   UNL     1      -6.399  13.642  24.347  0.00  0.00    +0.000 OA
ATOM      4  C   UNL     1      -6.072  12.758  22.204  0.00  0.00    +0.000 A 
ATOM      5  N   UNL     1      -6.990  11.850  21.846  0.00  0.00    +0.000 N 
ATOM      6  N   UNL     1      -6.716  11.329  20.626  0.00  0.00    +0.000 NA
ATOM      7  C   UNL     1      -5.587  11.957  20.210  0.00  0.00    +0.000 A 
ATOM      8  C   UNL     1      -5.176  12.877  21.187  0.00  0.00    +0.000 A 
ATOM      9  C   UNL     1      -4.116  13.847  21.543  0.00  0.00    +0.000 C 
ATOM     10  H   UNL     1      -7.800  11.516  22.361  0.00  0.00    +0.000 HD
ENDROOT
BRANCH   1  15
ATOM     11  C   UNL     1      -1.217  17.570  26.192  0.00  0.00    +0.000 C 
ATOM     12  C   UNL     1      -2.116  16.705  25.360  0.00  0.00    +0.000 A 
ATOM     13  C   UNL     1      -2.300  15.358  25.671  0.00  0.00    +0.000 A 
ATOM     14  C   UNL     1      -3.140  14.557  24.893  0.00  0.00    +0.000 A 
ATOM     15  C   UNL     1      -3.793  15.075  23.768  0.00  0.00    +0.000 A 
ATOM     16  C   UNL     1      -3.606  16.430  23.461  0.00  0.00    +0.000 A 
ATOM     17  C   UNL     1      -2.786  17.240  24.256  0.00  0.00    +0.000 A 
ENDBRANCH   1  15
BRANCH   7  18
ATOM     18  C   UNL     1      -4.965  11.625  18.930  0.00  0.00    +0.000 A 
ATOM     19  C   UNL     1      -5.621  11.874  17.716  0.00  0.00    +0.000 A 
ATOM     20  C   UNL     1      -5.025  11.524  16.501  0.00  0.00    +0.000 A 
ATOM     21  C   UNL     1      -3.767  10.926  16.492  0.00  0.00    +0.000 A 
ATOM     22 BR   UNL     1      -2.979  10.424  14.850  0.00  0.00    +0.000 Br
ATOM     23  C   UNL     1      -3.093  10.684  17.686  0.00  0.00    +0.000 A 
ATOM     24  C   UNL     1      -3.693  11.033  18.900  0.00  0.00    +0.000 A 
ENDBRANCH   7  18
BRANCH   9  25
ATOM     25  C   UNL     1      -2.765  13.216  21.590  0.00  0.00    +0.000 A 
ATOM     26  C   UNL     1      -1.572  13.464  20.937  0.00  0.00    +0.000 A 
ATOM     27  C   UNL     1      -0.663  12.472  21.370  0.00  0.00    +0.000 A 
ATOM     28  C   UNL     1      -1.351  11.687  22.266  0.00  0.00    +0.000 A 
ATOM     29  O   UNL     1      -2.627  12.131  22.409  0.00  0.00    +0.000 OA
ENDBRANCH   9  25
TORSDOF 3
ENDMDL
MODEL 6
REMARK VINA RESULT:      -6.2      0.582      1.412
REMARK  Name = 
REMARK  4 active torsions:
REMARK  status: ('A' for Active; 'I' for Inactive)
REMARK    1  A    between atoms: C_1  and  C_2
REMARK    2  A    between atoms: C_5  and  N_6
REMARK    3  A    between atoms: C_12  and  C_13
REMARK    4  A    between atoms: C_21  and  C_22
REMARK                            x       y       z     vdW  Elec       q    Type
REMARK                         _______ _______ _______ _____ _____    ______ ____
ROOT
ATOM      1  N   UNL     1      -0.883  10.995  19.797  0.00  0.00    +0.000 N 
ATOM      2  C   UNL     1      -2.141  11.178  19.179  0.00  0.00    +0.000 C 
ATOM      3  O   UNL     1      -2.689  10.545  18.295  0.00  0.00    +0.000 OA
ATOM      4  C   UNL     1      -2.680  12.307  19.837  0.00  0.00    +0.000 A 
ATOM      5  N   UNL     1      -3.773  13.081  19.782  0.00  0.00    +0.000 N 
ATOM      6  N   UNL     1      -3.685  14.117  20.650  0.00  0.00    +0.000 NA
ATOM      7  C   UNL     1      -2.492  13.964  21.276  0.00  0.00    +0.000 A 
ATOM      8  C   UNL     1      -1.851  12.814  20.788  0.00  0.00    +0.000 A 
ATOM      9  C   UNL     1      -0.607  12.015  20.868  0.00  0.00    +0.000 C 
ATOM     10  H   UNL     1      -4.594  12.995  19.187  0.00  0.00    +0.000 HD
ENDROOT
BRANCH   1  15
ATOM     11  C   UNL     1       3.244   7.329  18.193  0.00  0.00    +0.000 C 
ATOM     12  C   UNL     1       2.145   8.263  18.602  0.00  0.00    +0.000 A 
ATOM     13  C   UNL     1       1.566   9.134  17.679  0.00  0.00    +0.000 A 
ATOM     14  C   UNL     1       0.541  10.001  18.066  0.00  0.00    +0.000 A 
ATOM     15  C   UNL     1       0.091  10.042  19.391  0.00  0.00    +0.000 A 
ATOM     16  C   UNL     1       0.675   9.164  20.314  0.00  0.00    +0.000 A 
ATOM     17  C   UNL     1       1.683   8.276  19.922  0.00  0.00    +0.000 A 
ENDBRANCH   1  15
BRANCH   7  18
ATOM     18  C   UNL     1      -2.032  14.927  22.274  0.00  0.00    +0.000 A 
ATOM     19  C   UNL     1      -1.457  14.505  23.482  0.00  0.00    +0.000 A 
ATOM     20  C   UNL     1      -1.050  15.439  24.439  0.00  0.00    +0.000 A 
ATOM     21  C   UNL     1      -1.211  16.801  24.193  0.00  0.00    +0.000 A 
ATOM     22 BR   UNL     1      -0.690  18.059  25.504  0.00  0.00    +0.000 Br
ATOM     23  C   UNL     1      -1.766  17.239  22.994  0.00  0.00    +0.000 A 
ATOM     24  C   UNL     1      -2.175  16.304  22.040  0.00  0.00    +0.000 A 
ENDBRANCH   7  18
BRANCH   9  25
ATOM     25  C   UNL     1       0.603  12.817  20.528  0.00  0.00    +0.000 A 
ATOM     26  C   UNL     1       0.892  13.736  19.537  0.00  0.00    +0.000 A 
ATOM     27  C   UNL     1       2.245  14.105  19.712  0.00  0.00    +0.000 A 
ATOM     28  C   UNL     1       2.696  13.399  20.803  0.00  0.00    +0.000 A 
ATOM     29  O   UNL     1       1.708  12.617  21.308  0.00  0.00    +0.000 OA
ENDBRANCH   9  25
TORSDOF 3
ENDMDL
MODEL 7
REMARK VINA RESULT:      -6.1      4.554      7.869
REMARK  Name = 
REMARK  4 active torsions:
REMARK  status: ('A' for Active; 'I' for Inactive)
REMARK    1  A    between atoms: C_1  and  C_2
REMARK    2  A    between atoms: C_5  and  N_6
REMARK    3  A    between atoms: C_12  and  C_13
REMARK    4  A    between atoms: C_21  and  C_22
REMARK                            x       y       z     vdW  Elec       q    Type
REMARK                         _______ _______ _______ _____ _____    ______ ____
ROOT
ATOM      1  N   UNL     1      -3.880  15.200  23.157  0.00  0.00    +0.000 N 
ATOM      2  C   UNL     1      -5.270  15.080  23.389  0.00  0.00    +0.000 C 
ATOM      3  O   UNL     1      -5.962  15.516  24.291  0.00  0.00    +0.000 OA
ATOM      4  C   UNL     1      -5.732  14.317  22.293  0.00  0.00    +0.000 A 
ATOM      5  N   UNL     1      -6.876  13.779  21.849  0.00  0.00    +0.000 N 
ATOM      6  N   UNL     1      -6.672  13.048  20.727  0.00  0.00    +0.000 NA
ATOM      7  C   UNL     1      -5.346  13.153  20.463  0.00  0.00    +0.000 A 
ATOM      8  C   UNL     1      -4.739  13.967  21.433  0.00  0.00    +0.000 A 
ATOM      9  C   UNL     1      -3.440  14.508  21.895  0.00  0.00    +0.000 C 
ATOM     10  H   UNL     1      -7.812  13.838  22.244  0.00  0.00    +0.000 HD
ENDROOT
BRANCH   1  15
ATOM     11  C   UNL     1      -0.342  17.698  26.936  0.00  0.00    +0.000 C 
ATOM     12  C   UNL     1      -1.239  17.038  25.932  0.00  0.00    +0.000 A 
ATOM     13  C   UNL     1      -1.704  17.739  24.819  0.00  0.00    +0.000 A 
ATOM     14  C   UNL     1      -2.539  17.118  23.887  0.00  0.00    +0.000 A 
ATOM     15  C   UNL     1      -2.954  15.792  24.058  0.00  0.00    +0.000 A 
ATOM     16  C   UNL     1      -2.482  15.092  25.177  0.00  0.00    +0.000 A 
ATOM     17  C   UNL     1      -1.624  15.704  26.098  0.00  0.00    +0.000 A 
ENDBRANCH   1  15
BRANCH   7  18
ATOM     18  C   UNL     1      -4.742  12.459  19.327  0.00  0.00    +0.000 A 
ATOM     19  C   UNL     1      -3.394  12.075  19.342  0.00  0.00    +0.000 A 
ATOM     20  C   UNL     1      -2.824  11.438  18.236  0.00  0.00    +0.000 A 
ATOM     21  C   UNL     1      -3.601  11.178  17.109  0.00  0.00    +0.000 A 
ATOM     22 BR   UNL     1      -2.819  10.347  15.603  0.00  0.00    +0.000 Br
ATOM     23  C   UNL     1      -4.945  11.538  17.081  0.00  0.00    +0.000 A 
ATOM     24  C   UNL     1      -5.512  12.177  18.187  0.00  0.00    +0.000 A 
ENDBRANCH   7  18
BRANCH   9  25
ATOM     25  C   UNL     1      -2.457  13.430  22.205  0.00  0.00    +0.000 A 
ATOM     26  C   UNL     1      -1.126  13.232  21.890  0.00  0.00    +0.000 A 
ATOM     27  C   UNL     1      -0.768  11.975  22.429  0.00  0.00    +0.000 A 
ATOM     28  C   UNL     1      -1.895  11.489  23.048  0.00  0.00    +0.000 A 
ATOM     29  O   UNL     1      -2.926  12.364  22.921  0.00  0.00    +0.000 OA
ENDBRANCH   9  25
TORSDOF 3
ENDMDL
MODEL 8
REMARK VINA RESULT:      -6.0      4.078      7.331
REMARK  Name = 
REMARK  4 active torsions:
REMARK  status: ('A' for Active; 'I' for Inactive)
REMARK    1  A    between atoms: C_1  and  C_2
REMARK    2  A    between atoms: C_5  and  N_6
REMARK    3  A    between atoms: C_12  and  C_13
REMARK    4  A    between atoms: C_21  and  C_22
REMARK                            x       y       z     vdW  Elec       q    Type
REMARK                         _______ _______ _______ _____ _____    ______ ____
ROOT
ATOM      1  N   UNL     1      -3.453  14.533  22.570  0.00  0.00    +0.000 N 
ATOM      2  C   UNL     1      -4.654  14.016  23.107  0.00  0.00    +0.000 C 
ATOM      3  O   UNL     1      -5.187  14.209  24.185  0.00  0.00    +0.000 OA
ATOM      4  C   UNL     1      -5.155  13.184  22.080  0.00  0.00    +0.000 A 
ATOM      5  N   UNL     1      -6.186  12.356  21.864  0.00  0.00    +0.000 N 
ATOM      6  N   UNL     1      -6.081  11.746  20.659  0.00  0.00    +0.000 NA
ATOM      7  C   UNL     1      -4.943  12.233  20.104  0.00  0.00    +0.000 A 
ATOM      8  C   UNL     1      -4.354  13.157  20.981  0.00  0.00    +0.000 A 
ATOM      9  C   UNL     1      -3.176  14.033  21.178  0.00  0.00    +0.000 C 
ATOM     10  H   UNL     1      -6.971  12.134  22.470  0.00  0.00    +0.000 HD
ENDROOT
BRANCH   1  15
ATOM     11  C   UNL     1       0.505  17.658  25.329  0.00  0.00    +0.000 C 
ATOM     12  C   UNL     1      -0.551  16.856  24.628  0.00  0.00    +0.000 A 
ATOM     13  C   UNL     1      -0.950  15.613  25.122  0.00  0.00    +0.000 A 
ATOM     14  C   UNL     1      -1.935  14.871  24.465  0.00  0.00    +0.000 A 
ATOM     15  C   UNL     1      -2.523  15.338  23.284  0.00  0.00    +0.000 A 
ATOM     16  C   UNL     1      -2.120  16.587  22.794  0.00  0.00    +0.000 A 
ATOM     17  C   UNL     1      -1.153  17.344  23.465  0.00  0.00    +0.000 A 
ENDBRANCH   1  15
BRANCH   7  18
ATOM     18  C   UNL     1      -4.482  11.773  18.796  0.00  0.00    +0.000 A 
ATOM     19  C   UNL     1      -5.285  11.904  17.654  0.00  0.00    +0.000 A 
ATOM     20  C   UNL     1      -4.841  11.432  16.415  0.00  0.00    +0.000 A 
ATOM     21  C   UNL     1      -3.590  10.828  16.310  0.00  0.00    +0.000 A 
ATOM     22 BR   UNL     1      -3.008  10.161  14.641  0.00  0.00    +0.000 Br
ATOM     23  C   UNL     1      -2.772  10.702  17.430  0.00  0.00    +0.000 A 
ATOM     24  C   UNL     1      -3.219  11.172  18.668  0.00  0.00    +0.000 A 
ENDBRANCH   7  18
BRANCH   9  25
ATOM     25  C   UNL     1      -1.894  13.271  21.141  0.00  0.00    +0.000 A 
ATOM     26  C   UNL     1      -0.705  13.435  20.456  0.00  0.00    +0.000 A 
ATOM     27  C   UNL     1       0.115  12.337  20.804  0.00  0.00    +0.000 A 
ATOM     28  C   UNL     1      -0.617  11.578  21.687  0.00  0.00    +0.000 A 
ATOM     29  O   UNL     1      -1.837  12.136  21.901  0.00  0.00    +0.000 OA
ENDBRANCH   9  25
TORSDOF 3
ENDMDL
MODEL 9
REMARK VINA RESULT:      -5.9      4.356      7.832
REMARK  Name = 
REMARK  4 active torsions:
REMARK  status: ('A' for Active; 'I' for Inactive)
REMARK    1  A    between atoms: C_1  and  C_2
REMARK    2  A    between atoms: C_5  and  N_6
REMARK    3  A    between atoms: C_12  and  C_13
REMARK    4  A    between atoms: C_21  and  C_22
REMARK                            x       y       z     vdW  Elec       q    Type
REMARK                         _______ _______ _______ _____ _____    ______ ____
ROOT
ATOM      1  N   UNL     1      -4.387  14.189  22.768  0.00  0.00    +0.000 N 
ATOM      2  C   UNL     1      -5.608  13.608  23.179  0.00  0.00    +0.000 C 
ATOM      3  O   UNL     1      -6.247  13.750  24.207  0.00  0.00    +0.000 OA
ATOM      4  C   UNL     1      -5.975  12.783  22.092  0.00  0.00    +0.000 A 
ATOM      5  N   UNL     1      -6.943  11.918  21.763  0.00  0.00    +0.000 N 
ATOM      6  N   UNL     1      -6.701  11.345  20.560  0.00  0.00    +0.000 NA
ATOM      7  C   UNL     1      -5.540  11.893  20.124  0.00  0.00    +0.000 A 
ATOM      8  C   UNL     1      -5.075  12.819  21.072  0.00  0.00    +0.000 A 
ATOM      9  C   UNL     1      -3.961  13.738  21.397  0.00  0.00    +0.000 C 
ATOM     10  H   UNL     1      -7.771  11.646  22.288  0.00  0.00    +0.000 HD
ENDROOT
BRANCH   1  15
ATOM     11  C   UNL     1      -1.284  17.621  26.179  0.00  0.00    +0.000 C 
ATOM     12  C   UNL     1      -2.066  16.718  25.273  0.00  0.00    +0.000 A 
ATOM     13  C   UNL     1      -2.582  17.190  24.065  0.00  0.00    +0.000 A 
ATOM     14  C   UNL     1      -3.309  16.343  23.224  0.00  0.00    +0.000 A 
ATOM     15  C   UNL     1      -3.564  15.014  23.583  0.00  0.00    +0.000 A 
ATOM     16  C   UNL     1      -3.042  14.545  24.796  0.00  0.00    +0.000 A 
ATOM     17  C   UNL     1      -2.291  15.385  25.626  0.00  0.00    +0.000 A 
ENDBRANCH   1  15
BRANCH   7  18
ATOM     18  C   UNL     1      -4.940  11.487  18.854  0.00  0.00    +0.000 A 
ATOM     19  C   UNL     1      -3.776  10.707  18.817  0.00  0.00    +0.000 A 
ATOM     20  C   UNL     1      -3.198  10.352  17.594  0.00  0.00    +0.000 A 
ATOM     21  C   UNL     1      -3.783  10.773  16.402  0.00  0.00    +0.000 A 
ATOM     22 BR   UNL     1      -2.980  10.319  14.752  0.00  0.00    +0.000 Br
ATOM     23  C   UNL     1      -4.947  11.535  16.419  0.00  0.00    +0.000 A 
ATOM     24  C   UNL     1      -5.521  11.891  17.642  0.00  0.00    +0.000 A 
ENDBRANCH   7  18
BRANCH   9  25
ATOM     25  C   UNL     1      -2.648  13.032  21.463  0.00  0.00    +0.000 A 
ATOM     26  C   UNL     1      -2.137  12.041  22.279  0.00  0.00    +0.000 A 
ATOM     27  C   UNL     1      -0.798  11.838  21.875  0.00  0.00    +0.000 A 
ATOM     28  C   UNL     1      -0.576  12.708  20.833  0.00  0.00    +0.000 A 
ATOM     29  O   UNL     1      -1.693  13.436  20.573  0.00  0.00    +0.000 OA
ENDBRANCH   9  25
TORSDOF 3
ENDMDL
