MODEL 1
REMARK VINA RESULT:      -7.8      0.000      0.000
REMARK  Name = 
REMARK  3 active torsions:
REMARK  status: ('A' for Active; 'I' for Inactive)
REMARK    1  A    between atoms: C_2  and  C_3
REMARK    2  A    between atoms: C_14  and  C_15
REMARK    3  A    between atoms: C_20  and  N_21
REMARK                            x       y       z     vdW  Elec       q    Type
REMARK                         _______ _______ _______ _____ _____    ______ ____
ROOT
ATOM      1  O   UNL     1       8.251   3.960  17.659  0.00  0.00    +0.000 OA
ATOM      2  C   UNL     1       7.373   4.616  17.100  0.00  0.00    +0.000 C 
ATOM      3  N   UNL     1       6.536   5.463  17.789  0.00  0.00    +0.000 N 
ATOM      4  C   UNL     1       6.423   5.667  19.216  0.00  0.00    +0.000 C 
ATOM      5  C   UNL     1       4.888   5.691  19.024  0.00  0.00    +0.000 C 
ATOM      6  C   UNL     1       5.143   5.778  17.511  0.00  0.00    +0.000 C 
ENDROOT
BRANCH   2   7
ATOM      7  C   UNL     1       7.185   4.592  15.660  0.00  0.00    +0.000 A 
ATOM      8  N   UNL     1       7.777   5.399  14.798  0.00  0.00    +0.000 NA
ATOM      9  C   UNL     1       7.398   4.962  13.558  0.00  0.00    +0.000 A 
ATOM     10  C   UNL     1       7.764   5.448  12.300  0.00  0.00    +0.000 A 
ATOM     11  C   UNL     1       7.265   4.802  11.164  0.00  0.00    +0.000 A 
ATOM     12  C   UNL     1       6.407   3.707  11.287  0.00  0.00    +0.000 A 
ATOM     13  C   UNL     1       6.020   3.217  12.540  0.00  0.00    +0.000 A 
ATOM     14  C   UNL     1       6.543   3.873  13.656  0.00  0.00    +0.000 A 
ATOM     15  N   UNL     1       6.410   3.668  15.004  0.00  0.00    +0.000 N 
ATOM     16  H   UNL     1       5.876   2.941  15.461  0.00  0.00    +0.000 HD
ENDBRANCH   2   7
BRANCH   5  17
ATOM     17  C   UNL     1       4.087   4.478  19.642  0.00  0.00    +0.000 A 
ATOM     18  N   UNL     1       4.876   3.390  19.895  0.00  0.00    +0.000 NA
ATOM     19  C   UNL     1       4.298   2.364  20.545  0.00  0.00    +0.000 A 
ATOM     20  C   UNL     1       2.978   2.396  20.926  0.00  0.00    +0.000 A 
ATOM     21  N   UNL     1       2.169   3.446  20.662  0.00  0.00    +0.000 NA
ATOM     22  C   UNL     1       2.709   4.501  19.998  0.00  0.00    +0.000 A 
BRANCH  22  23
ATOM     23  N   UNL     1       1.887   5.583  19.733  0.00  0.00    +0.000 N 
ATOM     24  C   UNL     1       1.737   6.043  18.352  0.00  0.00    +0.000 C 
ATOM     25  C   UNL     1       2.240   7.476  18.182  0.00  0.00    +0.000 C 
ATOM     26  C   UNL     1       1.630   8.409  19.221  0.00  0.00    +0.000 C 
ATOM     27  C   UNL     1       1.911   7.887  20.620  0.00  0.00    +0.000 C 
ATOM     28  C   UNL     1       1.408   6.460  20.794  0.00  0.00    +0.000 C 
ENDBRANCH  22  23
ENDBRANCH   5  17
TORSDOF 3
ENDMDL
MODEL 2
REMARK VINA RESULT:      -7.5      8.405     11.975
REMARK  Name = 
REMARK  3 active torsions:
REMARK  status: ('A' for Active; 'I' for Inactive)
REMARK    1  A    between atoms: C_2  and  C_3
REMARK    2  A    between atoms: C_14  and  C_15
REMARK    3  A    between atoms: C_20  and  N_21
REMARK                            x       y       z     vdW  Elec       q    Type
REMARK                         _______ _______ _______ _____ _____    ______ ____
ROOT
ATOM      1  O   UNL     1      -2.872   9.526  17.384  0.00  0.00    +0.000 OA
ATOM      2  C   UNL     1      -2.926  10.688  17.784  0.00  0.00    +0.000 C 
ATOM      3  N   UNL     1      -1.804  11.395  18.147  0.00  0.00    +0.000 N 
ATOM      4  C   UNL     1      -0.436  10.937  18.253  0.00  0.00    +0.000 C 
ATOM      5  C   UNL     1      -0.332  11.758  19.561  0.00  0.00    +0.000 C 
ATOM      6  C   UNL     1      -1.672  12.409  19.183  0.00  0.00    +0.000 C 
ENDROOT
BRANCH   2   7
ATOM      7  C   UNL     1      -4.174  11.428  17.850  0.00  0.00    +0.000 A 
ATOM      8  N   UNL     1      -4.928  11.564  18.927  0.00  0.00    +0.000 NA
ATOM      9  C   UNL     1      -5.938  12.414  18.570  0.00  0.00    +0.000 A 
ATOM     10  C   UNL     1      -6.991  12.909  19.344  0.00  0.00    +0.000 A 
ATOM     11  C   UNL     1      -7.889  13.805  18.754  0.00  0.00    +0.000 A 
ATOM     12  C   UNL     1      -7.745  14.181  17.417  0.00  0.00    +0.000 A 
ATOM     13  C   UNL     1      -6.704  13.682  16.624  0.00  0.00    +0.000 A 
ATOM     14  C   UNL     1      -5.816  12.801  17.242  0.00  0.00    +0.000 A 
ATOM     15  N   UNL     1      -4.696  12.147  16.802  0.00  0.00    +0.000 N 
ATOM     16  H   UNL     1      -4.278  12.202  15.883  0.00  0.00    +0.000 HD
ENDBRANCH   2   7
BRANCH   5  17
ATOM     17  C   UNL     1      -0.183  10.928  20.897  0.00  0.00    +0.000 A 
ATOM     18  N   UNL     1       0.587   9.808  20.748  0.00  0.00    +0.000 NA
ATOM     19  C   UNL     1       0.873   9.119  21.867  0.00  0.00    +0.000 A 
ATOM     20  C   UNL     1       0.408   9.510  23.100  0.00  0.00    +0.000 A 
ATOM     21  N   UNL     1      -0.378  10.596  23.270  0.00  0.00    +0.000 NA
ATOM     22  C   UNL     1      -0.701  11.315  22.165  0.00  0.00    +0.000 A 
BRANCH  22  23
ATOM     23  N   UNL     1      -1.499  12.434  22.335  0.00  0.00    +0.000 N 
ATOM     24  C   UNL     1      -0.867  13.723  22.619  0.00  0.00    +0.000 C 
ATOM     25  C   UNL     1      -1.294  14.267  23.982  0.00  0.00    +0.000 C 
ATOM     26  C   UNL     1      -2.811  14.269  24.132  0.00  0.00    +0.000 C 
ATOM     27  C   UNL     1      -3.359  12.871  23.898  0.00  0.00    +0.000 C 
ATOM     28  C   UNL     1      -2.938  12.327  22.539  0.00  0.00    +0.000 C 
ENDBRANCH  22  23
ENDBRANCH   5  17
TORSDOF 3
ENDMDL
MODEL 3
REMARK VINA RESULT:      -7.5      1.232      2.193
REMARK  Name = 
REMARK  3 active torsions:
REMARK  status: ('A' for Active; 'I' for Inactive)
REMARK    1  A    between atoms: C_2  and  C_3
REMARK    2  A    between atoms: C_14  and  C_15
REMARK    3  A    between atoms: C_20  and  N_21
REMARK                            x       y       z     vdW  Elec       q    Type
REMARK                         _______ _______ _______ _____ _____    ______ ____
ROOT
ATOM      1  O   UNL     1       7.253   4.066  18.205  0.00  0.00    +0.000 OA
ATOM      2  C   UNL     1       6.687   4.788  17.385  0.00  0.00    +0.000 C 
ATOM      3  N   UNL     1       5.994   5.917  17.754  0.00  0.00    +0.000 N 
ATOM      4  C   UNL     1       5.689   6.404  19.081  0.00  0.00    +0.000 C 
ATOM      5  C   UNL     1       4.272   6.742  18.561  0.00  0.00    +0.000 C 
ATOM      6  C   UNL     1       4.801   6.484  17.141  0.00  0.00    +0.000 C 
ENDROOT
BRANCH   2   7
ATOM      7  C   UNL     1       6.755   4.540  15.956  0.00  0.00    +0.000 A 
ATOM      8  N   UNL     1       6.013   3.670  15.293  0.00  0.00    +0.000 NA
ATOM      9  C   UNL     1       6.329   3.840  13.974  0.00  0.00    +0.000 A 
ATOM     10  C   UNL     1       5.811   3.189  12.851  0.00  0.00    +0.000 A 
ATOM     11  C   UNL     1       6.277   3.566  11.587  0.00  0.00    +0.000 A 
ATOM     12  C   UNL     1       7.251   4.558  11.454  0.00  0.00    +0.000 A 
ATOM     13  C   UNL     1       7.790   5.209  12.570  0.00  0.00    +0.000 A 
ATOM     14  C   UNL     1       7.298   4.822  13.817  0.00  0.00    +0.000 A 
ATOM     15  N   UNL     1       7.564   5.240  15.094  0.00  0.00    +0.000 N 
ATOM     16  H   UNL     1       8.206   5.968  15.377  0.00  0.00    +0.000 HD
ENDBRANCH   2   7
BRANCH   5  17
ATOM     17  C   UNL     1       3.087   5.880  19.152  0.00  0.00    +0.000 A 
ATOM     18  N   UNL     1       3.231   4.540  18.916  0.00  0.00    +0.000 NA
ATOM     19  C   UNL     1       2.335   3.725  19.501  0.00  0.00    +0.000 A 
ATOM     20  C   UNL     1       1.316   4.210  20.287  0.00  0.00    +0.000 A 
ATOM     21  N   UNL     1       1.135   5.530  20.511  0.00  0.00    +0.000 NA
ATOM     22  C   UNL     1       2.011   6.390  19.930  0.00  0.00    +0.000 A 
BRANCH  22  23
ATOM     23  N   UNL     1       1.834   7.744  20.165  0.00  0.00    +0.000 N 
ATOM     24  C   UNL     1       1.346   8.183  21.473  0.00  0.00    +0.000 C 
ATOM     25  C   UNL     1       0.003   8.902  21.355  0.00  0.00    +0.000 C 
ATOM     26  C   UNL     1       0.050  10.005  20.303  0.00  0.00    +0.000 C 
ATOM     27  C   UNL     1       0.490   9.431  18.966  0.00  0.00    +0.000 C 
ATOM     28  C   UNL     1       1.829   8.716  19.079  0.00  0.00    +0.000 C 
ENDBRANCH  22  23
ENDBRANCH   5  17
TORSDOF 3
ENDMDL
MODEL 4
REMARK VINA RESULT:      -7.4      8.274     11.952
REMARK  Name = 
REMARK  3 active torsions:
REMARK  status: ('A' for Active; 'I' for Inactive)
REMARK    1  A    between atoms: C_2  and  C_3
REMARK    2  A    between atoms: C_14  and  C_15
REMARK    3  A    between atoms: C_20  and  N_21
REMARK                            x       y       z     vdW  Elec       q    Type
REMARK                         _______ _______ _______ _____ _____    ______ ____
ROOT
ATOM      1  O   UNL     1      -3.342   9.303  17.634  0.00  0.00    +0.000 OA
ATOM      2  C   UNL     1      -3.181  10.492  17.904  0.00  0.00    +0.000 C 
ATOM      3  N   UNL     1      -1.937  11.039  18.113  0.00  0.00    +0.000 N 
ATOM      4  C   UNL     1      -0.653  10.377  18.180  0.00  0.00    +0.000 C 
ATOM      5  C   UNL     1      -0.315  11.297  19.378  0.00  0.00    +0.000 C 
ATOM      6  C   UNL     1      -1.564  12.116  19.017  0.00  0.00    +0.000 C 
ENDROOT
BRANCH   2   7
ATOM      7  C   UNL     1      -4.290  11.429  17.968  0.00  0.00    +0.000 A 
ATOM      8  N   UNL     1      -4.923  11.938  16.926  0.00  0.00    +0.000 NA
ATOM      9  C   UNL     1      -5.951  12.679  17.441  0.00  0.00    +0.000 A 
ATOM     10  C   UNL     1      -6.940  13.403  16.770  0.00  0.00    +0.000 A 
ATOM     11  C   UNL     1      -7.916  14.059  17.527  0.00  0.00    +0.000 A 
ATOM     12  C   UNL     1      -7.890  14.005  18.922  0.00  0.00    +0.000 A 
ATOM     13  C   UNL     1      -6.898  13.296  19.610  0.00  0.00    +0.000 A 
ATOM     14  C   UNL     1      -5.945  12.641  18.829  0.00  0.00    +0.000 A 
ATOM     15  N   UNL     1      -4.868  11.853  19.140  0.00  0.00    +0.000 N 
ATOM     16  H   UNL     1      -4.559  11.578  20.062  0.00  0.00    +0.000 HD
ENDBRANCH   2   7
BRANCH   5  17
ATOM     17  C   UNL     1      -0.188  10.592  20.786  0.00  0.00    +0.000 A 
ATOM     18  N   UNL     1       0.515   9.420  20.736  0.00  0.00    +0.000 NA
ATOM     19  C   UNL     1       0.784   8.827  21.912  0.00  0.00    +0.000 A 
ATOM     20  C   UNL     1       0.364   9.361  23.108  0.00  0.00    +0.000 A 
ATOM     21  N   UNL     1      -0.357  10.502  23.183  0.00  0.00    +0.000 NA
ATOM     22  C   UNL     1      -0.660  11.128  22.017  0.00  0.00    +0.000 A 
BRANCH  22  23
ATOM     23  N   UNL     1      -1.390  12.303  22.089  0.00  0.00    +0.000 N 
ATOM     24  C   UNL     1      -0.686  13.568  22.298  0.00  0.00    +0.000 C 
ATOM     25  C   UNL     1      -1.108  14.232  23.608  0.00  0.00    +0.000 C 
ATOM     26  C   UNL     1      -2.625  14.335  23.719  0.00  0.00    +0.000 C 
ATOM     27  C   UNL     1      -3.253  12.960  23.569  0.00  0.00    +0.000 C 
ATOM     28  C   UNL     1      -2.837  12.297  22.263  0.00  0.00    +0.000 C 
ENDBRANCH  22  23
ENDBRANCH   5  17
TORSDOF 3
ENDMDL
MODEL 5
REMARK VINA RESULT:      -7.3      7.605     11.169
REMARK  Name = 
REMARK  3 active torsions:
REMARK  status: ('A' for Active; 'I' for Inactive)
REMARK    1  A    between atoms: C_2  and  C_3
REMARK    2  A    between atoms: C_14  and  C_15
REMARK    3  A    between atoms: C_20  and  N_21
REMARK                            x       y       z     vdW  Elec       q    Type
REMARK                         _______ _______ _______ _____ _____    ______ ____
ROOT
ATOM      1  O   UNL     1       0.251  13.220  21.864  0.00  0.00    +0.000 OA
ATOM      2  C   UNL     1      -0.345  12.603  20.982  0.00  0.00    +0.000 C 
ATOM      3  N   UNL     1      -1.528  13.049  20.442  0.00  0.00    +0.000 N 
ATOM      4  C   UNL     1      -2.338  14.180  20.836  0.00  0.00    +0.000 C 
ATOM      5  C   UNL     1      -3.579  13.276  20.638  0.00  0.00    +0.000 C 
ATOM      6  C   UNL     1      -2.650  12.261  19.953  0.00  0.00    +0.000 C 
ENDROOT
BRANCH   2   7
ATOM      7  C   UNL     1       0.183  11.382  20.398  0.00  0.00    +0.000 A 
ATOM      8  N   UNL     1       0.541  11.229  19.136  0.00  0.00    +0.000 NA
ATOM      9  C   UNL     1       1.073   9.972  19.049  0.00  0.00    +0.000 A 
ATOM     10  C   UNL     1       1.627   9.322  17.943  0.00  0.00    +0.000 A 
ATOM     11  C   UNL     1       2.143   8.033  18.116  0.00  0.00    +0.000 A 
ATOM     12  C   UNL     1       2.089   7.406  19.363  0.00  0.00    +0.000 A 
ATOM     13  C   UNL     1       1.524   8.038  20.477  0.00  0.00    +0.000 A 
ATOM     14  C   UNL     1       1.029   9.328  20.278  0.00  0.00    +0.000 A 
ATOM     15  N   UNL     1       0.443  10.240  21.116  0.00  0.00    +0.000 N 
ATOM     16  H   UNL     1       0.263  10.132  22.105  0.00  0.00    +0.000 HD
ENDBRANCH   2   7
BRANCH   5  17
ATOM     17  C   UNL     1      -4.378  12.889  21.945  0.00  0.00    +0.000 A 
ATOM     18  N   UNL     1      -3.608  12.931  23.074  0.00  0.00    +0.000 NA
ATOM     19  C   UNL     1      -4.244  12.745  24.245  0.00  0.00    +0.000 A 
ATOM     20  C   UNL     1      -5.597  12.512  24.308  0.00  0.00    +0.000 A 
ATOM     21  N   UNL     1      -6.375  12.436  23.205  0.00  0.00    +0.000 NA
ATOM     22  C   UNL     1      -5.771  12.607  22.001  0.00  0.00    +0.000 A 
BRANCH  22  23
ATOM     23  N   UNL     1      -6.566  12.539  20.868  0.00  0.00    +0.000 N 
ATOM     24  C   UNL     1      -6.906  11.229  20.313  0.00  0.00    +0.000 C 
ATOM     25  C   UNL     1      -6.359  11.064  18.895  0.00  0.00    +0.000 C 
ATOM     26  C   UNL     1      -6.749  12.239  18.006  0.00  0.00    +0.000 C 
ATOM     27  C   UNL     1      -6.282  13.543  18.631  0.00  0.00    +0.000 C 
ATOM     28  C   UNL     1      -6.827  13.712  20.043  0.00  0.00    +0.000 C 
ENDBRANCH  22  23
ENDBRANCH   5  17
TORSDOF 3
ENDMDL
MODEL 6
REMARK VINA RESULT:      -7.3      1.199      1.865
REMARK  Name = 
REMARK  3 active torsions:
REMARK  status: ('A' for Active; 'I' for Inactive)
REMARK    1  A    between atoms: C_2  and  C_3
REMARK    2  A    between atoms: C_14  and  C_15
REMARK    3  A    between atoms: C_20  and  N_21
REMARK                            x       y       z     vdW  Elec       q    Type
REMARK                         _______ _______ _______ _____ _____    ______ ____
ROOT
ATOM      1  O   UNL     1       7.215   4.009  18.062  0.00  0.00    +0.000 OA
ATOM      2  C   UNL     1       6.650   4.813  17.322  0.00  0.00    +0.000 C 
ATOM      3  N   UNL     1       6.005   5.928  17.804  0.00  0.00    +0.000 N 
ATOM      4  C   UNL     1       5.756   6.314  19.175  0.00  0.00    +0.000 C 
ATOM      5  C   UNL     1       4.335   6.735  18.729  0.00  0.00    +0.000 C 
ATOM      6  C   UNL     1       4.814   6.579  17.277  0.00  0.00    +0.000 C 
ENDROOT
BRANCH   2   7
ATOM      7  C   UNL     1       6.667   4.682  15.876  0.00  0.00    +0.000 A 
ATOM      8  N   UNL     1       7.466   5.342  15.056  0.00  0.00    +0.000 NA
ATOM      9  C   UNL     1       7.219   4.838  13.809  0.00  0.00    +0.000 A 
ATOM     10  C   UNL     1       7.814   5.169  12.589  0.00  0.00    +0.000 A 
ATOM     11  C   UNL     1       7.410   4.481  11.441  0.00  0.00    +0.000 A 
ATOM     12  C   UNL     1       6.421   3.497  11.512  0.00  0.00    +0.000 A 
ATOM     13  C   UNL     1       5.805   3.164  12.723  0.00  0.00    +0.000 A 
ATOM     14  C   UNL     1       6.236   3.858  13.855  0.00  0.00    +0.000 A 
ATOM     15  N   UNL     1       5.890   3.789  15.178  0.00  0.00    +0.000 N 
ATOM     16  H   UNL     1       5.215   3.166  15.601  0.00  0.00    +0.000 HD
ENDBRANCH   2   7
BRANCH   5  17
ATOM     17  C   UNL     1       3.140   5.864  19.286  0.00  0.00    +0.000 A 
ATOM     18  N   UNL     1       3.314   4.524  19.078  0.00  0.00    +0.000 NA
ATOM     19  C   UNL     1       2.408   3.703  19.639  0.00  0.00    +0.000 A 
ATOM     20  C   UNL     1       1.351   4.183  20.376  0.00  0.00    +0.000 A 
ATOM     21  N   UNL     1       1.141   5.504  20.571  0.00  0.00    +0.000 NA
ATOM     22  C   UNL     1       2.026   6.369  20.013  0.00  0.00    +0.000 A 
BRANCH  22  23
ATOM     23  N   UNL     1       1.820   7.723  20.219  0.00  0.00    +0.000 N 
ATOM     24  C   UNL     1       1.297   8.176  21.508  0.00  0.00    +0.000 C 
ATOM     25  C   UNL     1      -0.057   8.868  21.349  0.00  0.00    +0.000 C 
ATOM     26  C   UNL     1      -0.008   9.952  20.278  0.00  0.00    +0.000 C 
ATOM     27  C   UNL     1       0.470   9.363  18.961  0.00  0.00    +0.000 C 
ATOM     28  C   UNL     1       1.820   8.676  19.116  0.00  0.00    +0.000 C 
ENDBRANCH  22  23
ENDBRANCH   5  17
TORSDOF 3
ENDMDL
MODEL 7
REMARK VINA RESULT:      -7.2      7.543     11.088
REMARK  Name = 
REMARK  3 active torsions:
REMARK  status: ('A' for Active; 'I' for Inactive)
REMARK    1  A    between atoms: C_2  and  C_3
REMARK    2  A    between atoms: C_14  and  C_15
REMARK    3  A    between atoms: C_20  and  N_21
REMARK                            x       y       z     vdW  Elec       q    Type
REMARK                         _______ _______ _______ _____ _____    ______ ____
ROOT
ATOM      1  O   UNL     1       0.407  13.557  21.521  0.00  0.00    +0.000 OA
ATOM      2  C   UNL     1      -0.147  12.774  20.750  0.00  0.00    +0.000 C 
ATOM      3  N   UNL     1      -1.388  13.023  20.213  0.00  0.00    +0.000 N 
ATOM      4  C   UNL     1      -2.302  14.106  20.501  0.00  0.00    +0.000 C 
ATOM      5  C   UNL     1      -3.444  13.062  20.473  0.00  0.00    +0.000 C 
ATOM      6  C   UNL     1      -2.434  12.069  19.877  0.00  0.00    +0.000 C 
ENDROOT
BRANCH   2   7
ATOM      7  C   UNL     1       0.491  11.549  20.298  0.00  0.00    +0.000 A 
ATOM      8  N   UNL     1       0.674  10.466  21.032  0.00  0.00    +0.000 NA
ATOM      9  C   UNL     1       1.208   9.531  20.189  0.00  0.00    +0.000 A 
ATOM     10  C   UNL     1       1.564   8.205  20.452  0.00  0.00    +0.000 A 
ATOM     11  C   UNL     1       2.065   7.428  19.402  0.00  0.00    +0.000 A 
ATOM     12  C   UNL     1       2.221   7.972  18.125  0.00  0.00    +0.000 A 
ATOM     13  C   UNL     1       1.883   9.302  17.849  0.00  0.00    +0.000 A 
ATOM     14  C   UNL     1       1.374  10.050  18.912  0.00  0.00    +0.000 A 
ATOM     15  N   UNL     1       0.926  11.341  19.012  0.00  0.00    +0.000 N 
ATOM     16  H   UNL     1       0.871  12.028  18.272  0.00  0.00    +0.000 HD
ENDBRANCH   2   7
BRANCH   5  17
ATOM     17  C   UNL     1      -4.154  12.764  21.853  0.00  0.00    +0.000 A 
ATOM     18  N   UNL     1      -3.287  12.761  22.910  0.00  0.00    +0.000 NA
ATOM     19  C   UNL     1      -3.830  12.648  24.135  0.00  0.00    +0.000 A 
ATOM     20  C   UNL     1      -5.188  12.530  24.321  0.00  0.00    +0.000 A 
ATOM     21  N   UNL     1      -6.062  12.501  23.291  0.00  0.00    +0.000 NA
ATOM     22  C   UNL     1      -5.555  12.601  22.035  0.00  0.00    +0.000 A 
BRANCH  22  23
ATOM     23  N   UNL     1      -6.449  12.582  20.977  0.00  0.00    +0.000 N 
ATOM     24  C   UNL     1      -6.700  11.321  20.279  0.00  0.00    +0.000 C 
ATOM     25  C   UNL     1      -6.286  11.403  18.810  0.00  0.00    +0.000 C 
ATOM     26  C   UNL     1      -6.890  12.626  18.128  0.00  0.00    +0.000 C 
ATOM     27  C   UNL     1      -6.505  13.887  18.883  0.00  0.00    +0.000 C 
ATOM     28  C   UNL     1      -6.918  13.809  20.347  0.00  0.00    +0.000 C 
ENDBRANCH  22  23
ENDBRANCH   5  17
TORSDOF 3
ENDMDL
MODEL 8
REMARK VINA RESULT:      -7.2      0.158      1.126
REMARK  Name = 
REMARK  3 active torsions:
REMARK  status: ('A' for Active; 'I' for Inactive)
REMARK    1  A    between atoms: C_2  and  C_3
REMARK    2  A    between atoms: C_14  and  C_15
REMARK    3  A    between atoms: C_20  and  N_21
REMARK                            x       y       z     vdW  Elec       q    Type
REMARK                         _______ _______ _______ _____ _____    ______ ____
ROOT
ATOM      1  O   UNL     1       8.244   4.018  17.745  0.00  0.00    +0.000 OA
ATOM      2  C   UNL     1       7.366   4.605  17.114  0.00  0.00    +0.000 C 
ATOM      3  N   UNL     1       6.488   5.478  17.712  0.00  0.00    +0.000 N 
ATOM      4  C   UNL     1       6.327   5.786  19.116  0.00  0.00    +0.000 C 
ATOM      5  C   UNL     1       4.798   5.753  18.880  0.00  0.00    +0.000 C 
ATOM      6  C   UNL     1       5.096   5.732  17.373  0.00  0.00    +0.000 C 
ENDROOT
BRANCH   2   7
ATOM      7  C   UNL     1       7.222   4.468  15.675  0.00  0.00    +0.000 A 
ATOM      8  N   UNL     1       6.400   3.633  15.064  0.00  0.00    +0.000 NA
ATOM      9  C   UNL     1       6.514   3.909  13.729  0.00  0.00    +0.000 A 
ATOM     10  C   UNL     1       5.841   3.333  12.648  0.00  0.00    +0.000 A 
ATOM     11  C   UNL     1       6.108   3.816  11.363  0.00  0.00    +0.000 A 
ATOM     12  C   UNL     1       7.038   4.839  11.165  0.00  0.00    +0.000 A 
ATOM     13  C   UNL     1       7.730   5.417  12.236  0.00  0.00    +0.000 A 
ATOM     14  C   UNL     1       7.435   4.924  13.508  0.00  0.00    +0.000 A 
ATOM     15  N   UNL     1       7.884   5.250  14.761  0.00  0.00    +0.000 N 
ATOM     16  H   UNL     1       8.552   5.971  15.001  0.00  0.00    +0.000 HD
ENDBRANCH   2   7
BRANCH   5  17
ATOM     17  C   UNL     1       4.011   4.567  19.566  0.00  0.00    +0.000 A 
ATOM     18  N   UNL     1       4.795   3.473  19.807  0.00  0.00    +0.000 NA
ATOM     19  C   UNL     1       4.236   2.472  20.509  0.00  0.00    +0.000 A 
ATOM     20  C   UNL     1       2.936   2.534  20.955  0.00  0.00    +0.000 A 
ATOM     21  N   UNL     1       2.131   3.591  20.704  0.00  0.00    +0.000 NA
ATOM     22  C   UNL     1       2.653   4.620  19.989  0.00  0.00    +0.000 A 
BRANCH  22  23
ATOM     23  N   UNL     1       1.835   5.710  19.738  0.00  0.00    +0.000 N 
ATOM     24  C   UNL     1       1.713   6.209  18.368  0.00  0.00    +0.000 C 
ATOM     25  C   UNL     1       2.218   7.647  18.250  0.00  0.00    +0.000 C 
ATOM     26  C   UNL     1       1.584   8.549  19.303  0.00  0.00    +0.000 C 
ATOM     27  C   UNL     1       1.836   7.986  20.692  0.00  0.00    +0.000 C 
ATOM     28  C   UNL     1       1.332   6.555  20.814  0.00  0.00    +0.000 C 
ENDBRANCH  22  23
ENDBRANCH   5  17
TORSDOF 3
ENDMDL
MODEL 9
REMARK VINA RESULT:      -7.1      4.568      7.301
REMARK  Name = 
REMARK  3 active torsions:
REMARK  status: ('A' for Active; 'I' for Inactive)
REMARK    1  A    between atoms: C_2  and  C_3
REMARK    2  A    between atoms: C_14  and  C_15
REMARK    3  A    between atoms: C_20  and  N_21
REMARK                            x       y       z     vdW  Elec       q    Type
REMARK                         _______ _______ _______ _____ _____    ______ ____
ROOT
ATOM      1  O   UNL     1       1.077   7.390  20.770  0.00  0.00    +0.000 OA
ATOM      2  C   UNL     1       1.649   7.932  19.825  0.00  0.00    +0.000 C 
ATOM      3  N   UNL     1       1.621   9.293  19.630  0.00  0.00    +0.000 N 
ATOM      4  C   UNL     1       0.876  10.300  20.352  0.00  0.00    +0.000 C 
ATOM      5  C   UNL     1       0.569  10.959  18.986  0.00  0.00    +0.000 C 
ATOM      6  C   UNL     1       1.623  10.025  18.372  0.00  0.00    +0.000 C 
ENDROOT
BRANCH   2   7
ATOM      7  C   UNL     1       2.451   7.185  18.872  0.00  0.00    +0.000 A 
ATOM      8  N   UNL     1       3.351   7.703  18.055  0.00  0.00    +0.000 NA
ATOM      9  C   UNL     1       3.932   6.641  17.419  0.00  0.00    +0.000 A 
ATOM     10  C   UNL     1       4.962   6.633  16.475  0.00  0.00    +0.000 A 
ATOM     11  C   UNL     1       5.413   5.400  15.990  0.00  0.00    +0.000 A 
ATOM     12  C   UNL     1       4.834   4.208  16.429  0.00  0.00    +0.000 A 
ATOM     13  C   UNL     1       3.791   4.200  17.363  0.00  0.00    +0.000 A 
ATOM     14  C   UNL     1       3.370   5.442  17.838  0.00  0.00    +0.000 A 
ATOM     15  N   UNL     1       2.419   5.817  18.750  0.00  0.00    +0.000 N 
ATOM     16  H   UNL     1       1.816   5.209  19.288  0.00  0.00    +0.000 HD
ENDBRANCH   2   7
BRANCH   5  17
ATOM     17  C   UNL     1      -0.936  10.908  18.508  0.00  0.00    +0.000 A 
ATOM     18  N   UNL     1      -1.164   9.945  17.564  0.00  0.00    +0.000 NA
ATOM     19  C   UNL     1      -2.444   9.747  17.201  0.00  0.00    +0.000 A 
ATOM     20  C   UNL     1      -3.475  10.481  17.741  0.00  0.00    +0.000 A 
ATOM     21  N   UNL     1      -3.272  11.457  18.653  0.00  0.00    +0.000 NA
ATOM     22  C   UNL     1      -1.993  11.698  19.039  0.00  0.00    +0.000 A 
BRANCH  22  23
ATOM     23  N   UNL     1      -1.782  12.692  19.981  0.00  0.00    +0.000 N 
ATOM     24  C   UNL     1      -0.994  13.868  19.611  0.00  0.00    +0.000 C 
ATOM     25  C   UNL     1       0.270  13.984  20.462  0.00  0.00    +0.000 C 
ATOM     26  C   UNL     1      -0.047  13.886  21.950  0.00  0.00    +0.000 C 
ATOM     27  C   UNL     1      -0.793  12.594  22.240  0.00  0.00    +0.000 C 
ATOM     28  C   UNL     1      -2.055  12.477  21.397  0.00  0.00    +0.000 C 
ENDBRANCH  22  23
ENDBRANCH   5  17
TORSDOF 3
ENDMDL
