MODEL 1
REMARK VINA RESULT:      -6.8      0.000      0.000
REMARK  Name = 
REMARK  6 active torsions:
REMARK  status: ('A' for Active; 'I' for Inactive)
REMARK    1  A    between atoms: C_2  and  C_3
REMARK    2  A    between atoms: N_5  and  C_6
REMARK    3  A    between atoms: C_11  and  S_12
REMARK    4  A    between atoms: S_12  and  N_15
REMARK    5  A    between atoms: N_15  and  C_16
REMARK    6  A    between atoms: N_15  and  C_17
REMARK                            x       y       z     vdW  Elec       q    Type
REMARK                         _______ _______ _______ _____ _____    ______ ____
ROOT
ATOM      1  C   UNL     1       4.983   4.699  15.710  0.00  0.00    +0.000 A 
ATOM      2  C   UNL     1       4.774   6.003  16.157  0.00  0.00    +0.000 A 
ATOM      3  C   UNL     1       4.381   6.255  17.471  0.00  0.00    +0.000 A 
ATOM      4  C   UNL     1       4.157   5.203  18.361  0.00  0.00    +0.000 A 
ATOM      5 CL   UNL     1       3.848   5.678  19.990  0.00  0.00    +0.000 Cl
ATOM      6  C   UNL     1       4.259   3.889  17.898  0.00  0.00    +0.000 A 
ATOM      7  C   UNL     1       4.653   3.639  16.562  0.00  0.00    +0.000 A 
ENDROOT
BRANCH   1  10
ATOM      8  C   UNL     1       6.842   4.753  14.080  0.00  0.00    +0.000 C 
ATOM      9  O   UNL     1       7.669   5.326  14.783  0.00  0.00    +0.000 OA
ATOM     10  N   UNL     1       5.547   4.421  14.442  0.00  0.00    +0.000 N 
ATOM     11  H   UNL     1       5.026   3.805  13.830  0.00  0.00    +0.000 HD
BRANCH   8  13
ATOM     12  C   UNL     1       6.452   3.369  12.114  0.00  0.00    +0.000 C 
ATOM     13  C   UNL     1       7.222   4.286  12.720  0.00  0.00    +0.000 C 
ENDBRANCH   8  13
ENDBRANCH   1  10
BRANCH   6  14
ATOM     14  S   UNL     1       3.813   2.485  18.898  0.00  0.00    +0.000 S 
ATOM     15  O   UNL     1       3.704   1.311  18.064  0.00  0.00    +0.000 OA
ATOM     16  O   UNL     1       4.729   2.477  20.025  0.00  0.00    +0.000 OA
BRANCH  14  17
ATOM     17  N   UNL     1       2.272   2.874  19.495  0.00  0.00    +0.000 NA
ATOM     18  C   UNL     1       1.110   2.545  18.658  0.00  0.00    +0.000 C 
ATOM     19  C   UNL     1       2.026   2.693  20.935  0.00  0.00    +0.000 C 
ENDBRANCH  14  17
ENDBRANCH   6  14
TORSDOF 4
ENDMDL
MODEL 2
REMARK VINA RESULT:      -6.5      1.606      1.832
REMARK  Name = 
REMARK  6 active torsions:
REMARK  status: ('A' for Active; 'I' for Inactive)
REMARK    1  A    between atoms: C_2  and  C_3
REMARK    2  A    between atoms: N_5  and  C_6
REMARK    3  A    between atoms: C_11  and  S_12
REMARK    4  A    between atoms: S_12  and  N_15
REMARK    5  A    between atoms: N_15  and  C_16
REMARK    6  A    between atoms: N_15  and  C_17
REMARK                            x       y       z     vdW  Elec       q    Type
REMARK                         _______ _______ _______ _____ _____    ______ ____
ROOT
ATOM      1  C   UNL     1       5.759   4.215  14.807  0.00  0.00    +0.000 A 
ATOM      2  C   UNL     1       5.640   5.604  14.798  0.00  0.00    +0.000 A 
ATOM      3  C   UNL     1       5.152   6.288  15.910  0.00  0.00    +0.000 A 
ATOM      4  C   UNL     1       4.740   5.594  17.049  0.00  0.00    +0.000 A 
ATOM      5 CL   UNL     1       4.328   6.584  18.399  0.00  0.00    +0.000 Cl
ATOM      6  C   UNL     1       4.755   4.196  17.033  0.00  0.00    +0.000 A 
ATOM      7  C   UNL     1       5.246   3.507  15.899  0.00  0.00    +0.000 A 
ENDROOT
BRANCH   1  10
ATOM      8  C   UNL     1       5.849   3.269  12.524  0.00  0.00    +0.000 C 
ATOM      9  O   UNL     1       4.734   3.618  12.150  0.00  0.00    +0.000 OA
ATOM     10  N   UNL     1       6.411   3.509  13.767  0.00  0.00    +0.000 N 
ATOM     11  H   UNL     1       7.396   3.313  13.889  0.00  0.00    +0.000 HD
BRANCH   8  13
ATOM     12  C   UNL     1       6.451   1.331  11.176  0.00  0.00    +0.000 C 
ATOM     13  C   UNL     1       6.763   2.572  11.579  0.00  0.00    +0.000 C 
ENDBRANCH   8  13
ENDBRANCH   1  10
BRANCH   6  14
ATOM     14  S   UNL     1       4.079   3.219  18.359  0.00  0.00    +0.000 S 
ATOM     15  O   UNL     1       3.688   1.923  17.854  0.00  0.00    +0.000 OA
ATOM     16  O   UNL     1       5.027   3.301  19.455  0.00  0.00    +0.000 OA
BRANCH  14  17
ATOM     17  N   UNL     1       2.682   4.064  18.827  0.00  0.00    +0.000 NA
ATOM     18  C   UNL     1       1.491   3.945  17.975  0.00  0.00    +0.000 C 
ATOM     19  C   UNL     1       2.370   4.134  20.264  0.00  0.00    +0.000 C 
ENDBRANCH  14  17
ENDBRANCH   6  14
TORSDOF 4
ENDMDL
MODEL 3
REMARK VINA RESULT:      -6.5      2.010      2.437
REMARK  Name = 
REMARK  6 active torsions:
REMARK  status: ('A' for Active; 'I' for Inactive)
REMARK    1  A    between atoms: C_2  and  C_3
REMARK    2  A    between atoms: N_5  and  C_6
REMARK    3  A    between atoms: C_11  and  S_12
REMARK    4  A    between atoms: S_12  and  N_15
REMARK    5  A    between atoms: N_15  and  C_16
REMARK    6  A    between atoms: N_15  and  C_17
REMARK                            x       y       z     vdW  Elec       q    Type
REMARK                         _______ _______ _______ _____ _____    ______ ____
ROOT
ATOM      1  C   UNL     1       5.615   4.250  14.971  0.00  0.00    +0.000 A 
ATOM      2  C   UNL     1       6.768   5.031  15.004  0.00  0.00    +0.000 A 
ATOM      3  C   UNL     1       7.315   5.449  16.216  0.00  0.00    +0.000 A 
ATOM      4  C   UNL     1       6.699   5.122  17.426  0.00  0.00    +0.000 A 
ATOM      5 CL   UNL     1       7.585   5.560  18.839  0.00  0.00    +0.000 Cl
ATOM      6  C   UNL     1       5.485   4.429  17.403  0.00  0.00    +0.000 A 
ATOM      7  C   UNL     1       4.933   4.012  16.169  0.00  0.00    +0.000 A 
ENDROOT
BRANCH   1  10
ATOM      8  C   UNL     1       5.890   3.541  12.617  0.00  0.00    +0.000 C 
ATOM      9  O   UNL     1       7.050   3.910  12.462  0.00  0.00    +0.000 OA
ATOM     10  N   UNL     1       5.136   3.666  13.772  0.00  0.00    +0.000 N 
ATOM     11  H   UNL     1       4.254   3.173  13.820  0.00  0.00    +0.000 HD
BRANCH   8  13
ATOM     12  C   UNL     1       3.959   3.233  11.164  0.00  0.00    +0.000 C 
ATOM     13  C   UNL     1       5.187   2.824  11.519  0.00  0.00    +0.000 C 
ENDBRANCH   8  13
ENDBRANCH   1  10
BRANCH   6  14
ATOM     14  S   UNL     1       4.530   4.127  18.875  0.00  0.00    +0.000 S 
ATOM     15  O   UNL     1       5.191   3.131  19.685  0.00  0.00    +0.000 OA
ATOM     16  O   UNL     1       4.232   5.428  19.446  0.00  0.00    +0.000 OA
BRANCH  14  17
ATOM     17  N   UNL     1       3.072   3.477  18.295  0.00  0.00    +0.000 NA
ATOM     18  C   UNL     1       2.830   2.043  18.503  0.00  0.00    +0.000 C 
ATOM     19  C   UNL     1       1.856   4.300  18.416  0.00  0.00    +0.000 C 
ENDBRANCH  14  17
ENDBRANCH   6  14
TORSDOF 4
ENDMDL
MODEL 4
REMARK VINA RESULT:      -6.4      1.795      2.188
REMARK  Name = 
REMARK  6 active torsions:
REMARK  status: ('A' for Active; 'I' for Inactive)
REMARK    1  A    between atoms: C_2  and  C_3
REMARK    2  A    between atoms: N_5  and  C_6
REMARK    3  A    between atoms: C_11  and  S_12
REMARK    4  A    between atoms: S_12  and  N_15
REMARK    5  A    between atoms: N_15  and  C_16
REMARK    6  A    between atoms: N_15  and  C_17
REMARK                            x       y       z     vdW  Elec       q    Type
REMARK                         _______ _______ _______ _____ _____    ______ ____
ROOT
ATOM      1  C   UNL     1       4.238   5.377  16.858  0.00  0.00    +0.000 A 
ATOM      2  C   UNL     1       3.981   6.617  17.440  0.00  0.00    +0.000 A 
ATOM      3  C   UNL     1       3.189   6.721  18.583  0.00  0.00    +0.000 A 
ATOM      4  C   UNL     1       2.609   5.587  19.152  0.00  0.00    +0.000 A 
ATOM      5 CL   UNL     1       1.806   5.853  20.655  0.00  0.00    +0.000 Cl
ATOM      6  C   UNL     1       2.771   4.351  18.520  0.00  0.00    +0.000 A 
ATOM      7  C   UNL     1       3.572   4.253  17.357  0.00  0.00    +0.000 A 
ENDROOT
BRANCH   1  10
ATOM      8  C   UNL     1       6.520   4.952  16.003  0.00  0.00    +0.000 C 
ATOM      9  O   UNL     1       7.085   4.819  17.083  0.00  0.00    +0.000 OA
ATOM     10  N   UNL     1       5.175   5.219  15.808  0.00  0.00    +0.000 N 
ATOM     11  H   UNL     1       4.806   5.140  14.869  0.00  0.00    +0.000 HD
BRANCH   8  13
ATOM     12  C   UNL     1       6.650   4.215  13.684  0.00  0.00    +0.000 C 
ATOM     13  C   UNL     1       7.280   4.756  14.738  0.00  0.00    +0.000 C 
ENDBRANCH   8  13
ENDBRANCH   1  10
BRANCH   6  14
ATOM     14  S   UNL     1       1.923   2.882  19.059  0.00  0.00    +0.000 S 
ATOM     15  O   UNL     1       0.599   3.229  19.520  0.00  0.00    +0.000 OA
ATOM     16  O   UNL     1       2.074   1.906  17.995  0.00  0.00    +0.000 OA
BRANCH  14  17
ATOM     17  N   UNL     1       2.836   2.339  20.384  0.00  0.00    +0.000 NA
ATOM     18  C   UNL     1       4.298   2.320  20.246  0.00  0.00    +0.000 C 
ATOM     19  C   UNL     1       2.379   2.712  21.733  0.00  0.00    +0.000 C 
ENDBRANCH  14  17
ENDBRANCH   6  14
TORSDOF 4
ENDMDL
MODEL 5
REMARK VINA RESULT:      -6.3      2.117      2.504
REMARK  Name = 
REMARK  6 active torsions:
REMARK  status: ('A' for Active; 'I' for Inactive)
REMARK    1  A    between atoms: C_2  and  C_3
REMARK    2  A    between atoms: N_5  and  C_6
REMARK    3  A    between atoms: C_11  and  S_12
REMARK    4  A    between atoms: S_12  and  N_15
REMARK    5  A    between atoms: N_15  and  C_16
REMARK    6  A    between atoms: N_15  and  C_17
REMARK                            x       y       z     vdW  Elec       q    Type
REMARK                         _______ _______ _______ _____ _____    ______ ____
ROOT
ATOM      1  C   UNL     1       5.950   4.017  15.447  0.00  0.00    +0.000 A 
ATOM      2  C   UNL     1       7.191   4.422  15.936  0.00  0.00    +0.000 A 
ATOM      3  C   UNL     1       7.329   4.882  17.244  0.00  0.00    +0.000 A 
ATOM      4  C   UNL     1       6.220   4.978  18.086  0.00  0.00    +0.000 A 
ATOM      5 CL   UNL     1       6.578   5.396  19.721  0.00  0.00    +0.000 Cl
ATOM      6  C   UNL     1       4.954   4.676  17.578  0.00  0.00    +0.000 A 
ATOM      7  C   UNL     1       4.819   4.214  16.247  0.00  0.00    +0.000 A 
ENDROOT
BRANCH   1  10
ATOM      8  C   UNL     1       6.429   3.817  13.029  0.00  0.00    +0.000 C 
ATOM      9  O   UNL     1       7.171   4.788  12.921  0.00  0.00    +0.000 OA
ATOM     10  N   UNL     1       5.808   3.384  14.189  0.00  0.00    +0.000 N 
ATOM     11  H   UNL     1       5.357   2.478  14.176  0.00  0.00    +0.000 HD
BRANCH   8  13
ATOM     12  C   UNL     1       4.917   2.747  11.447  0.00  0.00    +0.000 C 
ATOM     13  C   UNL     1       6.181   2.939  11.854  0.00  0.00    +0.000 C 
ENDBRANCH   8  13
ENDBRANCH   1  10
BRANCH   6  14
ATOM     14  S   UNL     1       3.460   4.944  18.509  0.00  0.00    +0.000 S 
ATOM     15  O   UNL     1       3.476   6.271  19.079  0.00  0.00    +0.000 OA
ATOM     16  O   UNL     1       2.362   4.551  17.645  0.00  0.00    +0.000 OA
BRANCH  14  17
ATOM     17  N   UNL     1       3.550   3.809  19.770  0.00  0.00    +0.000 NA
ATOM     18  C   UNL     1       2.502   3.845  20.799  0.00  0.00    +0.000 C 
ATOM     19  C   UNL     1       4.000   2.447  19.439  0.00  0.00    +0.000 C 
ENDBRANCH  14  17
ENDBRANCH   6  14
TORSDOF 4
ENDMDL
MODEL 6
REMARK VINA RESULT:      -6.3      1.300      1.605
REMARK  Name = 
REMARK  6 active torsions:
REMARK  status: ('A' for Active; 'I' for Inactive)
REMARK    1  A    between atoms: C_2  and  C_3
REMARK    2  A    between atoms: N_5  and  C_6
REMARK    3  A    between atoms: C_11  and  S_12
REMARK    4  A    between atoms: S_12  and  N_15
REMARK    5  A    between atoms: N_15  and  C_16
REMARK    6  A    between atoms: N_15  and  C_17
REMARK                            x       y       z     vdW  Elec       q    Type
REMARK                         _______ _______ _______ _____ _____    ______ ____
ROOT
ATOM      1  C   UNL     1       4.737   5.234  15.940  0.00  0.00    +0.000 A 
ATOM      2  C   UNL     1       4.722   6.509  16.502  0.00  0.00    +0.000 A 
ATOM      3  C   UNL     1       4.151   6.733  17.753  0.00  0.00    +0.000 A 
ATOM      4  C   UNL     1       3.550   5.689  18.459  0.00  0.00    +0.000 A 
ATOM      5 CL   UNL     1       3.046   6.085  20.060  0.00  0.00    +0.000 Cl
ATOM      6  C   UNL     1       3.463   4.429  17.862  0.00  0.00    +0.000 A 
ATOM      7  C   UNL     1       4.041   4.209  16.589  0.00  0.00    +0.000 A 
ENDROOT
BRANCH   1  10
ATOM      8  C   UNL     1       6.828   4.735  14.717  0.00  0.00    +0.000 C 
ATOM      9  O   UNL     1       7.598   4.777  15.672  0.00  0.00    +0.000 OA
ATOM     10  N   UNL     1       5.459   4.942  14.757  0.00  0.00    +0.000 N 
ATOM     11  H   UNL     1       4.920   4.716  13.931  0.00  0.00    +0.000 HD
BRANCH   8  13
ATOM     12  C   UNL     1       6.538   3.681  12.540  0.00  0.00    +0.000 C 
ATOM     13  C   UNL     1       7.338   4.369  13.368  0.00  0.00    +0.000 C 
ENDBRANCH   8  13
ENDBRANCH   1  10
BRANCH   6  14
ATOM     14  S   UNL     1       2.557   3.083  18.596  0.00  0.00    +0.000 S 
ATOM     15  O   UNL     1       1.182   3.477  18.793  0.00  0.00    +0.000 OA
ATOM     16  O   UNL     1       2.856   1.905  17.801  0.00  0.00    +0.000 OA
BRANCH  14  17
ATOM     17  N   UNL     1       3.286   2.873  20.115  0.00  0.00    +0.000 NA
ATOM     18  C   UNL     1       2.407   2.687  21.277  0.00  0.00    +0.000 C 
ATOM     19  C   UNL     1       4.521   2.074  20.181  0.00  0.00    +0.000 C 
ENDBRANCH  14  17
ENDBRANCH   6  14
TORSDOF 4
ENDMDL
MODEL 7
REMARK VINA RESULT:      -6.3      3.660      6.652
REMARK  Name = 
REMARK  6 active torsions:
REMARK  status: ('A' for Active; 'I' for Inactive)
REMARK    1  A    between atoms: C_2  and  C_3
REMARK    2  A    between atoms: N_5  and  C_6
REMARK    3  A    between atoms: C_11  and  S_12
REMARK    4  A    between atoms: S_12  and  N_15
REMARK    5  A    between atoms: N_15  and  C_16
REMARK    6  A    between atoms: N_15  and  C_17
REMARK                            x       y       z     vdW  Elec       q    Type
REMARK                         _______ _______ _______ _____ _____    ______ ____
ROOT
ATOM      1  C   UNL     1       2.167   5.516  20.230  0.00  0.00    +0.000 A 
ATOM      2  C   UNL     1       1.332   4.416  20.049  0.00  0.00    +0.000 A 
ATOM      3  C   UNL     1       1.764   3.298  19.338  0.00  0.00    +0.000 A 
ATOM      4  C   UNL     1       3.034   3.269  18.760  0.00  0.00    +0.000 A 
ATOM      5 CL   UNL     1       3.487   1.757  18.065  0.00  0.00    +0.000 Cl
ATOM      6  C   UNL     1       3.843   4.405  18.842  0.00  0.00    +0.000 A 
ATOM      7  C   UNL     1       3.397   5.540  19.562  0.00  0.00    +0.000 A 
ENDROOT
BRANCH   1  10
ATOM      8  C   UNL     1       1.592   7.883  20.659  0.00  0.00    +0.000 C 
ATOM      9  O   UNL     1       1.650   8.286  19.501  0.00  0.00    +0.000 OA
ATOM     10  N   UNL     1       1.825   6.588  21.090  0.00  0.00    +0.000 N 
ATOM     11  H   UNL     1       1.583   6.354  22.045  0.00  0.00    +0.000 HD
BRANCH   8  13
ATOM     12  C   UNL     1      -0.135   8.993  21.970  0.00  0.00    +0.000 C 
ATOM     13  C   UNL     1       1.175   8.809  21.747  0.00  0.00    +0.000 C 
ENDBRANCH   8  13
ENDBRANCH   1  10
BRANCH   6  14
ATOM     14  S   UNL     1       5.398   4.537  17.985  0.00  0.00    +0.000 S 
ATOM     15  O   UNL     1       6.476   4.196  18.884  0.00  0.00    +0.000 OA
ATOM     16  O   UNL     1       5.245   3.802  16.742  0.00  0.00    +0.000 OA
BRANCH  14  17
ATOM     17  N   UNL     1       5.517   6.185  17.593  0.00  0.00    +0.000 NA
ATOM     18  C   UNL     1       6.825   6.834  17.753  0.00  0.00    +0.000 C 
ATOM     19  C   UNL     1       4.759   6.671  16.428  0.00  0.00    +0.000 C 
ENDBRANCH  14  17
ENDBRANCH   6  14
TORSDOF 4
ENDMDL
MODEL 8
REMARK VINA RESULT:      -6.3      3.200      6.220
REMARK  Name = 
REMARK  6 active torsions:
REMARK  status: ('A' for Active; 'I' for Inactive)
REMARK    1  A    between atoms: C_2  and  C_3
REMARK    2  A    between atoms: N_5  and  C_6
REMARK    3  A    between atoms: C_11  and  S_12
REMARK    4  A    between atoms: S_12  and  N_15
REMARK    5  A    between atoms: N_15  and  C_16
REMARK    6  A    between atoms: N_15  and  C_17
REMARK                            x       y       z     vdW  Elec       q    Type
REMARK                         _______ _______ _______ _____ _____    ______ ____
ROOT
ATOM      1  C   UNL     1       3.748   3.611  18.289  0.00  0.00    +0.000 A 
ATOM      2  C   UNL     1       3.541   3.533  16.914  0.00  0.00    +0.000 A 
ATOM      3  C   UNL     1       4.560   3.849  16.017  0.00  0.00    +0.000 A 
ATOM      4  C   UNL     1       5.804   4.283  16.478  0.00  0.00    +0.000 A 
ATOM      5 CL   UNL     1       7.011   4.466  15.259  0.00  0.00    +0.000 Cl
ATOM      6  C   UNL     1       5.993   4.467  17.850  0.00  0.00    +0.000 A 
ATOM      7  C   UNL     1       4.953   4.150  18.755  0.00  0.00    +0.000 A 
ENDROOT
BRANCH   1  10
ATOM      8  C   UNL     1       1.905   3.944  19.905  0.00  0.00    +0.000 C 
ATOM      9  O   UNL     1       1.813   5.163  19.810  0.00  0.00    +0.000 OA
ATOM     10  N   UNL     1       2.796   3.132  19.222  0.00  0.00    +0.000 N 
ATOM     11  H   UNL     1       2.657   2.131  19.267  0.00  0.00    +0.000 HD
BRANCH   8  13
ATOM     12  C   UNL     1       1.437   2.542  21.841  0.00  0.00    +0.000 C 
ATOM     13  C   UNL     1       0.956   3.193  20.771  0.00  0.00    +0.000 C 
ENDBRANCH   8  13
ENDBRANCH   1  10
BRANCH   6  14
ATOM     14  S   UNL     1       7.474   5.190  18.523  0.00  0.00    +0.000 S 
ATOM     15  O   UNL     1       7.339   5.327  19.954  0.00  0.00    +0.000 OA
ATOM     16  O   UNL     1       8.586   4.429  17.981  0.00  0.00    +0.000 OA
BRANCH  14  17
ATOM     17  N   UNL     1       7.530   6.740  17.830  0.00  0.00    +0.000 NA
ATOM     18  C   UNL     1       6.291   7.278  17.254  0.00  0.00    +0.000 C 
ATOM     19  C   UNL     1       8.360   7.760  18.494  0.00  0.00    +0.000 C 
ENDBRANCH  14  17
ENDBRANCH   6  14
TORSDOF 4
ENDMDL
MODEL 9
REMARK VINA RESULT:      -6.2      3.273      5.176
REMARK  Name = 
REMARK  6 active torsions:
REMARK  status: ('A' for Active; 'I' for Inactive)
REMARK    1  A    between atoms: C_2  and  C_3
REMARK    2  A    between atoms: N_5  and  C_6
REMARK    3  A    between atoms: C_11  and  S_12
REMARK    4  A    between atoms: S_12  and  N_15
REMARK    5  A    between atoms: N_15  and  C_16
REMARK    6  A    between atoms: N_15  and  C_17
REMARK                            x       y       z     vdW  Elec       q    Type
REMARK                         _______ _______ _______ _____ _____    ______ ____
ROOT
ATOM      1  C   UNL     1       2.998   6.946  18.526  0.00  0.00    +0.000 A 
ATOM      2  C   UNL     1       3.900   7.272  17.515  0.00  0.00    +0.000 A 
ATOM      3  C   UNL     1       4.633   6.282  16.862  0.00  0.00    +0.000 A 
ATOM      4  C   UNL     1       4.502   4.941  17.229  0.00  0.00    +0.000 A 
ATOM      5 CL   UNL     1       5.338   3.823  16.218  0.00  0.00    +0.000 Cl
ATOM      6  C   UNL     1       3.681   4.611  18.311  0.00  0.00    +0.000 A 
ATOM      7  C   UNL     1       2.944   5.621  18.973  0.00  0.00    +0.000 A 
ENDROOT
BRANCH   1  10
ATOM      8  C   UNL     1       1.687   9.041  18.421  0.00  0.00    +0.000 C 
ATOM      9  O   UNL     1       2.001   9.382  17.285  0.00  0.00    +0.000 OA
ATOM     10  N   UNL     1       2.116   7.903  19.084  0.00  0.00    +0.000 N 
ATOM     11  H   UNL     1       1.654   7.655  19.950  0.00  0.00    +0.000 HD
BRANCH   8  13
ATOM     12  C   UNL     1       0.416   9.482  20.452  0.00  0.00    +0.000 C 
ATOM     13  C   UNL     1       0.704   9.848  19.194  0.00  0.00    +0.000 C 
ENDBRANCH   8  13
ENDBRANCH   1  10
BRANCH   6  14
ATOM     14  S   UNL     1       3.591   2.961  18.974  0.00  0.00    +0.000 S 
ATOM     15  O   UNL     1       3.266   2.032  17.917  0.00  0.00    +0.000 OA
ATOM     16  O   UNL     1       4.802   2.763  19.750  0.00  0.00    +0.000 OA
BRANCH  14  17
ATOM     17  N   UNL     1       2.290   3.023  20.063  0.00  0.00    +0.000 NA
ATOM     18  C   UNL     1       0.977   2.567  19.588  0.00  0.00    +0.000 C 
ATOM     19  C   UNL     1       2.555   2.682  21.471  0.00  0.00    +0.000 C 
ENDBRANCH  14  17
ENDBRANCH   6  14
TORSDOF 4
ENDMDL
