MODEL 1
REMARK VINA RESULT:      -8.1      0.000      0.000
REMARK  Name = 
REMARK  11 active torsions:
REMARK  status: ('A' for Active; 'I' for Inactive)
REMARK    1  A    between atoms: C_1  and  C_2
REMARK    2  A    between atoms: C_2  and  C_3
REMARK    3  A    between atoms: C_3  and  C_4
REMARK    4  A    between atoms: C_4  and  C_5
REMARK    5  A    between atoms: C_8  and  N_9
REMARK    6  A    between atoms: N_12  and  C_13
REMARK    7  A    between atoms: C_16  and  O_17
REMARK    8  A    between atoms: O_17  and  C_18
REMARK    9  A    between atoms: C_23  and  N_24
REMARK   10  A    between atoms: N_24  and  C_25
REMARK   11  A    between atoms: N_24  and  C_26
REMARK                            x       y       z     vdW  Elec       q    Type
REMARK                         _______ _______ _______ _____ _____    ______ ____
ROOT
ATOM      1  C   UNL     1       0.970   9.108  19.500  0.00  0.00    +0.000 A 
ATOM      2  C   UNL     1       1.801   9.088  18.383  0.00  0.00    +0.000 A 
ATOM      3  C   UNL     1       2.753   8.079  18.212  0.00  0.00    +0.000 A 
ATOM      4  C   UNL     1       2.884   7.056  19.158  0.00  0.00    +0.000 A 
ATOM      5  C   UNL     1       2.033   7.083  20.268  0.00  0.00    +0.000 A 
ATOM      6  F   UNL     1       2.099   6.105  21.187  0.00  0.00    +0.000 F 
ATOM      7  C   UNL     1       1.098   8.106  20.461  0.00  0.00    +0.000 A 
ENDROOT
BRANCH   1  11
ATOM      8  N   UNL     1      -1.193  11.678  20.870  0.00  0.00    +0.000 N 
ATOM      9  C   UNL     1      -0.146  10.765  20.883  0.00  0.00    +0.000 C 
ATOM     10  O   UNL     1       0.585  10.557  21.846  0.00  0.00    +0.000 OA
ATOM     11  N   UNL     1      -0.004  10.121  19.663  0.00  0.00    +0.000 N 
ATOM     12  H   UNL     1      -1.950  11.468  20.237  0.00  0.00    +0.000 HD
ATOM     13  H   UNL     1      -0.210  10.698  18.857  0.00  0.00    +0.000 HD
BRANCH   8  17
ATOM     14  C   UNL     1      -1.987  14.373  24.049  0.00  0.00    +0.000 A 
ATOM     15  C   UNL     1      -0.862  14.545  23.240  0.00  0.00    +0.000 A 
ATOM     16  C   UNL     1      -0.607  13.677  22.179  0.00  0.00    +0.000 A 
ATOM     17  C   UNL     1      -1.452  12.596  21.913  0.00  0.00    +0.000 A 
ATOM     18  C   UNL     1      -2.593  12.431  22.702  0.00  0.00    +0.000 A 
ATOM     19  C   UNL     1      -2.853  13.306  23.768  0.00  0.00    +0.000 A 
BRANCH  14  20
ATOM     20  C   UNL     1      -2.239  15.308  25.204  0.00  0.00    +0.000 C 
BRANCH  20  21
ATOM     21  C   UNL     1      -3.534  16.113  25.033  0.00  0.00    +0.000 C 
BRANCH  21  23
ATOM     22  C   UNL     1      -4.339  17.115  22.871  0.00  0.00    +0.000 C 
ATOM     23  C   UNL     1      -3.359  17.247  24.025  0.00  0.00    +0.000 C 
ENDBRANCH  21  23
ENDBRANCH  20  21
ENDBRANCH  14  20
ENDBRANCH   8  17
ENDBRANCH   1  11
BRANCH   4  24
ATOM     24  O   UNL     1       3.789   6.027  19.083  0.00  0.00    +0.000 OA
BRANCH  24  25
ATOM     25  C   UNL     1       4.317   5.685  17.790  0.00  0.00    +0.000 C 
ATOM     26  C   UNL     1       5.683   6.372  17.611  0.00  0.00    +0.000 C 
ATOM     27  C   UNL     1       6.255   6.082  16.230  0.00  0.00    +0.000 C 
ATOM     28  C   UNL     1       6.442   4.584  16.039  0.00  0.00    +0.000 C 
ATOM     29  C   UNL     1       5.129   3.830  16.250  0.00  0.00    +0.000 C 
ATOM     30  C   UNL     1       4.476   4.138  17.620  0.00  0.00    +0.000 C 
BRANCH  30  31
ATOM     31  N   UNL     1       3.180   3.420  17.762  0.00  0.00    +0.000 N 
ATOM     32  C   UNL     1       2.822   2.387  16.787  0.00  0.00    +0.000 C 
BRANCH  31  33
ATOM     33  C   UNL     1       2.626   3.227  19.038  0.00  0.00    +0.000 A 
ATOM     34  C   UNL     1       1.250   3.426  19.254  0.00  0.00    +0.000 A 
ATOM     35  C   UNL     1       0.665   3.234  20.515  0.00  0.00    +0.000 A 
ATOM     36  C   UNL     1       1.441   2.820  21.587  0.00  0.00    +0.000 A 
ATOM     37  C   UNL     1       2.804   2.618  21.408  0.00  0.00    +0.000 A 
ATOM     38  C   UNL     1       3.383   2.839  20.151  0.00  0.00    +0.000 A 
ENDBRANCH  31  33
ENDBRANCH  30  31
ENDBRANCH  24  25
ENDBRANCH   4  24
TORSDOF 9
ENDMDL
MODEL 2
REMARK VINA RESULT:      -8.1      3.373     11.441
REMARK  Name = 
REMARK  11 active torsions:
REMARK  status: ('A' for Active; 'I' for Inactive)
REMARK    1  A    between atoms: C_1  and  C_2
REMARK    2  A    between atoms: C_2  and  C_3
REMARK    3  A    between atoms: C_3  and  C_4
REMARK    4  A    between atoms: C_4  and  C_5
REMARK    5  A    between atoms: C_8  and  N_9
REMARK    6  A    between atoms: N_12  and  C_13
REMARK    7  A    between atoms: C_16  and  O_17
REMARK    8  A    between atoms: O_17  and  C_18
REMARK    9  A    between atoms: C_23  and  N_24
REMARK   10  A    between atoms: N_24  and  C_25
REMARK   11  A    between atoms: N_24  and  C_26
REMARK                            x       y       z     vdW  Elec       q    Type
REMARK                         _______ _______ _______ _____ _____    ______ ____
ROOT
ATOM      1  C   UNL     1      -0.192  11.160  18.641  0.00  0.00    +0.000 A 
ATOM      2  C   UNL     1      -1.554  10.890  18.525  0.00  0.00    +0.000 A 
ATOM      3  C   UNL     1      -2.503  11.679  19.181  0.00  0.00    +0.000 A 
ATOM      4  C   UNL     1      -2.104  12.768  19.964  0.00  0.00    +0.000 A 
ATOM      5  C   UNL     1      -0.734  13.035  20.060  0.00  0.00    +0.000 A 
ATOM      6  F   UNL     1      -0.305  14.089  20.773  0.00  0.00    +0.000 F 
ATOM      7  C   UNL     1       0.223  12.232  19.429  0.00  0.00    +0.000 A 
ENDROOT
BRANCH   1  11
ATOM      8  N   UNL     1       2.325   8.686  17.804  0.00  0.00    +0.000 N 
ATOM      9  C   UNL     1       1.368   9.298  18.603  0.00  0.00    +0.000 C 
ATOM     10  O   UNL     1       1.069   8.932  19.735  0.00  0.00    +0.000 OA
ATOM     11  N   UNL     1       0.765  10.370  17.962  0.00  0.00    +0.000 N 
ATOM     12  H   UNL     1       2.778   9.282  17.127  0.00  0.00    +0.000 HD
ATOM     13  H   UNL     1       0.641  10.248  16.965  0.00  0.00    +0.000 HD
BRANCH   8  17
ATOM     14  C   UNL     1       4.320   5.070  18.775  0.00  0.00    +0.000 A 
ATOM     15  C   UNL     1       3.248   5.516  19.550  0.00  0.00    +0.000 A 
ATOM     16  C   UNL     1       2.572   6.692  19.224  0.00  0.00    +0.000 A 
ATOM     17  C   UNL     1       2.966   7.470  18.131  0.00  0.00    +0.000 A 
ATOM     18  C   UNL     1       4.022   7.018  17.336  0.00  0.00    +0.000 A 
ATOM     19  C   UNL     1       4.700   5.832  17.661  0.00  0.00    +0.000 A 
BRANCH  14  20
ATOM     20  C   UNL     1       5.052   3.808  19.153  0.00  0.00    +0.000 C 
BRANCH  20  21
ATOM     21  C   UNL     1       4.102   2.707  19.644  0.00  0.00    +0.000 C 
BRANCH  21  23
ATOM     22  C   UNL     1       1.845   2.124  18.698  0.00  0.00    +0.000 C 
ATOM     23  C   UNL     1       3.349   2.059  18.484  0.00  0.00    +0.000 C 
ENDBRANCH  21  23
ENDBRANCH  20  21
ENDBRANCH  14  20
ENDBRANCH   8  17
ENDBRANCH   1  11
BRANCH   4  24
ATOM     24  O   UNL     1      -2.957  13.596  20.650  0.00  0.00    +0.000 OA
BRANCH  24  25
ATOM     25  C   UNL     1      -3.741  13.029  21.712  0.00  0.00    +0.000 C 
ATOM     26  C   UNL     1      -2.875  12.945  22.982  0.00  0.00    +0.000 C 
ATOM     27  C   UNL     1      -3.651  12.296  24.121  0.00  0.00    +0.000 C 
ATOM     28  C   UNL     1      -4.898  13.108  24.441  0.00  0.00    +0.000 C 
ATOM     29  C   UNL     1      -5.784  13.273  23.208  0.00  0.00    +0.000 C 
ATOM     30  C   UNL     1      -5.025  13.875  22.001  0.00  0.00    +0.000 C 
BRANCH  30  31
ATOM     31  N   UNL     1      -5.914  13.974  20.811  0.00  0.00    +0.000 N 
ATOM     32  C   UNL     1      -5.935  15.216  20.034  0.00  0.00    +0.000 C 
BRANCH  31  33
ATOM     33  C   UNL     1      -6.214  12.821  20.067  0.00  0.00    +0.000 A 
ATOM     34  C   UNL     1      -5.867  12.742  18.706  0.00  0.00    +0.000 A 
ATOM     35  C   UNL     1      -6.146  11.601  17.939  0.00  0.00    +0.000 A 
ATOM     36  C   UNL     1      -6.762  10.503  18.520  0.00  0.00    +0.000 A 
ATOM     37  C   UNL     1      -7.121  10.551  19.862  0.00  0.00    +0.000 A 
ATOM     38  C   UNL     1      -6.863  11.706  20.612  0.00  0.00    +0.000 A 
ENDBRANCH  31  33
ENDBRANCH  30  31
ENDBRANCH  24  25
ENDBRANCH   4  24
TORSDOF 9
ENDMDL
MODEL 3
REMARK VINA RESULT:      -8.0      2.192      4.380
REMARK  Name = 
REMARK  11 active torsions:
REMARK  status: ('A' for Active; 'I' for Inactive)
REMARK    1  A    between atoms: C_1  and  C_2
REMARK    2  A    between atoms: C_2  and  C_3
REMARK    3  A    between atoms: C_3  and  C_4
REMARK    4  A    between atoms: C_4  and  C_5
REMARK    5  A    between atoms: C_8  and  N_9
REMARK    6  A    between atoms: N_12  and  C_13
REMARK    7  A    between atoms: C_16  and  O_17
REMARK    8  A    between atoms: O_17  and  C_18
REMARK    9  A    between atoms: C_23  and  N_24
REMARK   10  A    between atoms: N_24  and  C_25
REMARK   11  A    between atoms: N_24  and  C_26
REMARK                            x       y       z     vdW  Elec       q    Type
REMARK                         _______ _______ _______ _____ _____    ______ ____
ROOT
ATOM      1  C   UNL     1       1.199   9.268  20.552  0.00  0.00    +0.000 A 
ATOM      2  C   UNL     1       1.431   7.993  21.062  0.00  0.00    +0.000 A 
ATOM      3  C   UNL     1       1.896   6.962  20.241  0.00  0.00    +0.000 A 
ATOM      4  C   UNL     1       2.151   7.192  18.885  0.00  0.00    +0.000 A 
ATOM      5  C   UNL     1       1.926   8.482  18.389  0.00  0.00    +0.000 A 
ATOM      6  F   UNL     1       2.187   8.760  17.101  0.00  0.00    +0.000 F 
ATOM      7  C   UNL     1       1.433   9.511  19.199  0.00  0.00    +0.000 A 
ENDROOT
BRANCH   1  11
ATOM      8  N   UNL     1      -0.773  11.895  22.088  0.00  0.00    +0.000 N 
ATOM      9  C   UNL     1      -0.531  10.836  21.224  0.00  0.00    +0.000 C 
ATOM     10  O   UNL     1      -1.344  10.393  20.419  0.00  0.00    +0.000 OA
ATOM     11  N   UNL     1       0.743  10.313  21.388  0.00  0.00    +0.000 N 
ATOM     12  H   UNL     1       0.037  12.429  22.368  0.00  0.00    +0.000 HD
ATOM     13  H   UNL     1       1.082  10.323  22.342  0.00  0.00    +0.000 HD
BRANCH   8  17
ATOM     14  C   UNL     1      -4.559  13.714  22.687  0.00  0.00    +0.000 A 
ATOM     15  C   UNL     1      -3.771  14.068  21.590  0.00  0.00    +0.000 A 
ATOM     16  C   UNL     1      -2.535  13.458  21.374  0.00  0.00    +0.000 A 
ATOM     17  C   UNL     1      -2.040  12.498  22.262  0.00  0.00    +0.000 A 
ATOM     18  C   UNL     1      -2.834  12.120  23.348  0.00  0.00    +0.000 A 
ATOM     19  C   UNL     1      -4.079  12.731  23.564  0.00  0.00    +0.000 A 
BRANCH  14  20
ATOM     20  C   UNL     1      -5.883  14.397  22.917  0.00  0.00    +0.000 C 
BRANCH  20  21
ATOM     21  C   UNL     1      -6.990  13.409  23.309  0.00  0.00    +0.000 C 
BRANCH  21  23
ATOM     22  C   UNL     1      -7.436  11.833  21.400  0.00  0.00    +0.000 C 
ATOM     23  C   UNL     1      -7.898  13.087  22.124  0.00  0.00    +0.000 C 
ENDBRANCH  21  23
ENDBRANCH  20  21
ENDBRANCH  14  20
ENDBRANCH   8  17
ENDBRANCH   1  11
BRANCH   4  24
ATOM     24  O   UNL     1       2.603   6.247  17.998  0.00  0.00    +0.000 OA
BRANCH  24  25
ATOM     25  C   UNL     1       2.755   4.898  18.469  0.00  0.00    +0.000 C 
ATOM     26  C   UNL     1       1.363   4.250  18.585  0.00  0.00    +0.000 C 
ATOM     27  C   UNL     1       1.472   2.834  19.135  0.00  0.00    +0.000 C 
ATOM     28  C   UNL     1       2.328   1.974  18.216  0.00  0.00    +0.000 C 
ATOM     29  C   UNL     1       3.714   2.585  18.016  0.00  0.00    +0.000 C 
ATOM     30  C   UNL     1       3.656   4.048  17.513  0.00  0.00    +0.000 C 
BRANCH  30  31
ATOM     31  N   UNL     1       5.026   4.617  17.378  0.00  0.00    +0.000 N 
ATOM     32  C   UNL     1       5.939   4.563  18.522  0.00  0.00    +0.000 C 
BRANCH  31  33
ATOM     33  C   UNL     1       5.663   4.609  16.127  0.00  0.00    +0.000 A 
ATOM     34  C   UNL     1       6.943   5.174  15.977  0.00  0.00    +0.000 A 
ATOM     35  C   UNL     1       7.609   5.175  14.742  0.00  0.00    +0.000 A 
ATOM     36  C   UNL     1       7.020   4.592  13.631  0.00  0.00    +0.000 A 
ATOM     37  C   UNL     1       5.754   4.027  13.745  0.00  0.00    +0.000 A 
ATOM     38  C   UNL     1       5.086   4.057  14.976  0.00  0.00    +0.000 A 
ENDBRANCH  31  33
ENDBRANCH  30  31
ENDBRANCH  24  25
ENDBRANCH   4  24
TORSDOF 9
ENDMDL
MODEL 4
REMARK VINA RESULT:      -8.0      1.120      1.723
REMARK  Name = 
REMARK  11 active torsions:
REMARK  status: ('A' for Active; 'I' for Inactive)
REMARK    1  A    between atoms: C_1  and  C_2
REMARK    2  A    between atoms: C_2  and  C_3
REMARK    3  A    between atoms: C_3  and  C_4
REMARK    4  A    between atoms: C_4  and  C_5
REMARK    5  A    between atoms: C_8  and  N_9
REMARK    6  A    between atoms: N_12  and  C_13
REMARK    7  A    between atoms: C_16  and  O_17
REMARK    8  A    between atoms: O_17  and  C_18
REMARK    9  A    between atoms: C_23  and  N_24
REMARK   10  A    between atoms: N_24  and  C_25
REMARK   11  A    between atoms: N_24  and  C_26
REMARK                            x       y       z     vdW  Elec       q    Type
REMARK                         _______ _______ _______ _____ _____    ______ ____
ROOT
ATOM      1  C   UNL     1       0.778   9.372  19.663  0.00  0.00    +0.000 A 
ATOM      2  C   UNL     1       1.518   9.329  18.484  0.00  0.00    +0.000 A 
ATOM      3  C   UNL     1       2.415   8.285  18.235  0.00  0.00    +0.000 A 
ATOM      4  C   UNL     1       2.580   7.252  19.164  0.00  0.00    +0.000 A 
ATOM      5  C   UNL     1       1.819   7.303  20.338  0.00  0.00    +0.000 A 
ATOM      6  F   UNL     1       1.919   6.317  21.245  0.00  0.00    +0.000 F 
ATOM      7  C   UNL     1       0.942   8.360  20.607  0.00  0.00    +0.000 A 
ENDROOT
BRANCH   1  11
ATOM      8  N   UNL     1      -1.010  12.177  21.112  0.00  0.00    +0.000 N 
ATOM      9  C   UNL     1       0.023  11.254  21.002  0.00  0.00    +0.000 C 
ATOM     10  O   UNL     1       0.980  11.185  21.767  0.00  0.00    +0.000 OA
ATOM     11  N   UNL     1      -0.141  10.421  19.906  0.00  0.00    +0.000 N 
ATOM     12  H   UNL     1      -1.900  11.886  20.736  0.00  0.00    +0.000 HD
ATOM     13  H   UNL     1      -0.557  10.866  19.098  0.00  0.00    +0.000 HD
BRANCH   8  17
ATOM     14  C   UNL     1      -1.011  15.362  23.915  0.00  0.00    +0.000 A 
ATOM     15  C   UNL     1      -0.164  15.397  22.805  0.00  0.00    +0.000 A 
ATOM     16  C   UNL     1      -0.174  14.365  21.867  0.00  0.00    +0.000 A 
ATOM     17  C   UNL     1      -1.010  13.255  22.026  0.00  0.00    +0.000 A 
ATOM     18  C   UNL     1      -1.878  13.224  23.120  0.00  0.00    +0.000 A 
ATOM     19  C   UNL     1      -1.871  14.265  24.062  0.00  0.00    +0.000 A 
BRANCH  14  20
ATOM     20  C   UNL     1      -0.973  16.476  24.929  0.00  0.00    +0.000 C 
BRANCH  20  21
ATOM     21  C   UNL     1      -0.766  15.958  26.359  0.00  0.00    +0.000 C 
BRANCH  21  23
ATOM     22  C   UNL     1       0.579  18.060  26.678  0.00  0.00    +0.000 C 
ATOM     23  C   UNL     1      -0.404  17.092  27.317  0.00  0.00    +0.000 C 
ENDBRANCH  21  23
ENDBRANCH  20  21
ENDBRANCH  14  20
ENDBRANCH   8  17
ENDBRANCH   1  11
BRANCH   4  24
ATOM     24  O   UNL     1       3.436   6.190  19.015  0.00  0.00    +0.000 OA
BRANCH  24  25
ATOM     25  C   UNL     1       3.920   5.894  17.694  0.00  0.00    +0.000 C 
ATOM     26  C   UNL     1       5.193   6.720  17.432  0.00  0.00    +0.000 C 
ATOM     27  C   UNL     1       5.710   6.480  16.020  0.00  0.00    +0.000 C 
ATOM     28  C   UNL     1       6.043   5.008  15.823  0.00  0.00    +0.000 C 
ATOM     29  C   UNL     1       4.833   4.122  16.114  0.00  0.00    +0.000 C 
ATOM     30  C   UNL     1       4.232   4.371  17.519  0.00  0.00    +0.000 C 
BRANCH  30  31
ATOM     31  N   UNL     1       3.030   3.521  17.740  0.00  0.00    +0.000 N 
ATOM     32  C   UNL     1       2.731   2.443  16.794  0.00  0.00    +0.000 C 
BRANCH  31  33
ATOM     33  C   UNL     1       2.572   3.288  19.047  0.00  0.00    +0.000 A 
ATOM     34  C   UNL     1       3.457   2.827  20.039  0.00  0.00    +0.000 A 
ATOM     35  C   UNL     1       3.033   2.592  21.355  0.00  0.00    +0.000 A 
ATOM     36  C   UNL     1       1.715   2.832  21.716  0.00  0.00    +0.000 A 
ATOM     37  C   UNL     1       0.815   3.284  20.759  0.00  0.00    +0.000 A 
ATOM     38  C   UNL     1       1.244   3.489  19.440  0.00  0.00    +0.000 A 
ENDBRANCH  31  33
ENDBRANCH  30  31
ENDBRANCH  24  25
ENDBRANCH   4  24
TORSDOF 9
ENDMDL
MODEL 5
REMARK VINA RESULT:      -8.0      0.759      1.608
REMARK  Name = 
REMARK  11 active torsions:
REMARK  status: ('A' for Active; 'I' for Inactive)
REMARK    1  A    between atoms: C_1  and  C_2
REMARK    2  A    between atoms: C_2  and  C_3
REMARK    3  A    between atoms: C_3  and  C_4
REMARK    4  A    between atoms: C_4  and  C_5
REMARK    5  A    between atoms: C_8  and  N_9
REMARK    6  A    between atoms: N_12  and  C_13
REMARK    7  A    between atoms: C_16  and  O_17
REMARK    8  A    between atoms: O_17  and  C_18
REMARK    9  A    between atoms: C_23  and  N_24
REMARK   10  A    between atoms: N_24  and  C_25
REMARK   11  A    between atoms: N_24  and  C_26
REMARK                            x       y       z     vdW  Elec       q    Type
REMARK                         _______ _______ _______ _____ _____    ______ ____
ROOT
ATOM      1  C   UNL     1       0.817   9.462  19.363  0.00  0.00    +0.000 A 
ATOM      2  C   UNL     1       1.591   9.380  18.208  0.00  0.00    +0.000 A 
ATOM      3  C   UNL     1       2.505   8.337  18.026  0.00  0.00    +0.000 A 
ATOM      4  C   UNL     1       2.653   7.343  19.000  0.00  0.00    +0.000 A 
ATOM      5  C   UNL     1       1.859   7.432  20.148  0.00  0.00    +0.000 A 
ATOM      6  F   UNL     1       1.943   6.484  21.096  0.00  0.00    +0.000 F 
ATOM      7  C   UNL     1       0.964   8.489  20.350  0.00  0.00    +0.000 A 
ENDROOT
BRANCH   1  11
ATOM      8  N   UNL     1      -1.400  11.955  20.785  0.00  0.00    +0.000 N 
ATOM      9  C   UNL     1      -0.415  10.977  20.809  0.00  0.00    +0.000 C 
ATOM     10  O   UNL     1       0.146  10.577  21.824  0.00  0.00    +0.000 OA
ATOM     11  N   UNL     1      -0.118  10.509  19.537  0.00  0.00    +0.000 N 
ATOM     12  H   UNL     1      -2.060  11.896  20.024  0.00  0.00    +0.000 HD
ATOM     13  H   UNL     1      -0.167  11.210  18.809  0.00  0.00    +0.000 HD
BRANCH   8  17
ATOM     14  C   UNL     1      -2.516  14.341  24.112  0.00  0.00    +0.000 A 
ATOM     15  C   UNL     1      -3.132  13.109  23.887  0.00  0.00    +0.000 A 
ATOM     16  C   UNL     1      -2.755  12.308  22.809  0.00  0.00    +0.000 A 
ATOM     17  C   UNL     1      -1.771  12.728  21.909  0.00  0.00    +0.000 A 
ATOM     18  C   UNL     1      -1.132  13.949  22.141  0.00  0.00    +0.000 A 
ATOM     19  C   UNL     1      -1.508  14.754  23.228  0.00  0.00    +0.000 A 
BRANCH  14  20
ATOM     20  C   UNL     1      -2.949  15.203  25.270  0.00  0.00    +0.000 C 
BRANCH  20  21
ATOM     21  C   UNL     1      -2.231  16.559  25.290  0.00  0.00    +0.000 C 
BRANCH  21  23
ATOM     22  C   UNL     1       0.188  16.897  25.895  0.00  0.00    +0.000 C 
ATOM     23  C   UNL     1      -1.212  16.635  26.426  0.00  0.00    +0.000 C 
ENDBRANCH  21  23
ENDBRANCH  20  21
ENDBRANCH  14  20
ENDBRANCH   8  17
ENDBRANCH   1  11
BRANCH   4  24
ATOM     24  O   UNL     1       3.524   6.285  18.916  0.00  0.00    +0.000 OA
BRANCH  24  25
ATOM     25  C   UNL     1       4.032   5.929  17.620  0.00  0.00    +0.000 C 
ATOM     26  C   UNL     1       5.338   6.704  17.366  0.00  0.00    +0.000 C 
ATOM     27  C   UNL     1       5.884   6.400  15.978  0.00  0.00    +0.000 C 
ATOM     28  C   UNL     1       6.172   4.912  15.837  0.00  0.00    +0.000 C 
ATOM     29  C   UNL     1       4.925   4.076  16.123  0.00  0.00    +0.000 C 
ATOM     30  C   UNL     1       4.297   4.392  17.503  0.00  0.00    +0.000 C 
BRANCH  30  31
ATOM     31  N   UNL     1       3.061   3.590  17.718  0.00  0.00    +0.000 N 
ATOM     32  C   UNL     1       2.720   2.530  16.767  0.00  0.00    +0.000 C 
BRANCH  31  33
ATOM     33  C   UNL     1       2.592   3.370  19.023  0.00  0.00    +0.000 A 
ATOM     34  C   UNL     1       3.458   2.879  20.018  0.00  0.00    +0.000 A 
ATOM     35  C   UNL     1       3.022   2.656  21.332  0.00  0.00    +0.000 A 
ATOM     36  C   UNL     1       1.712   2.938  21.690  0.00  0.00    +0.000 A 
ATOM     37  C   UNL     1       0.830   3.421  20.730  0.00  0.00    +0.000 A 
ATOM     38  C   UNL     1       1.269   3.614  19.413  0.00  0.00    +0.000 A 
ENDBRANCH  31  33
ENDBRANCH  30  31
ENDBRANCH  24  25
ENDBRANCH   4  24
TORSDOF 9
ENDMDL
MODEL 6
REMARK VINA RESULT:      -8.0      2.611     11.152
REMARK  Name = 
REMARK  11 active torsions:
REMARK  status: ('A' for Active; 'I' for Inactive)
REMARK    1  A    between atoms: C_1  and  C_2
REMARK    2  A    between atoms: C_2  and  C_3
REMARK    3  A    between atoms: C_3  and  C_4
REMARK    4  A    between atoms: C_4  and  C_5
REMARK    5  A    between atoms: C_8  and  N_9
REMARK    6  A    between atoms: N_12  and  C_13
REMARK    7  A    between atoms: C_16  and  O_17
REMARK    8  A    between atoms: O_17  and  C_18
REMARK    9  A    between atoms: C_23  and  N_24
REMARK   10  A    between atoms: N_24  and  C_25
REMARK   11  A    between atoms: N_24  and  C_26
REMARK                            x       y       z     vdW  Elec       q    Type
REMARK                         _______ _______ _______ _____ _____    ______ ____
ROOT
ATOM      1  C   UNL     1       1.085   8.506  21.407  0.00  0.00    +0.000 A 
ATOM      2  C   UNL     1      -0.115   8.580  22.110  0.00  0.00    +0.000 A 
ATOM      3  C   UNL     1      -0.755   9.805  22.316  0.00  0.00    +0.000 A 
ATOM      4  C   UNL     1      -0.207  10.989  21.808  0.00  0.00    +0.000 A 
ATOM      5  C   UNL     1       0.992  10.897  21.092  0.00  0.00    +0.000 A 
ATOM      6  F   UNL     1       1.539  12.001  20.558  0.00  0.00    +0.000 F 
ATOM      7  C   UNL     1       1.653   9.677  20.907  0.00  0.00    +0.000 A 
ENDROOT
BRANCH   1  11
ATOM      8  N   UNL     1       2.796   5.684  19.903  0.00  0.00    +0.000 N 
ATOM      9  C   UNL     1       2.277   6.971  19.949  0.00  0.00    +0.000 C 
ATOM     10  O   UNL     1       2.315   7.771  19.020  0.00  0.00    +0.000 OA
ATOM     11  N   UNL     1       1.722   7.263  21.186  0.00  0.00    +0.000 N 
ATOM     12  H   UNL     1       2.353   5.009  20.510  0.00  0.00    +0.000 HD
ATOM     13  H   UNL     1       2.203   6.844  21.972  0.00  0.00    +0.000 HD
BRANCH   8  17
ATOM     14  C   UNL     1       5.063   4.152  16.660  0.00  0.00    +0.000 A 
ATOM     15  C   UNL     1       5.265   5.459  17.109  0.00  0.00    +0.000 A 
ATOM     16  C   UNL     1       4.540   5.962  18.189  0.00  0.00    +0.000 A 
ATOM     17  C   UNL     1       3.574   5.184  18.833  0.00  0.00    +0.000 A 
ATOM     18  C   UNL     1       3.384   3.867  18.407  0.00  0.00    +0.000 A 
ATOM     19  C   UNL     1       4.116   3.359  17.322  0.00  0.00    +0.000 A 
BRANCH  14  20
ATOM     20  C   UNL     1       5.841   3.631  15.479  0.00  0.00    +0.000 C 
BRANCH  20  21
ATOM     21  C   UNL     1       5.674   4.512  14.234  0.00  0.00    +0.000 C 
BRANCH  21  23
ATOM     22  C   UNL     1       7.044   4.089  12.167  0.00  0.00    +0.000 C 
ATOM     23  C   UNL     1       5.802   3.694  12.950  0.00  0.00    +0.000 C 
ENDBRANCH  21  23
ENDBRANCH  20  21
ENDBRANCH  14  20
ENDBRANCH   8  17
ENDBRANCH   1  11
BRANCH   4  24
ATOM     24  O   UNL     1      -0.755  12.237  21.961  0.00  0.00    +0.000 OA
BRANCH  24  25
ATOM     25  C   UNL     1      -2.171  12.383  21.762  0.00  0.00    +0.000 C 
ATOM     26  C   UNL     1      -2.836  12.696  23.116  0.00  0.00    +0.000 C 
ATOM     27  C   UNL     1      -4.347  12.803  22.962  0.00  0.00    +0.000 C 
ATOM     28  C   UNL     1      -4.702  13.913  21.983  0.00  0.00    +0.000 C 
ATOM     29  C   UNL     1      -4.034  13.691  20.627  0.00  0.00    +0.000 C 
ATOM     30  C   UNL     1      -2.500  13.517  20.736  0.00  0.00    +0.000 C 
BRANCH  30  31
ATOM     31  N   UNL     1      -1.899  13.257  19.399  0.00  0.00    +0.000 N 
ATOM     32  C   UNL     1      -0.591  13.834  19.077  0.00  0.00    +0.000 C 
BRANCH  31  33
ATOM     33  C   UNL     1      -2.183  12.057  18.728  0.00  0.00    +0.000 A 
ATOM     34  C   UNL     1      -3.515  11.687  18.465  0.00  0.00    +0.000 A 
ATOM     35  C   UNL     1      -3.830  10.499  17.790  0.00  0.00    +0.000 A 
ATOM     36  C   UNL     1      -2.820   9.660  17.344  0.00  0.00    +0.000 A 
ATOM     37  C   UNL     1      -1.494   9.995  17.591  0.00  0.00    +0.000 A 
ATOM     38  C   UNL     1      -1.191  11.171  18.291  0.00  0.00    +0.000 A 
ENDBRANCH  31  33
ENDBRANCH  30  31
ENDBRANCH  24  25
ENDBRANCH   4  24
TORSDOF 9
ENDMDL
MODEL 7
REMARK VINA RESULT:      -7.9      3.148      5.045
REMARK  Name = 
REMARK  11 active torsions:
REMARK  status: ('A' for Active; 'I' for Inactive)
REMARK    1  A    between atoms: C_1  and  C_2
REMARK    2  A    between atoms: C_2  and  C_3
REMARK    3  A    between atoms: C_3  and  C_4
REMARK    4  A    between atoms: C_4  and  C_5
REMARK    5  A    between atoms: C_8  and  N_9
REMARK    6  A    between atoms: N_12  and  C_13
REMARK    7  A    between atoms: C_16  and  O_17
REMARK    8  A    between atoms: O_17  and  C_18
REMARK    9  A    between atoms: C_23  and  N_24
REMARK   10  A    between atoms: N_24  and  C_25
REMARK   11  A    between atoms: N_24  and  C_26
REMARK                            x       y       z     vdW  Elec       q    Type
REMARK                         _______ _______ _______ _____ _____    ______ ____
ROOT
ATOM      1  C   UNL     1       1.008   9.349  18.493  0.00  0.00    +0.000 A 
ATOM      2  C   UNL     1       1.808   8.599  17.635  0.00  0.00    +0.000 A 
ATOM      3  C   UNL     1       2.605   7.557  18.119  0.00  0.00    +0.000 A 
ATOM      4  C   UNL     1       2.607   7.238  19.482  0.00  0.00    +0.000 A 
ATOM      5  C   UNL     1       1.788   7.992  20.329  0.00  0.00    +0.000 A 
ATOM      6  F   UNL     1       1.732   7.702  21.640  0.00  0.00    +0.000 F 
ATOM      7  C   UNL     1       1.010   9.054  19.856  0.00  0.00    +0.000 A 
ENDROOT
BRANCH   1  11
ATOM      8  N   UNL     1      -1.821  11.423  17.571  0.00  0.00    +0.000 N 
ATOM      9  C   UNL     1      -1.183  10.352  18.183  0.00  0.00    +0.000 C 
ATOM     10  O   UNL     1      -1.753   9.478  18.828  0.00  0.00    +0.000 OA
ATOM     11  N   UNL     1       0.191  10.392  17.998  0.00  0.00    +0.000 N 
ATOM     12  H   UNL     1      -1.360  11.803  16.758  0.00  0.00    +0.000 HD
ATOM     13  H   UNL     1       0.587  11.323  17.987  0.00  0.00    +0.000 HD
BRANCH   8  17
ATOM     14  C   UNL     1      -5.909  12.413  18.131  0.00  0.00    +0.000 A 
ATOM     15  C   UNL     1      -5.464  11.911  16.906  0.00  0.00    +0.000 A 
ATOM     16  C   UNL     1      -4.127  11.561  16.722  0.00  0.00    +0.000 A 
ATOM     17  C   UNL     1      -3.190  11.730  17.746  0.00  0.00    +0.000 A 
ATOM     18  C   UNL     1      -3.631  12.209  18.982  0.00  0.00    +0.000 A 
ATOM     19  C   UNL     1      -4.978  12.557  19.170  0.00  0.00    +0.000 A 
BRANCH  14  20
ATOM     20  C   UNL     1      -7.354  12.804  18.307  0.00  0.00    +0.000 C 
BRANCH  20  21
ATOM     21  C   UNL     1      -7.797  12.756  19.775  0.00  0.00    +0.000 C 
BRANCH  21  23
ATOM     22  C   UNL     1      -7.599  14.155  21.857  0.00  0.00    +0.000 C 
ATOM     23  C   UNL     1      -7.915  14.158  20.370  0.00  0.00    +0.000 C 
ENDBRANCH  21  23
ENDBRANCH  20  21
ENDBRANCH  14  20
ENDBRANCH   8  17
ENDBRANCH   1  11
BRANCH   4  24
ATOM     24  O   UNL     1       3.356   6.240  20.054  0.00  0.00    +0.000 OA
BRANCH  24  25
ATOM     25  C   UNL     1       2.983   4.878  19.787  0.00  0.00    +0.000 C 
ATOM     26  C   UNL     1       1.453   4.747  19.909  0.00  0.00    +0.000 C 
ATOM     27  C   UNL     1       1.017   3.305  19.690  0.00  0.00    +0.000 C 
ATOM     28  C   UNL     1       1.432   2.832  18.304  0.00  0.00    +0.000 C 
ATOM     29  C   UNL     1       2.938   2.978  18.096  0.00  0.00    +0.000 C 
ATOM     30  C   UNL     1       3.442   4.417  18.365  0.00  0.00    +0.000 C 
BRANCH  30  31
ATOM     31  N   UNL     1       4.919   4.502  18.196  0.00  0.00    +0.000 N 
ATOM     32  C   UNL     1       5.791   3.899  19.207  0.00  0.00    +0.000 C 
BRANCH  31  33
ATOM     33  C   UNL     1       5.472   4.546  16.906  0.00  0.00    +0.000 A 
ATOM     34  C   UNL     1       6.851   4.764  16.730  0.00  0.00    +0.000 A 
ATOM     35  C   UNL     1       7.434   4.805  15.455  0.00  0.00    +0.000 A 
ATOM     36  C   UNL     1       6.655   4.610  14.324  0.00  0.00    +0.000 A 
ATOM     37  C   UNL     1       5.288   4.397  14.464  0.00  0.00    +0.000 A 
ATOM     38  C   UNL     1       4.712   4.385  15.741  0.00  0.00    +0.000 A 
ENDBRANCH  31  33
ENDBRANCH  30  31
ENDBRANCH  24  25
ENDBRANCH   4  24
TORSDOF 9
ENDMDL
MODEL 8
REMARK VINA RESULT:      -7.8      2.587     11.278
REMARK  Name = 
REMARK  11 active torsions:
REMARK  status: ('A' for Active; 'I' for Inactive)
REMARK    1  A    between atoms: C_1  and  C_2
REMARK    2  A    between atoms: C_2  and  C_3
REMARK    3  A    between atoms: C_3  and  C_4
REMARK    4  A    between atoms: C_4  and  C_5
REMARK    5  A    between atoms: C_8  and  N_9
REMARK    6  A    between atoms: N_12  and  C_13
REMARK    7  A    between atoms: C_16  and  O_17
REMARK    8  A    between atoms: O_17  and  C_18
REMARK    9  A    between atoms: C_23  and  N_24
REMARK   10  A    between atoms: N_24  and  C_25
REMARK   11  A    between atoms: N_24  and  C_26
REMARK                            x       y       z     vdW  Elec       q    Type
REMARK                         _______ _______ _______ _____ _____    ______ ____
ROOT
ATOM      1  C   UNL     1       1.320   8.485  20.774  0.00  0.00    +0.000 A 
ATOM      2  C   UNL     1       1.302   9.546  19.874  0.00  0.00    +0.000 A 
ATOM      3  C   UNL     1       0.709  10.767  20.211  0.00  0.00    +0.000 A 
ATOM      4  C   UNL     1       0.129  10.952  21.471  0.00  0.00    +0.000 A 
ATOM      5  C   UNL     1       0.168   9.880  22.370  0.00  0.00    +0.000 A 
ATOM      6  F   UNL     1      -0.347  10.021  23.603  0.00  0.00    +0.000 F 
ATOM      7  C   UNL     1       0.733   8.647  22.029  0.00  0.00    +0.000 A 
ENDROOT
BRANCH   1  11
ATOM      8  N   UNL     1       3.029   5.805  19.025  0.00  0.00    +0.000 N 
ATOM      9  C   UNL     1       2.544   7.095  19.201  0.00  0.00    +0.000 C 
ATOM     10  O   UNL     1       2.650   7.997  18.377  0.00  0.00    +0.000 OA
ATOM     11  N   UNL     1       1.934   7.256  20.436  0.00  0.00    +0.000 N 
ATOM     12  H   UNL     1       2.538   5.079  19.525  0.00  0.00    +0.000 HD
ATOM     13  H   UNL     1       2.363   6.731  21.189  0.00  0.00    +0.000 HD
BRANCH   8  17
ATOM     14  C   UNL     1       5.544   4.657  15.807  0.00  0.00    +0.000 A 
ATOM     15  C   UNL     1       4.640   3.747  16.357  0.00  0.00    +0.000 A 
ATOM     16  C   UNL     1       3.793   4.124  17.400  0.00  0.00    +0.000 A 
ATOM     17  C   UNL     1       3.846   5.411  17.941  0.00  0.00    +0.000 A 
ATOM     18  C   UNL     1       4.731   6.336  17.380  0.00  0.00    +0.000 A 
ATOM     19  C   UNL     1       5.580   5.958  16.328  0.00  0.00    +0.000 A 
BRANCH  14  20
ATOM     20  C   UNL     1       6.465   4.228  14.694  0.00  0.00    +0.000 C 
BRANCH  20  21
ATOM     21  C   UNL     1       5.701   3.684  13.479  0.00  0.00    +0.000 C 
BRANCH  21  23
ATOM     22  C   UNL     1       7.522   4.886  12.227  0.00  0.00    +0.000 C 
ATOM     23  C   UNL     1       6.565   3.705  12.220  0.00  0.00    +0.000 C 
ENDBRANCH  21  23
ENDBRANCH  20  21
ENDBRANCH  14  20
ENDBRANCH   8  17
ENDBRANCH   1  11
BRANCH   4  24
ATOM     24  O   UNL     1      -0.479  12.107  21.894  0.00  0.00    +0.000 OA
BRANCH  24  25
ATOM     25  C   UNL     1      -1.915  12.164  21.865  0.00  0.00    +0.000 C 
ATOM     26  C   UNL     1      -2.435  12.358  23.301  0.00  0.00    +0.000 C 
ATOM     27  C   UNL     1      -3.958  12.367  23.326  0.00  0.00    +0.000 C 
ATOM     28  C   UNL     1      -4.494  13.501  22.462  0.00  0.00    +0.000 C 
ATOM     29  C   UNL     1      -3.977  13.397  21.028  0.00  0.00    +0.000 C 
ATOM     30  C   UNL     1      -2.432  13.325  20.953  0.00  0.00    +0.000 C 
BRANCH  30  31
ATOM     31  N   UNL     1      -1.976  13.178  19.543  0.00  0.00    +0.000 N 
ATOM     32  C   UNL     1      -0.673  13.722  19.151  0.00  0.00    +0.000 C 
BRANCH  31  33
ATOM     33  C   UNL     1      -2.391  12.070  18.788  0.00  0.00    +0.000 A 
ATOM     34  C   UNL     1      -1.445  11.256  18.138  0.00  0.00    +0.000 A 
ATOM     35  C   UNL     1      -1.827  10.137  17.383  0.00  0.00    +0.000 A 
ATOM     36  C   UNL     1      -3.166   9.793  17.275  0.00  0.00    +0.000 A 
ATOM     37  C   UNL     1      -4.127  10.579  17.903  0.00  0.00    +0.000 A 
ATOM     38  C   UNL     1      -3.736  11.710  18.631  0.00  0.00    +0.000 A 
ENDBRANCH  31  33
ENDBRANCH  30  31
ENDBRANCH  24  25
ENDBRANCH   4  24
TORSDOF 9
ENDMDL
MODEL 9
REMARK VINA RESULT:      -7.8      2.651     11.260
REMARK  Name = 
REMARK  11 active torsions:
REMARK  status: ('A' for Active; 'I' for Inactive)
REMARK    1  A    between atoms: C_1  and  C_2
REMARK    2  A    between atoms: C_2  and  C_3
REMARK    3  A    between atoms: C_3  and  C_4
REMARK    4  A    between atoms: C_4  and  C_5
REMARK    5  A    between atoms: C_8  and  N_9
REMARK    6  A    between atoms: N_12  and  C_13
REMARK    7  A    between atoms: C_16  and  O_17
REMARK    8  A    between atoms: O_17  and  C_18
REMARK    9  A    between atoms: C_23  and  N_24
REMARK   10  A    between atoms: N_24  and  C_25
REMARK   11  A    between atoms: N_24  and  C_26
REMARK                            x       y       z     vdW  Elec       q    Type
REMARK                         _______ _______ _______ _____ _____    ______ ____
ROOT
ATOM      1  C   UNL     1       1.188   8.658  20.921  0.00  0.00    +0.000 A 
ATOM      2  C   UNL     1       1.399   9.828  20.196  0.00  0.00    +0.000 A 
ATOM      3  C   UNL     1       0.775  11.024  20.560  0.00  0.00    +0.000 A 
ATOM      4  C   UNL     1      -0.071  11.075  21.674  0.00  0.00    +0.000 A 
ATOM      5  C   UNL     1      -0.263   9.894  22.401  0.00  0.00    +0.000 A 
ATOM      6  F   UNL     1      -1.040   9.900  23.497  0.00  0.00    +0.000 F 
ATOM      7  C   UNL     1       0.336   8.687  22.024  0.00  0.00    +0.000 A 
ENDROOT
BRANCH   1  11
ATOM      8  N   UNL     1       2.962   6.057  19.119  0.00  0.00    +0.000 N 
ATOM      9  C   UNL     1       2.443   7.330  19.319  0.00  0.00    +0.000 C 
ATOM     10  O   UNL     1       2.522   8.250  18.512  0.00  0.00    +0.000 OA
ATOM     11  N   UNL     1       1.833   7.452  20.559  0.00  0.00    +0.000 N 
ATOM     12  H   UNL     1       2.492   5.309  19.607  0.00  0.00    +0.000 HD
ATOM     13  H   UNL     1       2.279   6.926  21.301  0.00  0.00    +0.000 HD
BRANCH   8  17
ATOM     14  C   UNL     1       5.370   4.967  15.800  0.00  0.00    +0.000 A 
ATOM     15  C   UNL     1       5.506   6.225  16.390  0.00  0.00    +0.000 A 
ATOM     16  C   UNL     1       4.735   6.582  17.496  0.00  0.00    +0.000 A 
ATOM     17  C   UNL     1       3.785   5.704  18.026  0.00  0.00    +0.000 A 
ATOM     18  C   UNL     1       3.660   4.434  17.458  0.00  0.00    +0.000 A 
ATOM     19  C   UNL     1       4.439   4.072  16.347  0.00  0.00    +0.000 A 
BRANCH  14  20
ATOM     20  C   UNL     1       6.197   4.604  14.594  0.00  0.00    +0.000 C 
BRANCH  20  21
ATOM     21  C   UNL     1       5.429   3.721  13.602  0.00  0.00    +0.000 C 
BRANCH  21  23
ATOM     22  C   UNL     1       5.647   2.312  11.529  0.00  0.00    +0.000 C 
ATOM     23  C   UNL     1       6.256   3.437  12.350  0.00  0.00    +0.000 C 
ENDBRANCH  21  23
ENDBRANCH  20  21
ENDBRANCH  14  20
ENDBRANCH   8  17
ENDBRANCH   1  11
BRANCH   4  24
ATOM     24  O   UNL     1      -0.732  12.196  22.109  0.00  0.00    +0.000 OA
BRANCH  24  25
ATOM     25  C   UNL     1      -2.163  12.232  21.975  0.00  0.00    +0.000 C 
ATOM     26  C   UNL     1      -2.789  12.441  23.366  0.00  0.00    +0.000 C 
ATOM     27  C   UNL     1      -4.309  12.429  23.279  0.00  0.00    +0.000 C 
ATOM     28  C   UNL     1      -4.796  13.540  22.360  0.00  0.00    +0.000 C 
ATOM     29  C   UNL     1      -4.174  13.421  20.969  0.00  0.00    +0.000 C 
ATOM     30  C   UNL     1      -2.627  13.370  21.007  0.00  0.00    +0.000 C 
BRANCH  30  31
ATOM     31  N   UNL     1      -2.067  13.208  19.637  0.00  0.00    +0.000 N 
ATOM     32  C   UNL     1      -0.758  13.786  19.326  0.00  0.00    +0.000 C 
BRANCH  31  33
ATOM     33  C   UNL     1      -2.392  12.069  18.882  0.00  0.00    +0.000 A 
ATOM     34  C   UNL     1      -3.738  11.726  18.656  0.00  0.00    +0.000 A 
ATOM     35  C   UNL     1      -4.095  10.600  17.899  0.00  0.00    +0.000 A 
ATOM     36  C   UNL     1      -3.114   9.800  17.333  0.00  0.00    +0.000 A 
ATOM     37  C   UNL     1      -1.774  10.110  17.541  0.00  0.00    +0.000 A 
ATOM     38  C   UNL     1      -1.429  11.221  18.322  0.00  0.00    +0.000 A 
ENDBRANCH  31  33
ENDBRANCH  30  31
ENDBRANCH  24  25
ENDBRANCH   4  24
TORSDOF 9
ENDMDL
