MODEL 1
REMARK VINA RESULT:      -5.8      0.000      0.000
REMARK  Name = 
REMARK  4 active torsions:
REMARK  status: ('A' for Active; 'I' for Inactive)
REMARK    1  A    between atoms: C_1  and  C_2
REMARK    2  A    between atoms: N_4  and  C_5
REMARK    3  A    between atoms: C_9  and  C_10
REMARK    4  A    between atoms: C_10  and  N_11
REMARK                            x       y       z     vdW  Elec       q    Type
REMARK                         _______ _______ _______ _____ _____    ______ ____
ROOT
ATOM      1  C   UNL     1       3.651   4.955  19.025  0.00  0.00    +0.000 A 
ATOM      2  C   UNL     1       2.965   5.012  17.802  0.00  0.00    +0.000 A 
ATOM      3  C   UNL     1       1.741   4.361  17.641  0.00  0.00    +0.000 A 
ATOM      4  C   UNL     1       1.173   3.661  18.705  0.00  0.00    +0.000 A 
ATOM      5  C   UNL     1       1.823   3.615  19.945  0.00  0.00    +0.000 A 
ATOM      6  C   UNL     1       3.063   4.257  20.100  0.00  0.00    +0.000 A 
ENDROOT
BRANCH   1  10
ATOM      7  C   UNL     1       7.433   5.829  19.137  0.00  0.00    +0.000 C 
ATOM      8  C   UNL     1       6.189   5.036  18.851  0.00  0.00    +0.000 C 
ATOM      9  N   UNL     1       6.277   3.879  18.295  0.00  0.00    +0.000 NA
ATOM     10  N   UNL     1       4.914   5.621  19.134  0.00  0.00    +0.000 N 
ATOM     11  H   UNL     1       7.182   3.450  18.049  0.00  0.00    +0.000 HD
ATOM     12  H   UNL     1       4.908   6.633  19.339  0.00  0.00    +0.000 HD
ENDBRANCH   1  10
BRANCH   5  13
ATOM     13  C   UNL     1       1.197   2.877  21.102  0.00  0.00    +0.000 C 
BRANCH  13  14
ATOM     14  N   UNL     1       2.194   2.614  22.134  0.00  0.00    +0.000 NA
ATOM     15  H   UNL     1       2.033   3.263  22.939  0.00  0.00    +0.000 HD
ATOM     16  H   UNL     1       3.141   2.820  21.741  0.00  0.00    +0.000 HD
ENDBRANCH  13  14
ENDBRANCH   5  13
TORSDOF 3
ENDMDL
MODEL 2
REMARK VINA RESULT:      -5.8      2.328      5.053
REMARK  Name = 
REMARK  4 active torsions:
REMARK  status: ('A' for Active; 'I' for Inactive)
REMARK    1  A    between atoms: C_1  and  C_2
REMARK    2  A    between atoms: N_4  and  C_5
REMARK    3  A    between atoms: C_9  and  C_10
REMARK    4  A    between atoms: C_10  and  N_11
REMARK                            x       y       z     vdW  Elec       q    Type
REMARK                         _______ _______ _______ _____ _____    ______ ____
ROOT
ATOM      1  C   UNL     1       4.781   4.177  17.662  0.00  0.00    +0.000 A 
ATOM      2  C   UNL     1       5.196   3.873  16.356  0.00  0.00    +0.000 A 
ATOM      3  C   UNL     1       6.453   4.268  15.897  0.00  0.00    +0.000 A 
ATOM      4  C   UNL     1       7.324   4.956  16.742  0.00  0.00    +0.000 A 
ATOM      5  C   UNL     1       6.947   5.245  18.059  0.00  0.00    +0.000 A 
ATOM      6  C   UNL     1       5.674   4.860  18.514  0.00  0.00    +0.000 A 
ENDROOT
BRANCH   1  10
ATOM      7  C   UNL     1       1.646   2.145  18.720  0.00  0.00    +0.000 C 
ATOM      8  C   UNL     1       3.091   2.435  18.424  0.00  0.00    +0.000 C 
ATOM      9  N   UNL     1       3.972   1.506  18.552  0.00  0.00    +0.000 NA
ATOM     10  N   UNL     1       3.473   3.769  18.079  0.00  0.00    +0.000 N 
ATOM     11  H   UNL     1       3.728   0.545  18.834  0.00  0.00    +0.000 HD
ATOM     12  H   UNL     1       2.767   4.506  18.239  0.00  0.00    +0.000 HD
ENDBRANCH   1  10
BRANCH   5  13
ATOM     13  C   UNL     1       7.898   5.967  18.979  0.00  0.00    +0.000 C 
BRANCH  13  14
ATOM     14  N   UNL     1       7.865   5.372  20.311  0.00  0.00    +0.000 NA
ATOM     15  H   UNL     1       8.715   5.676  20.842  0.00  0.00    +0.000 HD
ATOM     16  H   UNL     1       7.905   4.332  20.211  0.00  0.00    +0.000 HD
ENDBRANCH  13  14
ENDBRANCH   5  13
TORSDOF 3
ENDMDL
MODEL 3
REMARK VINA RESULT:      -5.7      1.017      1.269
REMARK  Name = 
REMARK  4 active torsions:
REMARK  status: ('A' for Active; 'I' for Inactive)
REMARK    1  A    between atoms: C_1  and  C_2
REMARK    2  A    between atoms: N_4  and  C_5
REMARK    3  A    between atoms: C_9  and  C_10
REMARK    4  A    between atoms: C_10  and  N_11
REMARK                            x       y       z     vdW  Elec       q    Type
REMARK                         _______ _______ _______ _____ _____    ______ ____
ROOT
ATOM      1  C   UNL     1       3.932   3.648  18.287  0.00  0.00    +0.000 A 
ATOM      2  C   UNL     1       3.002   4.247  17.423  0.00  0.00    +0.000 A 
ATOM      3  C   UNL     1       1.641   4.250  17.732  0.00  0.00    +0.000 A 
ATOM      4  C   UNL     1       1.189   3.673  18.918  0.00  0.00    +0.000 A 
ATOM      5  C   UNL     1       2.100   3.096  19.812  0.00  0.00    +0.000 A 
ATOM      6  C   UNL     1       3.468   3.080  19.492  0.00  0.00    +0.000 A 
ENDROOT
BRANCH   1  10
ATOM      7  C   UNL     1       7.655   4.581  17.700  0.00  0.00    +0.000 C 
ATOM      8  C   UNL     1       6.268   4.655  18.276  0.00  0.00    +0.000 C 
ATOM      9  N   UNL     1       5.976   5.568  19.134  0.00  0.00    +0.000 NA
ATOM     10  N   UNL     1       5.315   3.652  17.916  0.00  0.00    +0.000 N 
ATOM     11  H   UNL     1       6.656   6.281  19.438  0.00  0.00    +0.000 HD
ATOM     12  H   UNL     1       5.685   2.818  17.430  0.00  0.00    +0.000 HD
ENDBRANCH   1  10
BRANCH   5  13
ATOM     13  C   UNL     1       1.613   2.494  21.106  0.00  0.00    +0.000 C 
BRANCH  13  14
ATOM     14  N   UNL     1       2.308   3.096  22.239  0.00  0.00    +0.000 NA
ATOM     15  H   UNL     1       2.700   2.337  22.843  0.00  0.00    +0.000 HD
ATOM     16  H   UNL     1       1.612   3.632  22.808  0.00  0.00    +0.000 HD
ENDBRANCH  13  14
ENDBRANCH   5  13
TORSDOF 3
ENDMDL
MODEL 4
REMARK VINA RESULT:      -5.7      1.258      1.474
REMARK  Name = 
REMARK  4 active torsions:
REMARK  status: ('A' for Active; 'I' for Inactive)
REMARK    1  A    between atoms: C_1  and  C_2
REMARK    2  A    between atoms: N_4  and  C_5
REMARK    3  A    between atoms: C_9  and  C_10
REMARK    4  A    between atoms: C_10  and  N_11
REMARK                            x       y       z     vdW  Elec       q    Type
REMARK                         _______ _______ _______ _____ _____    ______ ____
ROOT
ATOM      1  C   UNL     1       4.306   3.384  18.831  0.00  0.00    +0.000 A 
ATOM      2  C   UNL     1       3.836   2.883  17.607  0.00  0.00    +0.000 A 
ATOM      3  C   UNL     1       2.528   2.412  17.484  0.00  0.00    +0.000 A 
ATOM      4  C   UNL     1       1.662   2.455  18.576  0.00  0.00    +0.000 A 
ATOM      5  C   UNL     1       2.096   2.979  19.800  0.00  0.00    +0.000 A 
ATOM      6  C   UNL     1       3.419   3.437  19.926  0.00  0.00    +0.000 A 
ENDROOT
BRANCH   1  10
ATOM      7  C   UNL     1       7.625   5.369  18.488  0.00  0.00    +0.000 C 
ATOM      8  C   UNL     1       6.147   5.097  18.446  0.00  0.00    +0.000 C 
ATOM      9  N   UNL     1       5.334   6.017  18.062  0.00  0.00    +0.000 NA
ATOM     10  N   UNL     1       5.663   3.835  18.912  0.00  0.00    +0.000 N 
ATOM     11  H   UNL     1       5.655   6.948  17.755  0.00  0.00    +0.000 HD
ATOM     12  H   UNL     1       6.334   3.248  19.433  0.00  0.00    +0.000 HD
ENDBRANCH   1  10
BRANCH   5  13
ATOM     13  C   UNL     1       1.153   3.046  20.974  0.00  0.00    +0.000 C 
BRANCH  13  14
ATOM     14  N   UNL     1       1.835   2.639  22.197  0.00  0.00    +0.000 NA
ATOM     15  H   UNL     1       2.671   2.059  21.947  0.00  0.00    +0.000 HD
ATOM     16  H   UNL     1       1.186   2.039  22.757  0.00  0.00    +0.000 HD
ENDBRANCH  13  14
ENDBRANCH   5  13
TORSDOF 3
ENDMDL
MODEL 5
REMARK VINA RESULT:      -5.7      1.890      4.845
REMARK  Name = 
REMARK  4 active torsions:
REMARK  status: ('A' for Active; 'I' for Inactive)
REMARK    1  A    between atoms: C_1  and  C_2
REMARK    2  A    between atoms: N_4  and  C_5
REMARK    3  A    between atoms: C_9  and  C_10
REMARK    4  A    between atoms: C_10  and  N_11
REMARK                            x       y       z     vdW  Elec       q    Type
REMARK                         _______ _______ _______ _____ _____    ______ ____
ROOT
ATOM      1  C   UNL     1       4.085   4.986  18.663  0.00  0.00    +0.000 A 
ATOM      2  C   UNL     1       3.745   5.848  17.609  0.00  0.00    +0.000 A 
ATOM      3  C   UNL     1       4.711   6.659  17.012  0.00  0.00    +0.000 A 
ATOM      4  C   UNL     1       6.036   6.607  17.443  0.00  0.00    +0.000 A 
ATOM      5  C   UNL     1       6.408   5.732  18.472  0.00  0.00    +0.000 A 
ATOM      6  C   UNL     1       5.430   4.929  19.083  0.00  0.00    +0.000 A 
ENDROOT
BRANCH   1  10
ATOM      7  C   UNL     1       1.286   3.578  20.956  0.00  0.00    +0.000 C 
ATOM      8  C   UNL     1       2.240   4.580  20.367  0.00  0.00    +0.000 C 
ATOM      9  N   UNL     1       2.264   5.785  20.815  0.00  0.00    +0.000 NA
ATOM     10  N   UNL     1       3.054   4.190  19.258  0.00  0.00    +0.000 N 
ATOM     11  H   UNL     1       1.662   6.102  21.590  0.00  0.00    +0.000 HD
ATOM     12  H   UNL     1       2.806   3.301  18.794  0.00  0.00    +0.000 HD
ENDBRANCH   1  10
BRANCH   5  13
ATOM     13  C   UNL     1       7.844   5.659  18.923  0.00  0.00    +0.000 C 
BRANCH  13  14
ATOM     14  N   UNL     1       7.914   5.518  20.373  0.00  0.00    +0.000 NA
ATOM     15  H   UNL     1       7.155   6.091  20.810  0.00  0.00    +0.000 HD
ATOM     16  H   UNL     1       8.832   5.899  20.700  0.00  0.00    +0.000 HD
ENDBRANCH  13  14
ENDBRANCH   5  13
TORSDOF 3
ENDMDL
MODEL 6
REMARK VINA RESULT:      -5.7      3.281      5.195
REMARK  Name = 
REMARK  4 active torsions:
REMARK  status: ('A' for Active; 'I' for Inactive)
REMARK    1  A    between atoms: C_1  and  C_2
REMARK    2  A    between atoms: N_4  and  C_5
REMARK    3  A    between atoms: C_9  and  C_10
REMARK    4  A    between atoms: C_10  and  N_11
REMARK                            x       y       z     vdW  Elec       q    Type
REMARK                         _______ _______ _______ _____ _____    ______ ____
ROOT
ATOM      1  C   UNL     1       5.929   4.092  16.375  0.00  0.00    +0.000 A 
ATOM      2  C   UNL     1       4.668   4.091  16.990  0.00  0.00    +0.000 A 
ATOM      3  C   UNL     1       4.503   4.602  18.279  0.00  0.00    +0.000 A 
ATOM      4  C   UNL     1       5.591   5.142  18.964  0.00  0.00    +0.000 A 
ATOM      5  C   UNL     1       6.854   5.184  18.360  0.00  0.00    +0.000 A 
ATOM      6  C   UNL     1       7.021   4.654  17.069  0.00  0.00    +0.000 A 
ENDROOT
BRANCH   1  10
ATOM      7  C   UNL     1       6.470   3.549  12.568  0.00  0.00    +0.000 C 
ATOM      8  C   UNL     1       6.521   4.236  13.904  0.00  0.00    +0.000 C 
ATOM      9  N   UNL     1       7.048   5.405  14.006  0.00  0.00    +0.000 NA
ATOM     10  N   UNL     1       6.051   3.537  15.060  0.00  0.00    +0.000 N 
ATOM     11  H   UNL     1       7.426   5.916  13.194  0.00  0.00    +0.000 HD
ATOM     12  H   UNL     1       5.879   2.524  14.948  0.00  0.00    +0.000 HD
ENDBRANCH   1  10
BRANCH   5  13
ATOM     13  C   UNL     1       8.024   5.789  19.092  0.00  0.00    +0.000 C 
BRANCH  13  14
ATOM     14  N   UNL     1       7.998   5.402  20.498  0.00  0.00    +0.000 NA
ATOM     15  H   UNL     1       8.599   6.060  21.046  0.00  0.00    +0.000 HD
ATOM     16  H   UNL     1       8.409   4.444  20.586  0.00  0.00    +0.000 HD
ENDBRANCH  13  14
ENDBRANCH   5  13
TORSDOF 3
ENDMDL
MODEL 7
REMARK VINA RESULT:      -5.7      2.833      5.780
REMARK  Name = 
REMARK  4 active torsions:
REMARK  status: ('A' for Active; 'I' for Inactive)
REMARK    1  A    between atoms: C_1  and  C_2
REMARK    2  A    between atoms: N_4  and  C_5
REMARK    3  A    between atoms: C_9  and  C_10
REMARK    4  A    between atoms: C_10  and  N_11
REMARK                            x       y       z     vdW  Elec       q    Type
REMARK                         _______ _______ _______ _____ _____    ______ ____
ROOT
ATOM      1  C   UNL     1       4.639   4.023  17.693  0.00  0.00    +0.000 A 
ATOM      2  C   UNL     1       5.623   4.400  18.619  0.00  0.00    +0.000 A 
ATOM      3  C   UNL     1       6.912   4.729  18.195  0.00  0.00    +0.000 A 
ATOM      4  C   UNL     1       7.231   4.709  16.838  0.00  0.00    +0.000 A 
ATOM      5  C   UNL     1       6.258   4.367  15.890  0.00  0.00    +0.000 A 
ATOM      6  C   UNL     1       4.966   4.020  16.320  0.00  0.00    +0.000 A 
ENDROOT
BRANCH   1  10
ATOM      7  C   UNL     1       1.417   2.140  18.767  0.00  0.00    +0.000 C 
ATOM      8  C   UNL     1       2.853   2.342  18.369  0.00  0.00    +0.000 C 
ATOM      9  N   UNL     1       3.642   1.330  18.274  0.00  0.00    +0.000 NA
ATOM     10  N   UNL     1       3.338   3.674  18.179  0.00  0.00    +0.000 N 
ATOM     11  H   UNL     1       3.327   0.363  18.441  0.00  0.00    +0.000 HD
ATOM     12  H   UNL     1       2.728   4.438  18.513  0.00  0.00    +0.000 HD
ENDBRANCH   1  10
BRANCH   5  13
ATOM     13  C   UNL     1       6.597   4.368  14.422  0.00  0.00    +0.000 C 
BRANCH  13  14
ATOM     14  N   UNL     1       7.607   5.381  14.135  0.00  0.00    +0.000 NA
ATOM     15  H   UNL     1       7.648   6.059  14.932  0.00  0.00    +0.000 HD
ATOM     16  H   UNL     1       7.315   5.909  13.281  0.00  0.00    +0.000 HD
ENDBRANCH  13  14
ENDBRANCH   5  13
TORSDOF 3
ENDMDL
MODEL 8
REMARK VINA RESULT:      -5.7      2.801      5.463
REMARK  Name = 
REMARK  4 active torsions:
REMARK  status: ('A' for Active; 'I' for Inactive)
REMARK    1  A    between atoms: C_1  and  C_2
REMARK    2  A    between atoms: N_4  and  C_5
REMARK    3  A    between atoms: C_9  and  C_10
REMARK    4  A    between atoms: C_10  and  N_11
REMARK                            x       y       z     vdW  Elec       q    Type
REMARK                         _______ _______ _______ _____ _____    ______ ____
ROOT
ATOM      1  C   UNL     1       3.816   4.834  17.826  0.00  0.00    +0.000 A 
ATOM      2  C   UNL     1       3.754   6.234  17.889  0.00  0.00    +0.000 A 
ATOM      3  C   UNL     1       4.523   7.021  17.029  0.00  0.00    +0.000 A 
ATOM      4  C   UNL     1       5.348   6.421  16.079  0.00  0.00    +0.000 A 
ATOM      5  C   UNL     1       5.405   5.026  15.974  0.00  0.00    +0.000 A 
ATOM      6  C   UNL     1       4.643   4.235  16.851  0.00  0.00    +0.000 A 
ENDROOT
BRANCH   1  10
ATOM      7  C   UNL     1       0.926   3.017  19.675  0.00  0.00    +0.000 C 
ATOM      8  C   UNL     1       1.653   3.714  18.559  0.00  0.00    +0.000 C 
ATOM      9  N   UNL     1       1.061   3.916  17.434  0.00  0.00    +0.000 NA
ATOM     10  N   UNL     1       3.025   4.071  18.743  0.00  0.00    +0.000 N 
ATOM     11  H   UNL     1       0.084   3.636  17.263  0.00  0.00    +0.000 HD
ATOM     12  H   UNL     1       3.502   3.659  19.562  0.00  0.00    +0.000 HD
ENDBRANCH   1  10
BRANCH   5  13
ATOM     13  C   UNL     1       6.279   4.379  14.931  0.00  0.00    +0.000 C 
BRANCH  13  14
ATOM     14  N   UNL     1       7.424   5.232  14.629  0.00  0.00    +0.000 NA
ATOM     15  H   UNL     1       8.116   4.688  14.061  0.00  0.00    +0.000 HD
ATOM     16  H   UNL     1       7.887   5.498  15.529  0.00  0.00    +0.000 HD
ENDBRANCH  13  14
ENDBRANCH   5  13
TORSDOF 3
ENDMDL
MODEL 9
REMARK VINA RESULT:      -5.7      1.721      4.793
REMARK  Name = 
REMARK  4 active torsions:
REMARK  status: ('A' for Active; 'I' for Inactive)
REMARK    1  A    between atoms: C_1  and  C_2
REMARK    2  A    between atoms: N_4  and  C_5
REMARK    3  A    between atoms: C_9  and  C_10
REMARK    4  A    between atoms: C_10  and  N_11
REMARK                            x       y       z     vdW  Elec       q    Type
REMARK                         _______ _______ _______ _____ _____    ______ ____
ROOT
ATOM      1  C   UNL     1       4.309   4.657  18.498  0.00  0.00    +0.000 A 
ATOM      2  C   UNL     1       4.428   4.090  17.220  0.00  0.00    +0.000 A 
ATOM      3  C   UNL     1       5.645   4.118  16.538  0.00  0.00    +0.000 A 
ATOM      4  C   UNL     1       6.768   4.695  17.131  0.00  0.00    +0.000 A 
ATOM      5  C   UNL     1       6.684   5.240  18.418  0.00  0.00    +0.000 A 
ATOM      6  C   UNL     1       5.453   5.225  19.096  0.00  0.00    +0.000 A 
ENDROOT
BRANCH   1  10
ATOM      7  C   UNL     1       1.159   3.634  20.525  0.00  0.00    +0.000 C 
ATOM      8  C   UNL     1       2.575   3.588  20.022  0.00  0.00    +0.000 C 
ATOM      9  N   UNL     1       3.374   2.668  20.435  0.00  0.00    +0.000 NA
ATOM     10  N   UNL     1       3.033   4.622  19.148  0.00  0.00    +0.000 N 
ATOM     11  H   UNL     1       3.079   1.931  21.094  0.00  0.00    +0.000 HD
ATOM     12  H   UNL     1       2.426   5.454  19.060  0.00  0.00    +0.000 HD
ENDBRANCH   1  10
BRANCH   5  13
ATOM     13  C   UNL     1       7.904   5.842  19.067  0.00  0.00    +0.000 C 
BRANCH  13  14
ATOM     14  N   UNL     1       8.004   5.410  20.457  0.00  0.00    +0.000 NA
ATOM     15  H   UNL     1       8.666   6.042  20.966  0.00  0.00    +0.000 HD
ATOM     16  H   UNL     1       8.405   4.444  20.477  0.00  0.00    +0.000 HD
ENDBRANCH  13  14
ENDBRANCH   5  13
TORSDOF 3
ENDMDL
