MODEL 1
REMARK VINA RESULT:      -9.3      0.000      0.000
REMARK  Name = 
REMARK  9 active torsions:
REMARK  status: ('A' for Active; 'I' for Inactive)
REMARK    1  A    between atoms: C_1  and  C_2
REMARK    2  A    between atoms: C_2  and  C_3
REMARK    3  A    between atoms: C_2  and  N_4
REMARK    4  A    between atoms: C_6  and  C_7
REMARK    5  A    between atoms: C_7  and  C_9
REMARK    6  A    between atoms: C_13  and  N_14
REMARK    7  A    between atoms: C_15  and  C_17
REMARK    8  A    between atoms: C_17  and  N_18
REMARK    9  A    between atoms: C_20  and  C_21
REMARK                            x       y       z     vdW  Elec       q    Type
REMARK                         _______ _______ _______ _____ _____    ______ ____
ROOT
ATOM      1  C   UNL     1       2.166   7.934  18.852  0.00  0.00    +0.000 A 
ATOM      2  C   UNL     1       1.547   7.498  20.014  0.00  0.00    +0.000 A 
ATOM      3  N   UNL     1       1.851   6.340  20.636  0.00  0.00    +0.000 NA
ATOM      4  C   UNL     1       2.807   5.572  20.058  0.00  0.00    +0.000 A 
ATOM      5  C   UNL     1       3.478   5.895  18.877  0.00  0.00    +0.000 A 
ATOM      6  C   UNL     1       3.126   7.101  18.258  0.00  0.00    +0.000 A 
ENDROOT
BRANCH   5   7
ATOM      7  N   UNL     1       4.468   5.075  18.280  0.00  0.00    +0.000 N 
ATOM      8  C   UNL     1       5.751   5.488  17.946  0.00  0.00    +0.000 C 
ATOM      9  O   UNL     1       6.179   6.637  18.049  0.00  0.00    +0.000 OA
ATOM     10  H   UNL     1       4.169   4.158  17.959  0.00  0.00    +0.000 HD
BRANCH   8  11
ATOM     11  C   UNL     1       6.642   4.407  17.380  0.00  0.00    +0.000 C 
BRANCH  11  12
ATOM     12  N   UNL     1       6.703   4.530  15.945  0.00  0.00    +0.000 N 
ATOM     13  C   UNL     1       6.049   3.799  15.003  0.00  0.00    +0.000 A 
ATOM     14  C   UNL     1       6.592   4.230  13.805  0.00  0.00    +0.000 A 
ATOM     15  N   UNL     1       7.499   5.232  14.074  0.00  0.00    +0.000 NA
ATOM     16  N   UNL     1       7.553   5.407  15.387  0.00  0.00    +0.000 NA
BRANCH  14  17
ATOM     17  C   UNL     1       6.352   3.755  12.417  0.00  0.00    +0.000 C 
ATOM     18  F   UNL     1       6.973   4.541  11.496  0.00  0.00    +0.000 F 
ATOM     19  F   UNL     1       6.806   2.490  12.214  0.00  0.00    +0.000 F 
ATOM     20  F   UNL     1       5.032   3.759  12.097  0.00  0.00    +0.000 F 
ENDBRANCH  14  17
ENDBRANCH  11  12
ENDBRANCH   8  11
ENDBRANCH   5   7
BRANCH   1  21
ATOM     21  C   UNL     1       1.774   9.218  18.222  0.00  0.00    +0.000 C 
ATOM     22  O   UNL     1       2.352   9.550  17.187  0.00  0.00    +0.000 OA
BRANCH  21  25
ATOM     23  N   UNL     1      -0.401  11.422  20.202  0.00  0.00    +0.000 N 
ATOM     24  C   UNL     1       0.814  10.818  19.963  0.00  0.00    +0.000 A 
ATOM     25  C   UNL     1       0.719  10.040  18.822  0.00  0.00    +0.000 A 
ATOM     26  C   UNL     1      -0.609  10.232  18.313  0.00  0.00    +0.000 A 
ATOM     27  C   UNL     1      -1.305   9.721  17.203  0.00  0.00    +0.000 A 
ATOM     28  N   UNL     1      -2.582  10.100  16.944  0.00  0.00    +0.000 NA
ATOM     29  C   UNL     1      -3.169  10.997  17.765  0.00  0.00    +0.000 A 
ATOM     30  C   UNL     1      -2.571  11.544  18.886  0.00  0.00    +0.000 A 
ATOM     31  F   UNL     1      -3.225  12.437  19.639  0.00  0.00    +0.000 F 
ATOM     32  C   UNL     1      -1.268  11.128  19.169  0.00  0.00    +0.000 A 
BRANCH  23  34
ATOM     33  C   UNL     1      -0.800  11.356  22.651  0.00  0.00    +0.000 C 
ATOM     34  C   UNL     1      -0.707  12.223  21.392  0.00  0.00    +0.000 C 
ATOM     35  C   UNL     1       0.289  13.366  21.583  0.00  0.00    +0.000 C 
ENDBRANCH  23  34
ENDBRANCH  21  25
ENDBRANCH   1  21
TORSDOF 7
ENDMDL
MODEL 2
REMARK VINA RESULT:      -9.2      0.784      2.492
REMARK  Name = 
REMARK  9 active torsions:
REMARK  status: ('A' for Active; 'I' for Inactive)
REMARK    1  A    between atoms: C_1  and  C_2
REMARK    2  A    between atoms: C_2  and  C_3
REMARK    3  A    between atoms: C_2  and  N_4
REMARK    4  A    between atoms: C_6  and  C_7
REMARK    5  A    between atoms: C_7  and  C_9
REMARK    6  A    between atoms: C_13  and  N_14
REMARK    7  A    between atoms: C_15  and  C_17
REMARK    8  A    between atoms: C_17  and  N_18
REMARK    9  A    between atoms: C_20  and  C_21
REMARK                            x       y       z     vdW  Elec       q    Type
REMARK                         _______ _______ _______ _____ _____    ______ ____
ROOT
ATOM      1  C   UNL     1       2.390   8.037  18.593  0.00  0.00    +0.000 A 
ATOM      2  C   UNL     1       1.756   7.557  19.729  0.00  0.00    +0.000 A 
ATOM      3  N   UNL     1       2.060   6.380  20.316  0.00  0.00    +0.000 NA
ATOM      4  C   UNL     1       3.032   5.640  19.728  0.00  0.00    +0.000 A 
ATOM      5  C   UNL     1       3.718   6.009  18.569  0.00  0.00    +0.000 A 
ATOM      6  C   UNL     1       3.366   7.232  17.986  0.00  0.00    +0.000 A 
ENDROOT
BRANCH   5   7
ATOM      7  N   UNL     1       4.725   5.218  17.960  0.00  0.00    +0.000 N 
ATOM      8  C   UNL     1       6.090   5.368  18.163  0.00  0.00    +0.000 C 
ATOM      9  O   UNL     1       6.617   6.254  18.835  0.00  0.00    +0.000 OA
ATOM     10  H   UNL     1       4.424   4.582  17.226  0.00  0.00    +0.000 HD
BRANCH   8  11
ATOM     11  C   UNL     1       6.956   4.357  17.449  0.00  0.00    +0.000 C 
BRANCH  11  12
ATOM     12  N   UNL     1       6.758   4.467  16.026  0.00  0.00    +0.000 N 
ATOM     13  C   UNL     1       6.078   3.630  15.197  0.00  0.00    +0.000 A 
ATOM     14  C   UNL     1       6.340   4.123  13.931  0.00  0.00    +0.000 A 
ATOM     15  N   UNL     1       7.112   5.257  14.057  0.00  0.00    +0.000 NA
ATOM     16  N   UNL     1       7.356   5.457  15.344  0.00  0.00    +0.000 NA
BRANCH  14  17
ATOM     17  C   UNL     1       5.950   3.595  12.597  0.00  0.00    +0.000 C 
ATOM     18  F   UNL     1       6.699   4.136  11.597  0.00  0.00    +0.000 F 
ATOM     19  F   UNL     1       6.099   2.248  12.505  0.00  0.00    +0.000 F 
ATOM     20  F   UNL     1       4.654   3.873  12.297  0.00  0.00    +0.000 F 
ENDBRANCH  14  17
ENDBRANCH  11  12
ENDBRANCH   8  11
ENDBRANCH   5   7
BRANCH   1  21
ATOM     21  C   UNL     1       1.997   9.339  18.002  0.00  0.00    +0.000 C 
ATOM     22  O   UNL     1       2.796   9.890  17.244  0.00  0.00    +0.000 OA
BRANCH  21  25
ATOM     23  N   UNL     1      -1.483  10.504  18.192  0.00  0.00    +0.000 N 
ATOM     24  C   UNL     1      -0.478   9.791  17.576  0.00  0.00    +0.000 A 
ATOM     25  C   UNL     1       0.689   9.922  18.310  0.00  0.00    +0.000 A 
ATOM     26  C   UNL     1       0.353  10.710  19.461  0.00  0.00    +0.000 A 
ATOM     27  C   UNL     1       1.092  11.185  20.560  0.00  0.00    +0.000 A 
ATOM     28  N   UNL     1       0.498  11.910  21.541  0.00  0.00    +0.000 NA
ATOM     29  C   UNL     1      -0.828  12.154  21.451  0.00  0.00    +0.000 A 
ATOM     30  C   UNL     1      -1.633  11.742  20.405  0.00  0.00    +0.000 A 
ATOM     31  F   UNL     1      -2.943  12.019  20.405  0.00  0.00    +0.000 F 
ATOM     32  C   UNL     1      -1.014  11.022  19.381  0.00  0.00    +0.000 A 
BRANCH  23  34
ATOM     33  C   UNL     1      -2.780  10.959  16.125  0.00  0.00    +0.000 C 
ATOM     34  C   UNL     1      -2.826  10.692  17.632  0.00  0.00    +0.000 C 
ATOM     35  C   UNL     1      -3.749   9.518  17.956  0.00  0.00    +0.000 C 
ENDBRANCH  23  34
ENDBRANCH  21  25
ENDBRANCH   1  21
TORSDOF 7
ENDMDL
MODEL 3
REMARK VINA RESULT:      -9.0      0.781      1.003
REMARK  Name = 
REMARK  9 active torsions:
REMARK  status: ('A' for Active; 'I' for Inactive)
REMARK    1  A    between atoms: C_1  and  C_2
REMARK    2  A    between atoms: C_2  and  C_3
REMARK    3  A    between atoms: C_2  and  N_4
REMARK    4  A    between atoms: C_6  and  C_7
REMARK    5  A    between atoms: C_7  and  C_9
REMARK    6  A    between atoms: C_13  and  N_14
REMARK    7  A    between atoms: C_15  and  C_17
REMARK    8  A    between atoms: C_17  and  N_18
REMARK    9  A    between atoms: C_20  and  C_21
REMARK                            x       y       z     vdW  Elec       q    Type
REMARK                         _______ _______ _______ _____ _____    ______ ____
ROOT
ATOM      1  C   UNL     1       2.184   7.902  18.870  0.00  0.00    +0.000 A 
ATOM      2  C   UNL     1       1.513   7.277  19.909  0.00  0.00    +0.000 A 
ATOM      3  N   UNL     1       1.933   6.134  20.493  0.00  0.00    +0.000 NA
ATOM      4  C   UNL     1       3.069   5.582  20.001  0.00  0.00    +0.000 A 
ATOM      5  C   UNL     1       3.813   6.107  18.943  0.00  0.00    +0.000 A 
ATOM      6  C   UNL     1       3.338   7.287  18.358  0.00  0.00    +0.000 A 
ENDROOT
BRANCH   5   7
ATOM      7  N   UNL     1       4.993   5.510  18.433  0.00  0.00    +0.000 N 
ATOM      8  C   UNL     1       5.040   4.599  17.386  0.00  0.00    +0.000 C 
ATOM      9  O   UNL     1       4.061   4.127  16.809  0.00  0.00    +0.000 OA
ATOM     10  H   UNL     1       5.848   5.666  18.961  0.00  0.00    +0.000 HD
BRANCH   8  11
ATOM     11  C   UNL     1       6.428   4.158  16.985  0.00  0.00    +0.000 C 
BRANCH  11  12
ATOM     12  N   UNL     1       6.624   4.393  15.577  0.00  0.00    +0.000 N 
ATOM     13  C   UNL     1       6.119   3.698  14.522  0.00  0.00    +0.000 A 
ATOM     14  C   UNL     1       6.749   4.252  13.421  0.00  0.00    +0.000 A 
ATOM     15  N   UNL     1       7.553   5.284  13.853  0.00  0.00    +0.000 NA
ATOM     16  N   UNL     1       7.463   5.361  15.174  0.00  0.00    +0.000 NA
BRANCH  14  17
ATOM     17  C   UNL     1       6.682   3.869  11.986  0.00  0.00    +0.000 C 
ATOM     18  F   UNL     1       7.288   2.673  11.751  0.00  0.00    +0.000 F 
ATOM     19  F   UNL     1       5.405   3.751  11.537  0.00  0.00    +0.000 F 
ATOM     20  F   UNL     1       7.302   4.776  11.186  0.00  0.00    +0.000 F 
ENDBRANCH  14  17
ENDBRANCH  11  12
ENDBRANCH   8  11
ENDBRANCH   5   7
BRANCH   1  21
ATOM     21  C   UNL     1       1.659   9.154  18.274  0.00  0.00    +0.000 C 
ATOM     22  O   UNL     1       2.169   9.551  17.226  0.00  0.00    +0.000 OA
BRANCH  21  25
ATOM     23  N   UNL     1      -0.682  10.990  20.432  0.00  0.00    +0.000 N 
ATOM     24  C   UNL     1       0.547  10.417  20.194  0.00  0.00    +0.000 A 
ATOM     25  C   UNL     1       0.555   9.870  18.922  0.00  0.00    +0.000 A 
ATOM     26  C   UNL     1      -0.719  10.181  18.342  0.00  0.00    +0.000 A 
ATOM     27  C   UNL     1      -1.313   9.901  17.097  0.00  0.00    +0.000 A 
ATOM     28  N   UNL     1      -2.559  10.349  16.801  0.00  0.00    +0.000 NA
ATOM     29  C   UNL     1      -3.216  11.087  17.721  0.00  0.00    +0.000 A 
ATOM     30  C   UNL     1      -2.723  11.401  18.974  0.00  0.00    +0.000 A 
ATOM     31  F   UNL     1      -3.440  12.150  19.820  0.00  0.00    +0.000 F 
ATOM     32  C   UNL     1      -1.452  10.913  19.289  0.00  0.00    +0.000 A 
BRANCH  23  34
ATOM     33  C   UNL     1      -0.764  10.622  22.886  0.00  0.00    +0.000 C 
ATOM     34  C   UNL     1      -1.094  11.559  21.720  0.00  0.00    +0.000 C 
ATOM     35  C   UNL     1      -0.501  12.949  21.946  0.00  0.00    +0.000 C 
ENDBRANCH  23  34
ENDBRANCH  21  25
ENDBRANCH   1  21
TORSDOF 7
ENDMDL
MODEL 4
REMARK VINA RESULT:      -8.6      4.040      5.288
REMARK  Name = 
REMARK  9 active torsions:
REMARK  status: ('A' for Active; 'I' for Inactive)
REMARK    1  A    between atoms: C_1  and  C_2
REMARK    2  A    between atoms: C_2  and  C_3
REMARK    3  A    between atoms: C_2  and  N_4
REMARK    4  A    between atoms: C_6  and  C_7
REMARK    5  A    between atoms: C_7  and  C_9
REMARK    6  A    between atoms: C_13  and  N_14
REMARK    7  A    between atoms: C_15  and  C_17
REMARK    8  A    between atoms: C_17  and  N_18
REMARK    9  A    between atoms: C_20  and  C_21
REMARK                            x       y       z     vdW  Elec       q    Type
REMARK                         _______ _______ _______ _____ _____    ______ ____
ROOT
ATOM      1  C   UNL     1      -0.153  10.973  20.612  0.00  0.00    +0.000 A 
ATOM      2  C   UNL     1      -0.323  10.674  21.955  0.00  0.00    +0.000 A 
ATOM      3  N   UNL     1       0.208   9.588  22.556  0.00  0.00    +0.000 NA
ATOM      4  C   UNL     1       0.929   8.751  21.770  0.00  0.00    +0.000 A 
ATOM      5  C   UNL     1       1.145   8.935  20.403  0.00  0.00    +0.000 A 
ATOM      6  C   UNL     1       0.569  10.068  19.817  0.00  0.00    +0.000 A 
ENDROOT
BRANCH   5   7
ATOM      7  N   UNL     1       1.894   8.043  19.594  0.00  0.00    +0.000 N 
ATOM      8  C   UNL     1       2.337   8.315  18.306  0.00  0.00    +0.000 C 
ATOM      9  O   UNL     1       2.077   9.332  17.663  0.00  0.00    +0.000 OA
ATOM     10  H   UNL     1       1.998   7.093  19.937  0.00  0.00    +0.000 HD
BRANCH   8  11
ATOM     11  C   UNL     1       3.173   7.227  17.676  0.00  0.00    +0.000 C 
BRANCH  11  12
ATOM     12  N   UNL     1       2.947   5.981  18.364  0.00  0.00    +0.000 N 
ATOM     13  C   UNL     1       2.051   4.999  18.070  0.00  0.00    +0.000 A 
ATOM     14  C   UNL     1       2.153   4.120  19.134  0.00  0.00    +0.000 A 
ATOM     15  N   UNL     1       3.136   4.578  19.984  0.00  0.00    +0.000 NA
ATOM     16  N   UNL     1       3.615   5.715  19.498  0.00  0.00    +0.000 NA
BRANCH  14  17
ATOM     17  C   UNL     1       1.375   2.891  19.439  0.00  0.00    +0.000 C 
ATOM     18  F   UNL     1       0.429   2.640  18.492  0.00  0.00    +0.000 F 
ATOM     19  F   UNL     1       2.157   1.782  19.505  0.00  0.00    +0.000 F 
ATOM     20  F   UNL     1       0.716   2.983  20.623  0.00  0.00    +0.000 F 
ENDBRANCH  14  17
ENDBRANCH  11  12
ENDBRANCH   8  11
ENDBRANCH   5   7
BRANCH   1  21
ATOM     21  C   UNL     1      -0.772  12.183  20.022  0.00  0.00    +0.000 C 
ATOM     22  O   UNL     1      -0.075  13.192  19.916  0.00  0.00    +0.000 OA
BRANCH  21  25
ATOM     23  N   UNL     1      -4.401  12.396  19.488  0.00  0.00    +0.000 N 
ATOM     24  C   UNL     1      -3.274  12.632  20.243  0.00  0.00    +0.000 A 
ATOM     25  C   UNL     1      -2.166  12.150  19.569  0.00  0.00    +0.000 A 
ATOM     26  C   UNL     1      -2.645  11.648  18.313  0.00  0.00    +0.000 A 
ATOM     27  C   UNL     1      -2.020  11.038  17.210  0.00  0.00    +0.000 A 
ATOM     28  N   UNL     1      -2.735  10.673  16.116  0.00  0.00    +0.000 NA
ATOM     29  C   UNL     1      -4.062  10.925  16.097  0.00  0.00    +0.000 A 
ATOM     30  C   UNL     1      -4.766  11.506  17.136  0.00  0.00    +0.000 A 
ATOM     31  F   UNL     1      -6.081  11.729  17.026  0.00  0.00    +0.000 F 
ATOM     32  C   UNL     1      -4.034  11.853  18.274  0.00  0.00    +0.000 A 
BRANCH  23  34
ATOM     33  C   UNL     1      -6.499  11.375  20.337  0.00  0.00    +0.000 C 
ATOM     34  C   UNL     1      -5.771  12.664  19.940  0.00  0.00    +0.000 C 
ATOM     35  C   UNL     1      -5.809  13.688  21.073  0.00  0.00    +0.000 C 
ENDBRANCH  23  34
ENDBRANCH  21  25
ENDBRANCH   1  21
TORSDOF 7
ENDMDL
MODEL 5
REMARK VINA RESULT:      -8.6      3.294      4.349
REMARK  Name = 
REMARK  9 active torsions:
REMARK  status: ('A' for Active; 'I' for Inactive)
REMARK    1  A    between atoms: C_1  and  C_2
REMARK    2  A    between atoms: C_2  and  C_3
REMARK    3  A    between atoms: C_2  and  N_4
REMARK    4  A    between atoms: C_6  and  C_7
REMARK    5  A    between atoms: C_7  and  C_9
REMARK    6  A    between atoms: C_13  and  N_14
REMARK    7  A    between atoms: C_15  and  C_17
REMARK    8  A    between atoms: C_17  and  N_18
REMARK    9  A    between atoms: C_20  and  C_21
REMARK                            x       y       z     vdW  Elec       q    Type
REMARK                         _______ _______ _______ _____ _____    ______ ____
ROOT
ATOM      1  C   UNL     1       0.387  10.713  20.296  0.00  0.00    +0.000 A 
ATOM      2  C   UNL     1       0.416  10.544  21.672  0.00  0.00    +0.000 A 
ATOM      3  N   UNL     1       0.957   9.469  22.284  0.00  0.00    +0.000 NA
ATOM      4  C   UNL     1       1.477   8.509  21.480  0.00  0.00    +0.000 A 
ATOM      5  C   UNL     1       1.479   8.558  20.084  0.00  0.00    +0.000 A 
ATOM      6  C   UNL     1       0.899   9.685  19.489  0.00  0.00    +0.000 A 
ENDROOT
BRANCH   5   7
ATOM      7  N   UNL     1       2.017   7.540  19.258  0.00  0.00    +0.000 N 
ATOM      8  C   UNL     1       1.990   6.181  19.545  0.00  0.00    +0.000 C 
ATOM      9  O   UNL     1       1.567   5.682  20.586  0.00  0.00    +0.000 OA
ATOM     10  H   UNL     1       2.574   7.843  18.463  0.00  0.00    +0.000 HD
BRANCH   8  11
ATOM     11  C   UNL     1       2.571   5.291  18.472  0.00  0.00    +0.000 C 
BRANCH  11  12
ATOM     12  N   UNL     1       3.986   5.126  18.692  0.00  0.00    +0.000 N 
ATOM     13  C   UNL     1       5.016   5.843  18.164  0.00  0.00    +0.000 A 
ATOM     14  C   UNL     1       6.147   5.165  18.582  0.00  0.00    +0.000 A 
ATOM     15  N   UNL     1       5.754   4.115  19.383  0.00  0.00    +0.000 NA
ATOM     16  N   UNL     1       4.430   4.106  19.444  0.00  0.00    +0.000 NA
BRANCH  14  17
ATOM     17  C   UNL     1       7.580   5.404  18.265  0.00  0.00    +0.000 C 
ATOM     18  F   UNL     1       7.737   6.395  17.344  0.00  0.00    +0.000 F 
ATOM     19  F   UNL     1       8.301   5.773  19.356  0.00  0.00    +0.000 F 
ATOM     20  F   UNL     1       8.179   4.301  17.746  0.00  0.00    +0.000 F 
ENDBRANCH  14  17
ENDBRANCH  11  12
ENDBRANCH   8  11
ENDBRANCH   5   7
BRANCH   1  21
ATOM     21  C   UNL     1      -0.230  11.920  19.695  0.00  0.00    +0.000 C 
ATOM     22  O   UNL     1       0.503  12.878  19.449  0.00  0.00    +0.000 OA
BRANCH  21  25
ATOM     23  N   UNL     1      -3.883  12.291  19.551  0.00  0.00    +0.000 N 
ATOM     24  C   UNL     1      -2.671  12.492  20.173  0.00  0.00    +0.000 A 
ATOM     25  C   UNL     1      -1.665  11.942  19.397  0.00  0.00    +0.000 A 
ATOM     26  C   UNL     1      -2.301  11.433  18.216  0.00  0.00    +0.000 A 
ATOM     27  C   UNL     1      -1.829  10.768  17.070  0.00  0.00    +0.000 A 
ATOM     28  N   UNL     1      -2.674  10.410  16.070  0.00  0.00    +0.000 NA
ATOM     29  C   UNL     1      -3.983  10.724  16.188  0.00  0.00    +0.000 A 
ATOM     30  C   UNL     1      -4.542  11.363  17.280  0.00  0.00    +0.000 A 
ATOM     31  F   UNL     1      -5.850  11.645  17.306  0.00  0.00    +0.000 F 
ATOM     32  C   UNL     1      -3.675  11.702  18.322  0.00  0.00    +0.000 A 
BRANCH  23  34
ATOM     33  C   UNL     1      -5.135  12.604  21.673  0.00  0.00    +0.000 C 
ATOM     34  C   UNL     1      -5.182  12.634  20.141  0.00  0.00    +0.000 C 
ATOM     35  C   UNL     1      -5.705  13.976  19.633  0.00  0.00    +0.000 C 
ENDBRANCH  23  34
ENDBRANCH  21  25
ENDBRANCH   1  21
TORSDOF 7
ENDMDL
MODEL 6
REMARK VINA RESULT:      -8.6      3.084     10.867
REMARK  Name = 
REMARK  9 active torsions:
REMARK  status: ('A' for Active; 'I' for Inactive)
REMARK    1  A    between atoms: C_1  and  C_2
REMARK    2  A    between atoms: C_2  and  C_3
REMARK    3  A    between atoms: C_2  and  N_4
REMARK    4  A    between atoms: C_6  and  C_7
REMARK    5  A    between atoms: C_7  and  C_9
REMARK    6  A    between atoms: C_13  and  N_14
REMARK    7  A    between atoms: C_15  and  C_17
REMARK    8  A    between atoms: C_17  and  N_18
REMARK    9  A    between atoms: C_20  and  C_21
REMARK                            x       y       z     vdW  Elec       q    Type
REMARK                         _______ _______ _______ _____ _____    ______ ____
ROOT
ATOM      1  C   UNL     1       1.731   8.407  19.225  0.00  0.00    +0.000 A 
ATOM      2  C   UNL     1       1.832   7.694  20.411  0.00  0.00    +0.000 A 
ATOM      3  N   UNL     1       1.155   8.011  21.535  0.00  0.00    +0.000 NA
ATOM      4  C   UNL     1       0.354   9.102  21.476  0.00  0.00    +0.000 A 
ATOM      5  C   UNL     1       0.195   9.910  20.348  0.00  0.00    +0.000 A 
ATOM      6  C   UNL     1       0.922   9.553  19.206  0.00  0.00    +0.000 A 
ENDROOT
BRANCH   5   7
ATOM      7  N   UNL     1      -0.640  11.055  20.307  0.00  0.00    +0.000 N 
ATOM      8  C   UNL     1      -0.353  12.274  20.908  0.00  0.00    +0.000 C 
ATOM      9  O   UNL     1       0.623  12.504  21.621  0.00  0.00    +0.000 OA
ATOM     10  H   UNL     1      -1.570  10.929  19.918  0.00  0.00    +0.000 HD
BRANCH   8  11
ATOM     11  C   UNL     1      -1.372  13.361  20.663  0.00  0.00    +0.000 C 
BRANCH  11  12
ATOM     12  N   UNL     1      -2.647  12.962  21.204  0.00  0.00    +0.000 N 
ATOM     13  C   UNL     1      -3.875  13.033  20.623  0.00  0.00    +0.000 A 
ATOM     14  C   UNL     1      -4.748  12.669  21.633  0.00  0.00    +0.000 A 
ATOM     15  N   UNL     1      -4.009  12.343  22.749  0.00  0.00    +0.000 NA
ATOM     16  N   UNL     1      -2.726  12.523  22.471  0.00  0.00    +0.000 NA
BRANCH  14  17
ATOM     17  C   UNL     1      -6.234  12.632  21.648  0.00  0.00    +0.000 C 
ATOM     18  F   UNL     1      -6.776  13.730  21.054  0.00  0.00    +0.000 F 
ATOM     19  F   UNL     1      -6.735  11.552  20.994  0.00  0.00    +0.000 F 
ATOM     20  F   UNL     1      -6.732  12.596  22.912  0.00  0.00    +0.000 F 
ENDBRANCH  14  17
ENDBRANCH  11  12
ENDBRANCH   8  11
ENDBRANCH   5   7
BRANCH   1  21
ATOM     21  C   UNL     1       2.510   8.002  18.031  0.00  0.00    +0.000 C 
ATOM     22  O   UNL     1       2.506   8.758  17.059  0.00  0.00    +0.000 OA
BRANCH  21  25
ATOM     23  N   UNL     1       4.955   5.260  18.108  0.00  0.00    +0.000 N 
ATOM     24  C   UNL     1       4.637   6.598  18.168  0.00  0.00    +0.000 A 
ATOM     25  C   UNL     1       3.266   6.746  18.036  0.00  0.00    +0.000 A 
ATOM     26  C   UNL     1       2.725   5.421  17.951  0.00  0.00    +0.000 A 
ATOM     27  C   UNL     1       1.420   4.914  17.804  0.00  0.00    +0.000 A 
ATOM     28  N   UNL     1       1.190   3.577  17.772  0.00  0.00    +0.000 NA
ATOM     29  C   UNL     1       2.239   2.737  17.904  0.00  0.00    +0.000 A 
ATOM     30  C   UNL     1       3.555   3.140  18.038  0.00  0.00    +0.000 A 
ATOM     31  F   UNL     1       4.533   2.236  18.174  0.00  0.00    +0.000 F 
ATOM     32  C   UNL     1       3.794   4.516  18.039  0.00  0.00    +0.000 A 
BRANCH  23  34
ATOM     33  C   UNL     1       6.846   4.556  16.661  0.00  0.00    +0.000 C 
ATOM     34  C   UNL     1       6.324   4.735  18.091  0.00  0.00    +0.000 C 
ATOM     35  C   UNL     1       7.276   5.594  18.921  0.00  0.00    +0.000 C 
ENDBRANCH  23  34
ENDBRANCH  21  25
ENDBRANCH   1  21
TORSDOF 7
ENDMDL
MODEL 7
REMARK VINA RESULT:      -8.5      3.165     11.030
REMARK  Name = 
REMARK  9 active torsions:
REMARK  status: ('A' for Active; 'I' for Inactive)
REMARK    1  A    between atoms: C_1  and  C_2
REMARK    2  A    between atoms: C_2  and  C_3
REMARK    3  A    between atoms: C_2  and  N_4
REMARK    4  A    between atoms: C_6  and  C_7
REMARK    5  A    between atoms: C_7  and  C_9
REMARK    6  A    between atoms: C_13  and  N_14
REMARK    7  A    between atoms: C_15  and  C_17
REMARK    8  A    between atoms: C_17  and  N_18
REMARK    9  A    between atoms: C_20  and  C_21
REMARK                            x       y       z     vdW  Elec       q    Type
REMARK                         _______ _______ _______ _____ _____    ______ ____
ROOT
ATOM      1  C   UNL     1       1.812   8.428  19.163  0.00  0.00    +0.000 A 
ATOM      2  C   UNL     1       1.803   7.674  20.327  0.00  0.00    +0.000 A 
ATOM      3  N   UNL     1       1.147   8.036  21.450  0.00  0.00    +0.000 NA
ATOM      4  C   UNL     1       0.484   9.218  21.412  0.00  0.00    +0.000 A 
ATOM      5  C   UNL     1       0.445  10.072  20.308  0.00  0.00    +0.000 A 
ATOM      6  C   UNL     1       1.147   9.664  19.167  0.00  0.00    +0.000 A 
ENDROOT
BRANCH   5   7
ATOM      7  N   UNL     1      -0.244  11.310  20.289  0.00  0.00    +0.000 N 
ATOM      8  C   UNL     1      -1.430  11.553  19.608  0.00  0.00    +0.000 C 
ATOM      9  O   UNL     1      -2.003  10.755  18.868  0.00  0.00    +0.000 OA
ATOM     10  H   UNL     1       0.236  12.107  20.698  0.00  0.00    +0.000 HD
BRANCH   8  11
ATOM     11  C   UNL     1      -2.002  12.938  19.798  0.00  0.00    +0.000 C 
BRANCH  11  12
ATOM     12  N   UNL     1      -2.984  12.917  20.854  0.00  0.00    +0.000 N 
ATOM     13  C   UNL     1      -2.810  13.174  22.179  0.00  0.00    +0.000 A 
ATOM     14  C   UNL     1      -4.033  12.858  22.745  0.00  0.00    +0.000 A 
ATOM     15  N   UNL     1      -4.896  12.485  21.738  0.00  0.00    +0.000 NA
ATOM     16  N   UNL     1      -4.241  12.530  20.587  0.00  0.00    +0.000 NA
BRANCH  14  17
ATOM     17  C   UNL     1      -4.454  12.847  24.171  0.00  0.00    +0.000 C 
ATOM     18  F   UNL     1      -3.848  13.835  24.887  0.00  0.00    +0.000 F 
ATOM     19  F   UNL     1      -5.792  13.028  24.321  0.00  0.00    +0.000 F 
ATOM     20  F   UNL     1      -4.138  11.679  24.789  0.00  0.00    +0.000 F 
ENDBRANCH  14  17
ENDBRANCH  11  12
ENDBRANCH   8  11
ENDBRANCH   5   7
BRANCH   1  21
ATOM     21  C   UNL     1       2.561   7.967  17.970  0.00  0.00    +0.000 C 
ATOM     22  O   UNL     1       2.536   8.679  16.966  0.00  0.00    +0.000 OA
BRANCH  21  25
ATOM     23  N   UNL     1       4.996   5.220  18.138  0.00  0.00    +0.000 N 
ATOM     24  C   UNL     1       4.682   6.561  18.163  0.00  0.00    +0.000 A 
ATOM     25  C   UNL     1       3.313   6.710  18.013  0.00  0.00    +0.000 A 
ATOM     26  C   UNL     1       2.768   5.384  17.951  0.00  0.00    +0.000 A 
ATOM     27  C   UNL     1       1.464   4.878  17.801  0.00  0.00    +0.000 A 
ATOM     28  N   UNL     1       1.229   3.542  17.797  0.00  0.00    +0.000 NA
ATOM     29  C   UNL     1       2.275   2.702  17.960  0.00  0.00    +0.000 A 
ATOM     30  C   UNL     1       3.590   3.103  18.101  0.00  0.00    +0.000 A 
ATOM     31  F   UNL     1       4.563   2.200  18.269  0.00  0.00    +0.000 F 
ATOM     32  C   UNL     1       3.834   4.479  18.073  0.00  0.00    +0.000 A 
BRANCH  23  34
ATOM     33  C   UNL     1       6.898   4.470  16.730  0.00  0.00    +0.000 C 
ATOM     34  C   UNL     1       6.364   4.691  18.149  0.00  0.00    +0.000 C 
ATOM     35  C   UNL     1       7.311   5.571  18.963  0.00  0.00    +0.000 C 
ENDBRANCH  23  34
ENDBRANCH  21  25
ENDBRANCH   1  21
TORSDOF 7
ENDMDL
MODEL 8
REMARK VINA RESULT:      -8.5      2.797     10.019
REMARK  Name = 
REMARK  9 active torsions:
REMARK  status: ('A' for Active; 'I' for Inactive)
REMARK    1  A    between atoms: C_1  and  C_2
REMARK    2  A    between atoms: C_2  and  C_3
REMARK    3  A    between atoms: C_2  and  N_4
REMARK    4  A    between atoms: C_6  and  C_7
REMARK    5  A    between atoms: C_7  and  C_9
REMARK    6  A    between atoms: C_13  and  N_14
REMARK    7  A    between atoms: C_15  and  C_17
REMARK    8  A    between atoms: C_17  and  N_18
REMARK    9  A    between atoms: C_20  and  C_21
REMARK                            x       y       z     vdW  Elec       q    Type
REMARK                         _______ _______ _______ _____ _____    ______ ____
ROOT
ATOM      1  C   UNL     1       1.823   8.226  19.235  0.00  0.00    +0.000 A 
ATOM      2  C   UNL     1       1.984   7.459  20.379  0.00  0.00    +0.000 A 
ATOM      3  N   UNL     1       1.324   7.688  21.534  0.00  0.00    +0.000 NA
ATOM      4  C   UNL     1       0.477   8.747  21.551  0.00  0.00    +0.000 A 
ATOM      5  C   UNL     1       0.257   9.604  20.471  0.00  0.00    +0.000 A 
ATOM      6  C   UNL     1       0.968   9.337  19.295  0.00  0.00    +0.000 A 
ENDROOT
BRANCH   5   7
ATOM      7  N   UNL     1      -0.625  10.714  20.510  0.00  0.00    +0.000 N 
ATOM      8  C   UNL     1      -0.232  12.046  20.496  0.00  0.00    +0.000 C 
ATOM      9  O   UNL     1       0.931  12.446  20.527  0.00  0.00    +0.000 OA
ATOM     10  H   UNL     1      -1.605  10.513  20.690  0.00  0.00    +0.000 HD
BRANCH   8  11
ATOM     11  C   UNL     1      -1.365  13.044  20.477  0.00  0.00    +0.000 C 
BRANCH  11  12
ATOM     12  N   UNL     1      -2.414  12.573  19.609  0.00  0.00    +0.000 N 
ATOM     13  C   UNL     1      -3.750  12.494  19.857  0.00  0.00    +0.000 A 
ATOM     14  C   UNL     1      -4.258  11.831  18.754  0.00  0.00    +0.000 A 
ATOM     15  N   UNL     1      -3.225  11.593  17.875  0.00  0.00    +0.000 NA
ATOM     16  N   UNL     1      -2.104  12.056  18.409  0.00  0.00    +0.000 NA
BRANCH  14  17
ATOM     17  C   UNL     1      -5.642  11.368  18.469  0.00  0.00    +0.000 C 
ATOM     18  F   UNL     1      -5.772  10.023  18.632  0.00  0.00    +0.000 F 
ATOM     19  F   UNL     1      -6.564  11.947  19.282  0.00  0.00    +0.000 F 
ATOM     20  F   UNL     1      -6.017  11.636  17.190  0.00  0.00    +0.000 F 
ENDBRANCH  14  17
ENDBRANCH  11  12
ENDBRANCH   8  11
ENDBRANCH   5   7
BRANCH   1  21
ATOM     21  C   UNL     1       2.588   7.917  18.003  0.00  0.00    +0.000 C 
ATOM     22  O   UNL     1       2.587   8.754  17.101  0.00  0.00    +0.000 OA
BRANCH  21  25
ATOM     23  N   UNL     1       4.995   5.154  17.732  0.00  0.00    +0.000 N 
ATOM     24  C   UNL     1       4.701   6.493  17.857  0.00  0.00    +0.000 A 
ATOM     25  C   UNL     1       3.326   6.655  17.893  0.00  0.00    +0.000 A 
ATOM     26  C   UNL     1       2.764   5.336  17.845  0.00  0.00    +0.000 A 
ATOM     27  C   UNL     1       1.446   4.843  17.844  0.00  0.00    +0.000 A 
ATOM     28  N   UNL     1       1.199   3.510  17.812  0.00  0.00    +0.000 NA
ATOM     29  C   UNL     1       2.248   2.658  17.801  0.00  0.00    +0.000 A 
ATOM     30  C   UNL     1       3.575   3.047  17.786  0.00  0.00    +0.000 A 
ATOM     31  F   UNL     1       4.552   2.133  17.786  0.00  0.00    +0.000 F 
ATOM     32  C   UNL     1       3.827   4.421  17.787  0.00  0.00    +0.000 A 
BRANCH  23  34
ATOM     33  C   UNL     1       6.672   4.412  16.059  0.00  0.00    +0.000 C 
ATOM     34  C   UNL     1       6.347   4.618  17.542  0.00  0.00    +0.000 C 
ATOM     35  C   UNL     1       7.406   5.484  18.222  0.00  0.00    +0.000 C 
ENDBRANCH  23  34
ENDBRANCH  21  25
ENDBRANCH   1  21
TORSDOF 7
ENDMDL
MODEL 9
REMARK VINA RESULT:      -8.4      3.023      4.606
REMARK  Name = 
REMARK  9 active torsions:
REMARK  status: ('A' for Active; 'I' for Inactive)
REMARK    1  A    between atoms: C_1  and  C_2
REMARK    2  A    between atoms: C_2  and  C_3
REMARK    3  A    between atoms: C_2  and  N_4
REMARK    4  A    between atoms: C_6  and  C_7
REMARK    5  A    between atoms: C_7  and  C_9
REMARK    6  A    between atoms: C_13  and  N_14
REMARK    7  A    between atoms: C_15  and  C_17
REMARK    8  A    between atoms: C_17  and  N_18
REMARK    9  A    between atoms: C_20  and  C_21
REMARK                            x       y       z     vdW  Elec       q    Type
REMARK                         _______ _______ _______ _____ _____    ______ ____
ROOT
ATOM      1  C   UNL     1       0.691   9.523  21.278  0.00  0.00    +0.000 A 
ATOM      2  C   UNL     1       0.429  10.126  20.058  0.00  0.00    +0.000 A 
ATOM      3  N   UNL     1       0.837   9.628  18.871  0.00  0.00    +0.000 NA
ATOM      4  C   UNL     1       1.558   8.480  18.909  0.00  0.00    +0.000 A 
ATOM      5  C   UNL     1       1.905   7.800  20.078  0.00  0.00    +0.000 A 
ATOM      6  C   UNL     1       1.471   8.356  21.288  0.00  0.00    +0.000 A 
ENDROOT
BRANCH   5   7
ATOM      7  N   UNL     1       2.670   6.606  20.101  0.00  0.00    +0.000 N 
ATOM      8  C   UNL     1       2.146   5.324  20.200  0.00  0.00    +0.000 C 
ATOM      9  O   UNL     1       0.956   5.051  20.360  0.00  0.00    +0.000 OA
ATOM     10  H   UNL     1       3.678   6.711  20.180  0.00  0.00    +0.000 HD
BRANCH   8  11
ATOM     11  C   UNL     1       3.165   4.212  20.137  0.00  0.00    +0.000 C 
BRANCH  11  12
ATOM     12  N   UNL     1       4.069   4.442  19.039  0.00  0.00    +0.000 N 
ATOM     13  C   UNL     1       5.418   4.274  19.001  0.00  0.00    +0.000 A 
ATOM     14  C   UNL     1       5.787   4.788  17.769  0.00  0.00    +0.000 A 
ATOM     15  N   UNL     1       4.647   5.185  17.105  0.00  0.00    +0.000 NA
ATOM     16  N   UNL     1       3.604   4.964  17.892  0.00  0.00    +0.000 NA
BRANCH  14  17
ATOM     17  C   UNL     1       7.136   4.968  17.171  0.00  0.00    +0.000 C 
ATOM     18  F   UNL     1       8.089   4.268  17.847  0.00  0.00    +0.000 F 
ATOM     19  F   UNL     1       7.194   4.549  15.880  0.00  0.00    +0.000 F 
ATOM     20  F   UNL     1       7.533   6.267  17.186  0.00  0.00    +0.000 F 
ENDBRANCH  14  17
ENDBRANCH  11  12
ENDBRANCH   8  11
ENDBRANCH   5   7
BRANCH   1  21
ATOM     21  C   UNL     1       0.214  10.133  22.542  0.00  0.00    +0.000 C 
ATOM     22  O   UNL     1       0.590   9.630  23.601  0.00  0.00    +0.000 OA
BRANCH  21  25
ATOM     23  N   UNL     1      -2.434  12.671  22.772  0.00  0.00    +0.000 N 
ATOM     24  C   UNL     1      -1.944  11.408  23.022  0.00  0.00    +0.000 A 
ATOM     25  C   UNL     1      -0.662  11.307  22.507  0.00  0.00    +0.000 A 
ATOM     26  C   UNL     1      -0.342  12.598  21.969  0.00  0.00    +0.000 A 
ATOM     27  C   UNL     1       0.788  13.123  21.316  0.00  0.00    +0.000 A 
ATOM     28  N   UNL     1       0.827  14.421  20.922  0.00  0.00    +0.000 NA
ATOM     29  C   UNL     1      -0.238  15.209  21.186  0.00  0.00    +0.000 A 
ATOM     30  C   UNL     1      -1.397  14.780  21.808  0.00  0.00    +0.000 A 
ATOM     31  F   UNL     1      -2.400  15.635  22.040  0.00  0.00    +0.000 F 
ATOM     32  C   UNL     1      -1.447  13.436  22.185  0.00  0.00    +0.000 A 
BRANCH  23  34
ATOM     33  C   UNL     1      -4.770  12.733  21.935  0.00  0.00    +0.000 C 
ATOM     34  C   UNL     1      -3.805  13.099  23.067  0.00  0.00    +0.000 C 
ATOM     35  C   UNL     1      -4.298  12.556  24.407  0.00  0.00    +0.000 C 
ENDBRANCH  23  34
ENDBRANCH  21  25
ENDBRANCH   1  21
TORSDOF 7
ENDMDL
