MODEL 1
REMARK VINA RESULT:      -9.1      0.000      0.000
REMARK  Name = 
REMARK  3 active torsions:
REMARK  status: ('A' for Active; 'I' for Inactive)
REMARK    1  A    between atoms: N_1  and  N_2
REMARK    2  A    between atoms: C_3  and  C_5
REMARK    3  A    between atoms: C_7  and  C_8
REMARK                            x       y       z     vdW  Elec       q    Type
REMARK                         _______ _______ _______ _____ _____    ______ ____
ROOT
ATOM      1  C   UNL     1       6.356   5.731  17.381  0.00  0.00    +0.000 A 
ATOM      2  C   UNL     1       5.336   5.334  18.254  0.00  0.00    +0.000 A 
ATOM      3  C   UNL     1       4.386   4.422  17.826  0.00  0.00    +0.000 A 
ATOM      4  N   UNL     1       4.431   3.925  16.571  0.00  0.00    +0.000 NA
ATOM      5  C   UNL     1       5.403   4.303  15.720  0.00  0.00    +0.000 A 
ATOM      6  C   UNL     1       5.416   3.741  14.449  0.00  0.00    +0.000 A 
ATOM      7  C   UNL     1       6.397   4.058  13.504  0.00  0.00    +0.000 A 
ATOM      8  C   UNL     1       7.404   4.949  13.835  0.00  0.00    +0.000 A 
ATOM      9  C   UNL     1       7.420   5.513  15.107  0.00  0.00    +0.000 A 
ATOM     10  C   UNL     1       6.418   5.215  16.067  0.00  0.00    +0.000 A 
ENDROOT
BRANCH   3  11
ATOM     11  C   UNL     1       3.266   3.938  18.755  0.00  0.00    +0.000 C 
ATOM     12  C   UNL     1       1.875   4.149  18.099  0.00  0.00    +0.000 C 
ATOM     13  C   UNL     1       0.748   3.661  19.028  0.00  0.00    +0.000 C 
ATOM     14  C   UNL     1       0.938   2.165  19.324  0.00  0.00    +0.000 C 
ATOM     15  C   UNL     1       2.288   1.939  20.017  0.00  0.00    +0.000 C 
ATOM     16  C   UNL     1       2.351   2.738  21.327  0.00  0.00    +0.000 C 
ATOM     17  C   UNL     1       2.162   4.234  21.034  0.00  0.00    +0.000 C 
ATOM     18  C   UNL     1       0.799   4.442  20.351  0.00  0.00    +0.000 C 
ATOM     19  C   UNL     1       3.284   4.721  20.098  0.00  0.00    +0.000 C 
ATOM     20  C   UNL     1       3.412   2.420  19.087  0.00  0.00    +0.000 C 
ENDBRANCH   3  11
BRANCH   1  22
ATOM     21  N   UNL     1       7.278   7.990  17.310  0.00  0.00    +0.000 N 
ATOM     22  C   UNL     1       7.355   6.719  17.893  0.00  0.00    +0.000 C 
ATOM     23  O   UNL     1       8.191   6.409  18.721  0.00  0.00    +0.000 OA
ATOM     24  H   UNL     1       6.470   8.245  16.745  0.00  0.00    +0.000 HD
BRANCH  21  25
ATOM     25  N   UNL     1       8.146   9.000  17.738  0.00  0.00    +0.000 NA
ATOM     26  H   UNL     1       9.061   8.604  17.955  0.00  0.00    +0.000 HD
ATOM     27  H   UNL     1       7.775   9.370  18.621  0.00  0.00    +0.000 HD
ENDBRANCH  21  25
ENDBRANCH   1  22
TORSDOF 3
ENDMDL
MODEL 2
REMARK VINA RESULT:      -9.1      0.059      1.519
REMARK  Name = 
REMARK  3 active torsions:
REMARK  status: ('A' for Active; 'I' for Inactive)
REMARK    1  A    between atoms: N_1  and  N_2
REMARK    2  A    between atoms: C_3  and  C_5
REMARK    3  A    between atoms: C_7  and  C_8
REMARK                            x       y       z     vdW  Elec       q    Type
REMARK                         _______ _______ _______ _____ _____    ______ ____
ROOT
ATOM      1  C   UNL     1       6.379   5.760  17.397  0.00  0.00    +0.000 A 
ATOM      2  C   UNL     1       5.362   5.358  18.272  0.00  0.00    +0.000 A 
ATOM      3  C   UNL     1       4.412   4.445  17.845  0.00  0.00    +0.000 A 
ATOM      4  N   UNL     1       4.455   3.951  16.589  0.00  0.00    +0.000 NA
ATOM      5  C   UNL     1       5.424   4.332  15.735  0.00  0.00    +0.000 A 
ATOM      6  C   UNL     1       5.434   3.774  14.463  0.00  0.00    +0.000 A 
ATOM      7  C   UNL     1       6.411   4.094  13.516  0.00  0.00    +0.000 A 
ATOM      8  C   UNL     1       7.417   4.987  13.845  0.00  0.00    +0.000 A 
ATOM      9  C   UNL     1       7.437   5.548  15.119  0.00  0.00    +0.000 A 
ATOM     10  C   UNL     1       6.438   5.246  16.081  0.00  0.00    +0.000 A 
ENDROOT
BRANCH   3  11
ATOM     11  C   UNL     1       3.297   3.957  18.776  0.00  0.00    +0.000 C 
ATOM     12  C   UNL     1       3.282   4.776  20.095  0.00  0.00    +0.000 C 
ATOM     13  C   UNL     1       2.160   4.291  21.033  0.00  0.00    +0.000 C 
ATOM     14  C   UNL     1       0.801   4.447  20.332  0.00  0.00    +0.000 C 
ATOM     15  C   UNL     1       0.778   3.607  19.048  0.00  0.00    +0.000 C 
ATOM     16  C   UNL     1       1.021   2.128  19.381  0.00  0.00    +0.000 C 
ATOM     17  C   UNL     1       2.379   1.967  20.080  0.00  0.00    +0.000 C 
ATOM     18  C   UNL     1       2.380   2.807  21.369  0.00  0.00    +0.000 C 
ATOM     19  C   UNL     1       3.500   2.461  19.147  0.00  0.00    +0.000 C 
ATOM     20  C   UNL     1       1.892   4.096  18.112  0.00  0.00    +0.000 C 
ENDBRANCH   3  11
BRANCH   1  22
ATOM     21  N   UNL     1       7.299   8.019  17.323  0.00  0.00    +0.000 N 
ATOM     22  C   UNL     1       7.376   6.748  17.907  0.00  0.00    +0.000 C 
ATOM     23  O   UNL     1       8.213   6.440  18.736  0.00  0.00    +0.000 OA
ATOM     24  H   UNL     1       6.492   8.273  16.757  0.00  0.00    +0.000 HD
BRANCH  21  25
ATOM     25  N   UNL     1       8.167   9.030  17.749  0.00  0.00    +0.000 NA
ATOM     26  H   UNL     1       9.095   8.883  17.350  0.00  0.00    +0.000 HD
ATOM     27  H   UNL     1       8.272   8.935  18.766  0.00  0.00    +0.000 HD
ENDBRANCH  21  25
ENDBRANCH   1  22
TORSDOF 3
ENDMDL
MODEL 3
REMARK VINA RESULT:      -9.1      0.040      1.531
REMARK  Name = 
REMARK  3 active torsions:
REMARK  status: ('A' for Active; 'I' for Inactive)
REMARK    1  A    between atoms: N_1  and  N_2
REMARK    2  A    between atoms: C_3  and  C_5
REMARK    3  A    between atoms: C_7  and  C_8
REMARK                            x       y       z     vdW  Elec       q    Type
REMARK                         _______ _______ _______ _____ _____    ______ ____
ROOT
ATOM      1  C   UNL     1       6.351   5.710  17.365  0.00  0.00    +0.000 A 
ATOM      2  C   UNL     1       5.328   5.310  18.235  0.00  0.00    +0.000 A 
ATOM      3  C   UNL     1       4.381   4.397  17.804  0.00  0.00    +0.000 A 
ATOM      4  N   UNL     1       4.431   3.902  16.548  0.00  0.00    +0.000 NA
ATOM      5  C   UNL     1       5.405   4.282  15.700  0.00  0.00    +0.000 A 
ATOM      6  C   UNL     1       5.423   3.722  14.428  0.00  0.00    +0.000 A 
ATOM      7  C   UNL     1       6.406   4.040  13.487  0.00  0.00    +0.000 A 
ATOM      8  C   UNL     1       7.410   4.933  13.821  0.00  0.00    +0.000 A 
ATOM      9  C   UNL     1       7.422   5.496  15.094  0.00  0.00    +0.000 A 
ATOM     10  C   UNL     1       6.418   5.195  16.051  0.00  0.00    +0.000 A 
ENDROOT
BRANCH   3  11
ATOM     11  C   UNL     1       3.260   3.911  18.729  0.00  0.00    +0.000 C 
ATOM     12  C   UNL     1       3.407   2.393  19.022  0.00  0.00    +0.000 C 
ATOM     13  C   UNL     1       2.284   1.901  19.955  0.00  0.00    +0.000 C 
ATOM     14  C   UNL     1       2.342   2.674  21.282  0.00  0.00    +0.000 C 
ATOM     15  C   UNL     1       2.151   4.174  21.019  0.00  0.00    +0.000 C 
ATOM     16  C   UNL     1       0.800   4.422  20.333  0.00  0.00    +0.000 C 
ATOM     17  C   UNL     1       0.739   3.652  19.007  0.00  0.00    +0.000 C 
ATOM     18  C   UNL     1       0.920   2.151  19.291  0.00  0.00    +0.000 C 
ATOM     19  C   UNL     1       1.867   4.137  18.077  0.00  0.00    +0.000 C 
ATOM     20  C   UNL     1       3.275   4.665  20.095  0.00  0.00    +0.000 C 
ENDBRANCH   3  11
BRANCH   1  22
ATOM     21  N   UNL     1       7.266   7.972  17.303  0.00  0.00    +0.000 N 
ATOM     22  C   UNL     1       7.346   6.699  17.881  0.00  0.00    +0.000 C 
ATOM     23  O   UNL     1       8.184   6.388  18.708  0.00  0.00    +0.000 OA
ATOM     24  H   UNL     1       6.458   8.227  16.739  0.00  0.00    +0.000 HD
BRANCH  21  25
ATOM     25  N   UNL     1       8.132   8.983  17.734  0.00  0.00    +0.000 NA
ATOM     26  H   UNL     1       7.635   9.873  17.772  0.00  0.00    +0.000 HD
ATOM     27  H   UNL     1       8.861   9.088  17.019  0.00  0.00    +0.000 HD
ENDBRANCH  21  25
ENDBRANCH   1  22
TORSDOF 3
ENDMDL
MODEL 4
REMARK VINA RESULT:      -8.0      4.811      6.366
REMARK  Name = 
REMARK  3 active torsions:
REMARK  status: ('A' for Active; 'I' for Inactive)
REMARK    1  A    between atoms: N_1  and  N_2
REMARK    2  A    between atoms: C_3  and  C_5
REMARK    3  A    between atoms: C_7  and  C_8
REMARK                            x       y       z     vdW  Elec       q    Type
REMARK                         _______ _______ _______ _____ _____    ______ ____
ROOT
ATOM      1  C   UNL     1       0.942   8.223  20.727  0.00  0.00    +0.000 A 
ATOM      2  C   UNL     1       1.334   6.891  20.541  0.00  0.00    +0.000 A 
ATOM      3  C   UNL     1       2.060   6.543  19.414  0.00  0.00    +0.000 A 
ATOM      4  N   UNL     1       2.379   7.475  18.491  0.00  0.00    +0.000 NA
ATOM      5  C   UNL     1       2.004   8.758  18.655  0.00  0.00    +0.000 A 
ATOM      6  C   UNL     1       2.382   9.681  17.687  0.00  0.00    +0.000 A 
ATOM      7  C   UNL     1       2.055  11.036  17.781  0.00  0.00    +0.000 A 
ATOM      8  C   UNL     1       1.342  11.494  18.877  0.00  0.00    +0.000 A 
ATOM      9  C   UNL     1       0.966  10.592  19.868  0.00  0.00    +0.000 A 
ATOM     10  C   UNL     1       1.275   9.209  19.771  0.00  0.00    +0.000 A 
ENDROOT
BRANCH   3  11
ATOM     11  C   UNL     1       2.534   5.103  19.181  0.00  0.00    +0.000 C 
ATOM     12  C   UNL     1       4.085   5.024  19.199  0.00  0.00    +0.000 C 
ATOM     13  C   UNL     1       4.564   3.578  18.969  0.00  0.00    +0.000 C 
ATOM     14  C   UNL     1       4.005   2.669  20.074  0.00  0.00    +0.000 C 
ATOM     15  C   UNL     1       2.471   2.696  20.044  0.00  0.00    +0.000 C 
ATOM     16  C   UNL     1       1.961   2.222  18.676  0.00  0.00    +0.000 C 
ATOM     17  C   UNL     1       2.517   3.128  17.569  0.00  0.00    +0.000 C 
ATOM     18  C   UNL     1       4.054   3.079  17.607  0.00  0.00    +0.000 C 
ATOM     19  C   UNL     1       2.045   4.576  17.803  0.00  0.00    +0.000 C 
ATOM     20  C   UNL     1       1.994   4.136  20.280  0.00  0.00    +0.000 C 
ENDBRANCH   3  11
BRANCH   1  22
ATOM     21  N   UNL     1       0.875   9.229  22.950  0.00  0.00    +0.000 N 
ATOM     22  C   UNL     1       0.159   8.544  21.959  0.00  0.00    +0.000 C 
ATOM     23  O   UNL     1      -0.998   8.189  22.090  0.00  0.00    +0.000 OA
ATOM     24  H   UNL     1       1.781   9.639  22.734  0.00  0.00    +0.000 HD
BRANCH  21  25
ATOM     25  N   UNL     1       0.229   9.606  24.133  0.00  0.00    +0.000 NA
ATOM     26  H   UNL     1      -0.548  10.231  23.921  0.00  0.00    +0.000 HD
ATOM     27  H   UNL     1       0.899  10.154  24.686  0.00  0.00    +0.000 HD
ENDBRANCH  21  25
ENDBRANCH   1  22
TORSDOF 3
ENDMDL
MODEL 5
REMARK VINA RESULT:      -8.0      4.813      6.263
REMARK  Name = 
REMARK  3 active torsions:
REMARK  status: ('A' for Active; 'I' for Inactive)
REMARK    1  A    between atoms: N_1  and  N_2
REMARK    2  A    between atoms: C_3  and  C_5
REMARK    3  A    between atoms: C_7  and  C_8
REMARK                            x       y       z     vdW  Elec       q    Type
REMARK                         _______ _______ _______ _____ _____    ______ ____
ROOT
ATOM      1  C   UNL     1       0.941   8.225  20.728  0.00  0.00    +0.000 A 
ATOM      2  C   UNL     1       1.335   6.894  20.541  0.00  0.00    +0.000 A 
ATOM      3  C   UNL     1       2.062   6.547  19.415  0.00  0.00    +0.000 A 
ATOM      4  N   UNL     1       2.380   7.480  18.492  0.00  0.00    +0.000 NA
ATOM      5  C   UNL     1       2.004   8.762  18.656  0.00  0.00    +0.000 A 
ATOM      6  C   UNL     1       2.380   9.685  17.688  0.00  0.00    +0.000 A 
ATOM      7  C   UNL     1       2.052  11.041  17.783  0.00  0.00    +0.000 A 
ATOM      8  C   UNL     1       1.338  11.497  18.878  0.00  0.00    +0.000 A 
ATOM      9  C   UNL     1       0.963  10.594  19.869  0.00  0.00    +0.000 A 
ATOM     10  C   UNL     1       1.273   9.212  19.772  0.00  0.00    +0.000 A 
ENDROOT
BRANCH   3  11
ATOM     11  C   UNL     1       2.537   5.108  19.182  0.00  0.00    +0.000 C 
ATOM     12  C   UNL     1       2.046   4.581  17.806  0.00  0.00    +0.000 C 
ATOM     13  C   UNL     1       2.525   3.137  17.566  0.00  0.00    +0.000 C 
ATOM     14  C   UNL     1       4.061   3.092  17.599  0.00  0.00    +0.000 C 
ATOM     15  C   UNL     1       4.566   3.564  18.969  0.00  0.00    +0.000 C 
ATOM     16  C   UNL     1       3.998   2.669  20.079  0.00  0.00    +0.000 C 
ATOM     17  C   UNL     1       2.464   2.712  20.050  0.00  0.00    +0.000 C 
ATOM     18  C   UNL     1       1.975   2.224  18.675  0.00  0.00    +0.000 C 
ATOM     19  C   UNL     1       1.985   4.157  20.280  0.00  0.00    +0.000 C 
ATOM     20  C   UNL     1       4.094   5.007  19.204  0.00  0.00    +0.000 C 
ENDBRANCH   3  11
BRANCH   1  22
ATOM     21  N   UNL     1       0.872   9.229  22.951  0.00  0.00    +0.000 N 
ATOM     22  C   UNL     1       0.158   8.545  21.959  0.00  0.00    +0.000 C 
ATOM     23  O   UNL     1      -0.999   8.189  22.090  0.00  0.00    +0.000 OA
ATOM     24  H   UNL     1       1.778   9.641  22.736  0.00  0.00    +0.000 HD
BRANCH  21  25
ATOM     25  N   UNL     1       0.226   9.605  24.134  0.00  0.00    +0.000 NA
ATOM     26  H   UNL     1      -0.299   8.815  24.509  0.00  0.00    +0.000 HD
ATOM     27  H   UNL     1      -0.467  10.323  23.889  0.00  0.00    +0.000 HD
ENDBRANCH  21  25
ENDBRANCH   1  22
TORSDOF 3
ENDMDL
MODEL 6
REMARK VINA RESULT:      -8.0      4.815      6.314
REMARK  Name = 
REMARK  3 active torsions:
REMARK  status: ('A' for Active; 'I' for Inactive)
REMARK    1  A    between atoms: N_1  and  N_2
REMARK    2  A    between atoms: C_3  and  C_5
REMARK    3  A    between atoms: C_7  and  C_8
REMARK                            x       y       z     vdW  Elec       q    Type
REMARK                         _______ _______ _______ _____ _____    ______ ____
ROOT
ATOM      1  C   UNL     1       0.944   8.230  20.724  0.00  0.00    +0.000 A 
ATOM      2  C   UNL     1       1.340   6.899  20.538  0.00  0.00    +0.000 A 
ATOM      3  C   UNL     1       2.070   6.553  19.414  0.00  0.00    +0.000 A 
ATOM      4  N   UNL     1       2.390   7.486  18.492  0.00  0.00    +0.000 NA
ATOM      5  C   UNL     1       2.011   8.768  18.655  0.00  0.00    +0.000 A 
ATOM      6  C   UNL     1       2.389   9.692  17.688  0.00  0.00    +0.000 A 
ATOM      7  C   UNL     1       2.059  11.047  17.782  0.00  0.00    +0.000 A 
ATOM      8  C   UNL     1       1.342  11.503  18.876  0.00  0.00    +0.000 A 
ATOM      9  C   UNL     1       0.965  10.599  19.865  0.00  0.00    +0.000 A 
ATOM     10  C   UNL     1       1.278   9.218  19.770  0.00  0.00    +0.000 A 
ENDROOT
BRANCH   3  11
ATOM     11  C   UNL     1       2.548   5.115  19.182  0.00  0.00    +0.000 C 
ATOM     12  C   UNL     1       2.034   4.175  20.307  0.00  0.00    +0.000 C 
ATOM     13  C   UNL     1       2.509   2.728  20.076  0.00  0.00    +0.000 C 
ATOM     14  C   UNL     1       1.981   2.224  18.723  0.00  0.00    +0.000 C 
ATOM     15  C   UNL     1       2.516   3.112  17.592  0.00  0.00    +0.000 C 
ATOM     16  C   UNL     1       4.051   3.094  17.587  0.00  0.00    +0.000 C 
ATOM     17  C   UNL     1       4.583   3.598  18.936  0.00  0.00    +0.000 C 
ATOM     18  C   UNL     1       4.046   2.690  20.057  0.00  0.00    +0.000 C 
ATOM     19  C   UNL     1       4.101   5.041  19.173  0.00  0.00    +0.000 C 
ATOM     20  C   UNL     1       2.036   4.552  17.820  0.00  0.00    +0.000 C 
ENDBRANCH   3  11
BRANCH   1  22
ATOM     21  N   UNL     1       0.867   9.238  22.945  0.00  0.00    +0.000 N 
ATOM     22  C   UNL     1       0.157   8.548  21.954  0.00  0.00    +0.000 C 
ATOM     23  O   UNL     1      -0.998   8.188  22.083  0.00  0.00    +0.000 OA
ATOM     24  H   UNL     1       1.772   9.653  22.731  0.00  0.00    +0.000 HD
BRANCH  21  25
ATOM     25  N   UNL     1       0.217   9.614  24.126  0.00  0.00    +0.000 NA
ATOM     26  H   UNL     1       0.842  10.175  24.705  0.00  0.00    +0.000 HD
ATOM     27  H   UNL     1       0.025   8.755  24.657  0.00  0.00    +0.000 HD
ENDBRANCH  21  25
ENDBRANCH   1  22
TORSDOF 3
ENDMDL
MODEL 7
REMARK VINA RESULT:      -7.6      5.044      6.664
REMARK  Name = 
REMARK  3 active torsions:
REMARK  status: ('A' for Active; 'I' for Inactive)
REMARK    1  A    between atoms: N_1  and  N_2
REMARK    2  A    between atoms: C_3  and  C_5
REMARK    3  A    between atoms: C_7  and  C_8
REMARK                            x       y       z     vdW  Elec       q    Type
REMARK                         _______ _______ _______ _____ _____    ______ ____
ROOT
ATOM      1  C   UNL     1       1.015   8.593  20.606  0.00  0.00    +0.000 A 
ATOM      2  C   UNL     1       1.554   7.340  20.288  0.00  0.00    +0.000 A 
ATOM      3  C   UNL     1       2.314   7.192  19.140  0.00  0.00    +0.000 A 
ATOM      4  N   UNL     1       2.526   8.245  18.321  0.00  0.00    +0.000 NA
ATOM      5  C   UNL     1       2.010   9.454  18.610  0.00  0.00    +0.000 A 
ATOM      6  C   UNL     1       2.281  10.507  17.746  0.00  0.00    +0.000 A 
ATOM      7  C   UNL     1       1.804  11.801  17.975  0.00  0.00    +0.000 A 
ATOM      8  C   UNL     1       1.046  12.062  19.104  0.00  0.00    +0.000 A 
ATOM      9  C   UNL     1       0.774  11.026  19.993  0.00  0.00    +0.000 A 
ATOM     10  C   UNL     1       1.235   9.704  19.759  0.00  0.00    +0.000 A 
ENDROOT
BRANCH   3  11
ATOM     11  C   UNL     1       2.945   5.846  18.767  0.00  0.00    +0.000 C 
ATOM     12  C   UNL     1       4.285   6.057  18.011  0.00  0.00    +0.000 C 
ATOM     13  C   UNL     1       4.925   4.706  17.637  0.00  0.00    +0.000 C 
ATOM     14  C   UNL     1       5.193   3.893  18.914  0.00  0.00    +0.000 C 
ATOM     15  C   UNL     1       3.873   3.633  19.652  0.00  0.00    +0.000 C 
ATOM     16  C   UNL     1       2.902   2.865  18.744  0.00  0.00    +0.000 C 
ATOM     17  C   UNL     1       2.631   3.675  17.468  0.00  0.00    +0.000 C 
ATOM     18  C   UNL     1       3.962   3.915  16.736  0.00  0.00    +0.000 C 
ATOM     19  C   UNL     1       2.000   5.029  17.842  0.00  0.00    +0.000 C 
ATOM     20  C   UNL     1       3.240   4.980  20.031  0.00  0.00    +0.000 C 
ENDBRANCH   3  11
BRANCH   1  22
ATOM     21  N   UNL     1       0.826   9.378  22.909  0.00  0.00    +0.000 N 
ATOM     22  C   UNL     1       0.203   8.697  21.856  0.00  0.00    +0.000 C 
ATOM     23  O   UNL     1      -0.898   8.184  21.945  0.00  0.00    +0.000 OA
ATOM     24  H   UNL     1       1.670   9.921  22.738  0.00  0.00    +0.000 HD
BRANCH  21  25
ATOM     25  N   UNL     1       0.142   9.559  24.116  0.00  0.00    +0.000 NA
ATOM     26  H   UNL     1      -0.739  10.046  23.947  0.00  0.00    +0.000 HD
ATOM     27  H   UNL     1       0.710  10.184  24.700  0.00  0.00    +0.000 HD
ENDBRANCH  21  25
ENDBRANCH   1  22
TORSDOF 3
ENDMDL
MODEL 8
REMARK VINA RESULT:      -7.6      4.610      6.909
REMARK  Name = 
REMARK  3 active torsions:
REMARK  status: ('A' for Active; 'I' for Inactive)
REMARK    1  A    between atoms: N_1  and  N_2
REMARK    2  A    between atoms: C_3  and  C_5
REMARK    3  A    between atoms: C_7  and  C_8
REMARK                            x       y       z     vdW  Elec       q    Type
REMARK                         _______ _______ _______ _____ _____    ______ ____
ROOT
ATOM      1  C   UNL     1       1.254   9.599  19.250  0.00  0.00    +0.000 A 
ATOM      2  C   UNL     1       1.871   8.424  18.800  0.00  0.00    +0.000 A 
ATOM      3  C   UNL     1       1.950   7.327  19.641  0.00  0.00    +0.000 A 
ATOM      4  N   UNL     1       1.450   7.388  20.894  0.00  0.00    +0.000 NA
ATOM      5  C   UNL     1       0.860   8.512  21.342  0.00  0.00    +0.000 A 
ATOM      6  C   UNL     1       0.341   8.511  22.631  0.00  0.00    +0.000 A 
ATOM      7  C   UNL     1      -0.306   9.625  23.175  0.00  0.00    +0.000 A 
ATOM      8  C   UNL     1      -0.453  10.771  22.412  0.00  0.00    +0.000 A 
ATOM      9  C   UNL     1       0.046  10.791  21.113  0.00  0.00    +0.000 A 
ATOM     10  C   UNL     1       0.722   9.673  20.558  0.00  0.00    +0.000 A 
ENDROOT
BRANCH   3  11
ATOM     11  C   UNL     1       2.591   6.012  19.181  0.00  0.00    +0.000 C 
ATOM     12  C   UNL     1       1.769   5.371  18.030  0.00  0.00    +0.000 C 
ATOM     13  C   UNL     1       2.413   4.051  17.563  0.00  0.00    +0.000 C 
ATOM     14  C   UNL     1       3.841   4.323  17.066  0.00  0.00    +0.000 C 
ATOM     15  C   UNL     1       4.685   4.915  18.203  0.00  0.00    +0.000 C 
ATOM     16  C   UNL     1       4.727   3.942  19.390  0.00  0.00    +0.000 C 
ATOM     17  C   UNL     1       3.301   3.669  19.891  0.00  0.00    +0.000 C 
ATOM     18  C   UNL     1       2.474   3.066  18.742  0.00  0.00    +0.000 C 
ATOM     19  C   UNL     1       2.654   4.989  20.349  0.00  0.00    +0.000 C 
ATOM     20  C   UNL     1       4.046   6.234  18.663  0.00  0.00    +0.000 C 
ENDBRANCH   3  11
BRANCH   1  22
ATOM     21  N   UNL     1       2.401  11.453  18.154  0.00  0.00    +0.000 N 
ATOM     22  C   UNL     1       1.197  10.753  18.303  0.00  0.00    +0.000 C 
ATOM     23  O   UNL     1       0.161  11.072  17.749  0.00  0.00    +0.000 OA
ATOM     24  H   UNL     1       3.269  11.058  18.510  0.00  0.00    +0.000 HD
BRANCH  21  25
ATOM     25  N   UNL     1       2.466  12.534  17.268  0.00  0.00    +0.000 NA
ATOM     26  H   UNL     1       3.345  12.507  16.750  0.00  0.00    +0.000 HD
ATOM     27  H   UNL     1       2.490  13.392  17.832  0.00  0.00    +0.000 HD
ENDBRANCH  21  25
ENDBRANCH   1  22
TORSDOF 3
ENDMDL
MODEL 9
REMARK VINA RESULT:      -7.6      4.618      6.972
REMARK  Name = 
REMARK  3 active torsions:
REMARK  status: ('A' for Active; 'I' for Inactive)
REMARK    1  A    between atoms: N_1  and  N_2
REMARK    2  A    between atoms: C_3  and  C_5
REMARK    3  A    between atoms: C_7  and  C_8
REMARK                            x       y       z     vdW  Elec       q    Type
REMARK                         _______ _______ _______ _____ _____    ______ ____
ROOT
ATOM      1  C   UNL     1       1.257   9.609  19.249  0.00  0.00    +0.000 A 
ATOM      2  C   UNL     1       1.871   8.433  18.799  0.00  0.00    +0.000 A 
ATOM      3  C   UNL     1       1.951   7.337  19.642  0.00  0.00    +0.000 A 
ATOM      4  N   UNL     1       1.454   7.401  20.896  0.00  0.00    +0.000 NA
ATOM      5  C   UNL     1       0.867   8.526  21.344  0.00  0.00    +0.000 A 
ATOM      6  C   UNL     1       0.350   8.528  22.633  0.00  0.00    +0.000 A 
ATOM      7  C   UNL     1      -0.294   9.643  23.177  0.00  0.00    +0.000 A 
ATOM      8  C   UNL     1      -0.442  10.789  22.413  0.00  0.00    +0.000 A 
ATOM      9  C   UNL     1       0.054  10.806  21.113  0.00  0.00    +0.000 A 
ATOM     10  C   UNL     1       0.728   9.686  20.558  0.00  0.00    +0.000 A 
ENDROOT
BRANCH   3  11
ATOM     11  C   UNL     1       2.590   6.021  19.183  0.00  0.00    +0.000 C 
ATOM     12  C   UNL     1       2.648   5.000  20.352  0.00  0.00    +0.000 C 
ATOM     13  C   UNL     1       3.286   3.675  19.894  0.00  0.00    +0.000 C 
ATOM     14  C   UNL     1       2.458   3.075  18.746  0.00  0.00    +0.000 C 
ATOM     15  C   UNL     1       2.428   4.050  17.561  0.00  0.00    +0.000 C 
ATOM     16  C   UNL     1       3.856   4.335  17.075  0.00  0.00    +0.000 C 
ATOM     17  C   UNL     1       4.686   4.935  18.219  0.00  0.00    +0.000 C 
ATOM     18  C   UNL     1       4.715   3.940  19.392  0.00  0.00    +0.000 C 
ATOM     19  C   UNL     1       4.043   6.256  18.683  0.00  0.00    +0.000 C 
ATOM     20  C   UNL     1       1.785   5.368  18.017  0.00  0.00    +0.000 C 
ENDBRANCH   3  11
BRANCH   1  22
ATOM     21  N   UNL     1       2.398  11.473  18.162  0.00  0.00    +0.000 N 
ATOM     22  C   UNL     1       1.199  10.762  18.301  0.00  0.00    +0.000 C 
ATOM     23  O   UNL     1       0.166  11.071  17.735  0.00  0.00    +0.000 OA
ATOM     24  H   UNL     1       3.266  11.086  18.528  0.00  0.00    +0.000 HD
BRANCH  21  25
ATOM     25  N   UNL     1       2.463  12.553  17.276  0.00  0.00    +0.000 NA
ATOM     26  H   UNL     1       2.599  12.214  16.323  0.00  0.00    +0.000 HD
ATOM     27  H   UNL     1       3.303  13.094  17.513  0.00  0.00    +0.000 HD
ENDBRANCH  21  25
ENDBRANCH   1  22
TORSDOF 3
ENDMDL
