MODEL 1
REMARK VINA RESULT:      -8.5      0.000      0.000
REMARK  Name = 
REMARK  8 active torsions:
REMARK  status: ('A' for Active; 'I' for Inactive)
REMARK    1  A    between atoms: C_2  and  C_25
REMARK    2  A    between atoms: N_3  and  C_4
REMARK    3  A    between atoms: C_8  and  C_9
REMARK    4  A    between atoms: C_9  and  N_10
REMARK    5  A    between atoms: N_13  and  C_14
REMARK    6  A    between atoms: C_14  and  C_15
REMARK    7  A    between atoms: C_18  and  O_19
REMARK    8  A    between atoms: C_29  and  C_30
REMARK                            x       y       z     vdW  Elec       q    Type
REMARK                         _______ _______ _______ _____ _____    ______ ____
ROOT
ATOM      1  C   UNL     1       3.964   3.766  19.570  0.00  0.00    +0.000 A 
ATOM      2  C   UNL     1       3.612   2.660  20.352  0.00  0.00    +0.000 A 
ATOM      3  C   UNL     1       2.579   2.742  21.286  0.00  0.00    +0.000 A 
ATOM      4  C   UNL     1       1.843   3.913  21.404  0.00  0.00    +0.000 A 
ATOM      5  C   UNL     1       2.165   5.021  20.609  0.00  0.00    +0.000 A 
ATOM      6  C   UNL     1       3.294   4.969  19.776  0.00  0.00    +0.000 A 
ENDROOT
BRANCH   1   9
ATOM      7  O   UNL     1       3.363   3.564  16.715  0.00  0.00    +0.000 OA
ATOM      8  C   UNL     1       4.493   3.751  17.151  0.00  0.00    +0.000 C 
ATOM      9  N   UNL     1       4.863   3.707  18.478  0.00  0.00    +0.000 N 
ATOM     10  H   UNL     1       5.848   3.723  18.708  0.00  0.00    +0.000 HD
BRANCH   8  11
ATOM     11  C   UNL     1       5.549   4.055  16.149  0.00  0.00    +0.000 A 
ATOM     12  C   UNL     1       6.673   4.844  16.409  0.00  0.00    +0.000 A 
ATOM     13  C   UNL     1       7.539   5.175  15.359  0.00  0.00    +0.000 A 
ATOM     14  C   UNL     1       7.278   4.733  14.055  0.00  0.00    +0.000 A 
ATOM     15  C   UNL     1       6.147   3.953  13.785  0.00  0.00    +0.000 A 
ATOM     16  C   UNL     1       5.298   3.614  14.844  0.00  0.00    +0.000 A 
BRANCH  15  17
ATOM     17  C   UNL     1       5.791   3.484  12.398  0.00  0.00    +0.000 C 
ATOM     18  F   UNL     1       5.940   2.144  12.218  0.00  0.00    +0.000 F 
ATOM     19  F   UNL     1       4.498   3.765  12.075  0.00  0.00    +0.000 F 
ATOM     20  F   UNL     1       6.554   4.078  11.439  0.00  0.00    +0.000 F 
ENDBRANCH  15  17
ENDBRANCH   8  11
ENDBRANCH   1   9
BRANCH   5  21
ATOM     21  C   UNL     1       1.237   6.215  20.581  0.00  0.00    +0.000 C 
BRANCH  21  22
ATOM     22  N   UNL     1       1.948   7.506  20.504  0.00  0.00    +0.000 NA
ATOM     23  C   UNL     1       2.105   8.049  19.133  0.00  0.00    +0.000 C 
ATOM     24  C   UNL     1       0.985   8.963  18.564  0.00  0.00    +0.000 C 
ATOM     25  N   UNL     1       0.337   9.897  19.506  0.00  0.00    +0.000 NA
ATOM     26  C   UNL     1       0.064   9.167  20.763  0.00  0.00    +0.000 C 
ATOM     27  C   UNL     1       1.312   8.497  21.381  0.00  0.00    +0.000 C 
BRANCH  25  28
ATOM     28  C   UNL     1       1.140  11.100  19.792  0.00  0.00    +0.000 C 
BRANCH  28  29
ATOM     29  C   UNL     1       0.381  12.415  19.785  0.00  0.00    +0.000 A 
ATOM     30  C   UNL     1      -0.237  12.916  20.941  0.00  0.00    +0.000 A 
ATOM     31  C   UNL     1      -0.845  14.174  20.932  0.00  0.00    +0.000 A 
ATOM     32  C   UNL     1      -0.832  14.937  19.770  0.00  0.00    +0.000 A 
ATOM     33  C   UNL     1      -0.222  14.463  18.617  0.00  0.00    +0.000 A 
ATOM     34  C   UNL     1       0.385  13.206  18.624  0.00  0.00    +0.000 A 
BRANCH  32  35
ATOM     35  O   UNL     1      -1.404  16.175  19.717  0.00  0.00    +0.000 OA
ATOM     36  H   UNL     1      -1.211  16.565  18.849  0.00  0.00    +0.000 HD
ENDBRANCH  32  35
ENDBRANCH  28  29
ENDBRANCH  25  28
ENDBRANCH  21  22
ENDBRANCH   5  21
TORSDOF 8
ENDMDL
MODEL 2
REMARK VINA RESULT:      -8.5      0.579      1.110
REMARK  Name = 
REMARK  8 active torsions:
REMARK  status: ('A' for Active; 'I' for Inactive)
REMARK    1  A    between atoms: C_2  and  C_25
REMARK    2  A    between atoms: N_3  and  C_4
REMARK    3  A    between atoms: C_8  and  C_9
REMARK    4  A    between atoms: C_9  and  N_10
REMARK    5  A    between atoms: N_13  and  C_14
REMARK    6  A    between atoms: C_14  and  C_15
REMARK    7  A    between atoms: C_18  and  O_19
REMARK    8  A    between atoms: C_29  and  C_30
REMARK                            x       y       z     vdW  Elec       q    Type
REMARK                         _______ _______ _______ _____ _____    ______ ____
ROOT
ATOM      1  C   UNL     1       3.783   3.896  19.542  0.00  0.00    +0.000 A 
ATOM      2  C   UNL     1       3.384   2.780  20.286  0.00  0.00    +0.000 A 
ATOM      3  C   UNL     1       2.311   2.856  21.175  0.00  0.00    +0.000 A 
ATOM      4  C   UNL     1       1.584   4.033  21.283  0.00  0.00    +0.000 A 
ATOM      5  C   UNL     1       1.954   5.153  20.526  0.00  0.00    +0.000 A 
ATOM      6  C   UNL     1       3.118   5.103  19.743  0.00  0.00    +0.000 A 
ENDROOT
BRANCH   1   9
ATOM      7  O   UNL     1       3.325   3.432  16.692  0.00  0.00    +0.000 OA
ATOM      8  C   UNL     1       4.413   3.759  17.151  0.00  0.00    +0.000 C 
ATOM      9  N   UNL     1       4.728   3.848  18.490  0.00  0.00    +0.000 N 
ATOM     10  H   UNL     1       5.697   3.977  18.752  0.00  0.00    +0.000 HD
BRANCH   8  11
ATOM     11  C   UNL     1       5.476   4.093  16.167  0.00  0.00    +0.000 A 
ATOM     12  C   UNL     1       6.568   4.921  16.443  0.00  0.00    +0.000 A 
ATOM     13  C   UNL     1       7.442   5.275  15.407  0.00  0.00    +0.000 A 
ATOM     14  C   UNL     1       7.220   4.816  14.101  0.00  0.00    +0.000 A 
ATOM     15  C   UNL     1       6.121   3.997  13.815  0.00  0.00    +0.000 A 
ATOM     16  C   UNL     1       5.264   3.636  14.860  0.00  0.00    +0.000 A 
BRANCH  15  17
ATOM     17  C   UNL     1       5.807   3.509  12.424  0.00  0.00    +0.000 C 
ATOM     18  F   UNL     1       4.508   3.687  12.063  0.00  0.00    +0.000 F 
ATOM     19  F   UNL     1       6.552   4.142  11.476  0.00  0.00    +0.000 F 
ATOM     20  F   UNL     1       6.060   2.180  12.272  0.00  0.00    +0.000 F 
ENDBRANCH  15  17
ENDBRANCH   8  11
ENDBRANCH   1   9
BRANCH   5  21
ATOM     21  C   UNL     1       1.042   6.359  20.480  0.00  0.00    +0.000 C 
BRANCH  21  22
ATOM     22  N   UNL     1       1.761   7.640  20.612  0.00  0.00    +0.000 NA
ATOM     23  C   UNL     1       1.789   8.468  19.381  0.00  0.00    +0.000 C 
ATOM     24  C   UNL     1       0.631   9.475  19.137  0.00  0.00    +0.000 C 
ATOM     25  N   UNL     1       0.095  10.179  20.319  0.00  0.00    +0.000 NA
ATOM     26  C   UNL     1      -0.063   9.194  21.410  0.00  0.00    +0.000 C 
ATOM     27  C   UNL     1       1.231   8.415  21.741  0.00  0.00    +0.000 C 
BRANCH  25  28
ATOM     28  C   UNL     1       0.940  11.298  20.774  0.00  0.00    +0.000 C 
BRANCH  28  29
ATOM     29  C   UNL     1       0.580  12.664  20.219  0.00  0.00    +0.000 A 
ATOM     30  C   UNL     1       1.450  13.370  19.375  0.00  0.00    +0.000 A 
ATOM     31  C   UNL     1       1.054  14.581  18.800  0.00  0.00    +0.000 A 
ATOM     32  C   UNL     1      -0.214  15.085  19.060  0.00  0.00    +0.000 A 
ATOM     33  C   UNL     1      -1.094  14.400  19.888  0.00  0.00    +0.000 A 
ATOM     34  C   UNL     1      -0.699  13.192  20.465  0.00  0.00    +0.000 A 
BRANCH  32  35
ATOM     35  O   UNL     1      -0.648  16.257  18.513  0.00  0.00    +0.000 OA
ATOM     36  H   UNL     1       0.118  16.843  18.395  0.00  0.00    +0.000 HD
ENDBRANCH  32  35
ENDBRANCH  28  29
ENDBRANCH  25  28
ENDBRANCH  21  22
ENDBRANCH   5  21
TORSDOF 8
ENDMDL
MODEL 3
REMARK VINA RESULT:      -8.4      0.755      1.117
REMARK  Name = 
REMARK  8 active torsions:
REMARK  status: ('A' for Active; 'I' for Inactive)
REMARK    1  A    between atoms: C_2  and  C_25
REMARK    2  A    between atoms: N_3  and  C_4
REMARK    3  A    between atoms: C_8  and  C_9
REMARK    4  A    between atoms: C_9  and  N_10
REMARK    5  A    between atoms: N_13  and  C_14
REMARK    6  A    between atoms: C_14  and  C_15
REMARK    7  A    between atoms: C_18  and  O_19
REMARK    8  A    between atoms: C_29  and  C_30
REMARK                            x       y       z     vdW  Elec       q    Type
REMARK                         _______ _______ _______ _____ _____    ______ ____
ROOT
ATOM      1  C   UNL     1       3.784   3.894  19.583  0.00  0.00    +0.000 A 
ATOM      2  C   UNL     1       3.352   2.776  20.305  0.00  0.00    +0.000 A 
ATOM      3  C   UNL     1       2.273   2.862  21.185  0.00  0.00    +0.000 A 
ATOM      4  C   UNL     1       1.572   4.055  21.305  0.00  0.00    +0.000 A 
ATOM      5  C   UNL     1       1.975   5.178  20.571  0.00  0.00    +0.000 A 
ATOM      6  C   UNL     1       3.146   5.113  19.798  0.00  0.00    +0.000 A 
ENDROOT
BRANCH   1   9
ATOM      7  O   UNL     1       3.355   3.382  16.737  0.00  0.00    +0.000 OA
ATOM      8  C   UNL     1       4.435   3.729  17.200  0.00  0.00    +0.000 C 
ATOM      9  N   UNL     1       4.738   3.841  18.540  0.00  0.00    +0.000 N 
ATOM     10  H   UNL     1       5.704   3.985  18.808  0.00  0.00    +0.000 HD
BRANCH   8  11
ATOM     11  C   UNL     1       5.502   4.060  16.219  0.00  0.00    +0.000 A 
ATOM     12  C   UNL     1       6.606   4.869  16.504  0.00  0.00    +0.000 A 
ATOM     13  C   UNL     1       7.484   5.224  15.472  0.00  0.00    +0.000 A 
ATOM     14  C   UNL     1       7.255   4.785  14.161  0.00  0.00    +0.000 A 
ATOM     15  C   UNL     1       6.144   3.985  13.866  0.00  0.00    +0.000 A 
ATOM     16  C   UNL     1       5.283   3.623  14.907  0.00  0.00    +0.000 A 
BRANCH  15  17
ATOM     17  C   UNL     1       5.822   3.518  12.469  0.00  0.00    +0.000 C 
ATOM     18  F   UNL     1       6.610   4.077  11.511  0.00  0.00    +0.000 F 
ATOM     19  F   UNL     1       5.961   2.170  12.332  0.00  0.00    +0.000 F 
ATOM     20  F   UNL     1       4.539   3.800  12.112  0.00  0.00    +0.000 F 
ENDBRANCH  15  17
ENDBRANCH   8  11
ENDBRANCH   1   9
BRANCH   5  21
ATOM     21  C   UNL     1       1.092   6.405  20.537  0.00  0.00    +0.000 C 
BRANCH  21  22
ATOM     22  N   UNL     1       1.845   7.669  20.651  0.00  0.00    +0.000 NA
ATOM     23  C   UNL     1       1.936   8.455  19.396  0.00  0.00    +0.000 C 
ATOM     24  C   UNL     1       0.816   9.486  19.083  0.00  0.00    +0.000 C 
ATOM     25  N   UNL     1       0.264  10.243  20.224  0.00  0.00    +0.000 NA
ATOM     26  C   UNL     1       0.043   9.299  21.340  0.00  0.00    +0.000 C 
ATOM     27  C   UNL     1       1.302   8.495  21.738  0.00  0.00    +0.000 C 
BRANCH  25  28
ATOM     28  C   UNL     1       1.127  11.352  20.672  0.00  0.00    +0.000 C 
BRANCH  28  29
ATOM     29  C   UNL     1       0.905  12.682  19.975  0.00  0.00    +0.000 A 
ATOM     30  C   UNL     1      -0.272  12.953  19.260  0.00  0.00    +0.000 A 
ATOM     31  C   UNL     1      -0.493  14.218  18.711  0.00  0.00    +0.000 A 
ATOM     32  C   UNL     1       0.457  15.219  18.879  0.00  0.00    +0.000 A 
ATOM     33  C   UNL     1       1.626  14.974  19.588  0.00  0.00    +0.000 A 
ATOM     34  C   UNL     1       1.849  13.710  20.136  0.00  0.00    +0.000 A 
BRANCH  32  35
ATOM     35  O   UNL     1       0.280  16.472  18.370  0.00  0.00    +0.000 OA
ATOM     36  H   UNL     1      -0.673  16.660  18.341  0.00  0.00    +0.000 HD
ENDBRANCH  32  35
ENDBRANCH  28  29
ENDBRANCH  25  28
ENDBRANCH  21  22
ENDBRANCH   5  21
TORSDOF 8
ENDMDL
MODEL 4
REMARK VINA RESULT:      -8.2      2.315      3.313
REMARK  Name = 
REMARK  8 active torsions:
REMARK  status: ('A' for Active; 'I' for Inactive)
REMARK    1  A    between atoms: C_2  and  C_25
REMARK    2  A    between atoms: N_3  and  C_4
REMARK    3  A    between atoms: C_8  and  C_9
REMARK    4  A    between atoms: C_9  and  N_10
REMARK    5  A    between atoms: N_13  and  C_14
REMARK    6  A    between atoms: C_14  and  C_15
REMARK    7  A    between atoms: C_18  and  O_19
REMARK    8  A    between atoms: C_29  and  C_30
REMARK                            x       y       z     vdW  Elec       q    Type
REMARK                         _______ _______ _______ _____ _____    ______ ____
ROOT
ATOM      1  C   UNL     1       4.296   6.432  17.362  0.00  0.00    +0.000 A 
ATOM      2  C   UNL     1       4.114   5.506  18.395  0.00  0.00    +0.000 A 
ATOM      3  C   UNL     1       3.177   5.732  19.404  0.00  0.00    +0.000 A 
ATOM      4  C   UNL     1       2.366   6.857  19.356  0.00  0.00    +0.000 A 
ATOM      5  C   UNL     1       2.517   7.781  18.314  0.00  0.00    +0.000 A 
ATOM      6  C   UNL     1       3.557   7.611  17.386  0.00  0.00    +0.000 A 
ENDROOT
BRANCH   1   9
ATOM      7  O   UNL     1       6.385   4.424  16.966  0.00  0.00    +0.000 OA
ATOM      8  C   UNL     1       5.953   5.129  16.062  0.00  0.00    +0.000 C 
ATOM      9  N   UNL     1       5.082   6.187  16.211  0.00  0.00    +0.000 N 
ATOM     10  H   UNL     1       4.915   6.792  15.417  0.00  0.00    +0.000 HD
BRANCH   8  11
ATOM     11  C   UNL     1       6.411   4.799  14.687  0.00  0.00    +0.000 A 
ATOM     12  C   UNL     1       7.616   5.243  14.134  0.00  0.00    +0.000 A 
ATOM     13  C   UNL     1       7.892   4.983  12.786  0.00  0.00    +0.000 A 
ATOM     14  C   UNL     1       6.966   4.295  11.990  0.00  0.00    +0.000 A 
ATOM     15  C   UNL     1       5.751   3.858  12.534  0.00  0.00    +0.000 A 
ATOM     16  C   UNL     1       5.493   4.108  13.885  0.00  0.00    +0.000 A 
BRANCH  15  17
ATOM     17  C   UNL     1       4.699   3.152  11.718  0.00  0.00    +0.000 C 
ATOM     18  F   UNL     1       3.524   2.972  12.379  0.00  0.00    +0.000 F 
ATOM     19  F   UNL     1       4.389   3.831  10.578  0.00  0.00    +0.000 F 
ATOM     20  F   UNL     1       5.098   1.913  11.318  0.00  0.00    +0.000 F 
ENDBRANCH  15  17
ENDBRANCH   8  11
ENDBRANCH   1   9
BRANCH   5  21
ATOM     21  C   UNL     1       1.499   8.886  18.141  0.00  0.00    +0.000 C 
BRANCH  21  22
ATOM     22  N   UNL     1       1.542   9.894  19.218  0.00  0.00    +0.000 NA
ATOM     23  C   UNL     1       1.632  11.300  18.752  0.00  0.00    +0.000 C 
ATOM     24  C   UNL     1       0.315  12.075  18.474  0.00  0.00    +0.000 C 
ATOM     25  N   UNL     1      -0.819  11.819  19.384  0.00  0.00    +0.000 NA
ATOM     26  C   UNL     1      -0.909  10.360  19.608  0.00  0.00    +0.000 C 
ATOM     27  C   UNL     1       0.401   9.725  20.128  0.00  0.00    +0.000 C 
BRANCH  25  28
ATOM     28  C   UNL     1      -0.709  12.517  20.678  0.00  0.00    +0.000 C 
BRANCH  28  29
ATOM     29  C   UNL     1      -1.992  12.615  21.484  0.00  0.00    +0.000 A 
ATOM     30  C   UNL     1      -3.210  12.980  20.891  0.00  0.00    +0.000 A 
ATOM     31  C   UNL     1      -4.393  12.968  21.634  0.00  0.00    +0.000 A 
ATOM     32  C   UNL     1      -4.364  12.586  22.970  0.00  0.00    +0.000 A 
ATOM     33  C   UNL     1      -3.170  12.215  23.576  0.00  0.00    +0.000 A 
ATOM     34  C   UNL     1      -1.988  12.228  22.835  0.00  0.00    +0.000 A 
BRANCH  32  35
ATOM     35  O   UNL     1      -5.495  12.549  23.732  0.00  0.00    +0.000 OA
ATOM     36  H   UNL     1      -5.553  13.378  24.235  0.00  0.00    +0.000 HD
ENDBRANCH  32  35
ENDBRANCH  28  29
ENDBRANCH  25  28
ENDBRANCH  21  22
ENDBRANCH   5  21
TORSDOF 8
ENDMDL
MODEL 5
REMARK VINA RESULT:      -8.2      2.076      2.830
REMARK  Name = 
REMARK  8 active torsions:
REMARK  status: ('A' for Active; 'I' for Inactive)
REMARK    1  A    between atoms: C_2  and  C_25
REMARK    2  A    between atoms: N_3  and  C_4
REMARK    3  A    between atoms: C_8  and  C_9
REMARK    4  A    between atoms: C_9  and  N_10
REMARK    5  A    between atoms: N_13  and  C_14
REMARK    6  A    between atoms: C_14  and  C_15
REMARK    7  A    between atoms: C_18  and  O_19
REMARK    8  A    between atoms: C_29  and  C_30
REMARK                            x       y       z     vdW  Elec       q    Type
REMARK                         _______ _______ _______ _____ _____    ______ ____
ROOT
ATOM      1  C   UNL     1       3.188   4.742  19.201  0.00  0.00    +0.000 A 
ATOM      2  C   UNL     1       2.081   3.892  19.306  0.00  0.00    +0.000 A 
ATOM      3  C   UNL     1       0.965   4.257  20.061  0.00  0.00    +0.000 A 
ATOM      4  C   UNL     1       0.919   5.504  20.668  0.00  0.00    +0.000 A 
ATOM      5  C   UNL     1       2.008   6.378  20.551  0.00  0.00    +0.000 A 
ATOM      6  C   UNL     1       3.177   5.941  19.907  0.00  0.00    +0.000 A 
ENDROOT
BRANCH   1   9
ATOM      7  O   UNL     1       3.161   3.455  16.575  0.00  0.00    +0.000 OA
ATOM      8  C   UNL     1       4.141   4.035  17.027  0.00  0.00    +0.000 C 
ATOM      9  N   UNL     1       4.265   4.529  18.308  0.00  0.00    +0.000 N 
ATOM     10  H   UNL     1       5.173   4.850  18.617  0.00  0.00    +0.000 HD
BRANCH   8  11
ATOM     11  C   UNL     1       5.288   4.220  16.100  0.00  0.00    +0.000 A 
ATOM     12  C   UNL     1       6.450   4.928  16.422  0.00  0.00    +0.000 A 
ATOM     13  C   UNL     1       7.414   5.153  15.431  0.00  0.00    +0.000 A 
ATOM     14  C   UNL     1       7.216   4.686  14.125  0.00  0.00    +0.000 A 
ATOM     15  C   UNL     1       6.049   3.986  13.794  0.00  0.00    +0.000 A 
ATOM     16  C   UNL     1       5.100   3.753  14.794  0.00  0.00    +0.000 A 
BRANCH  15  17
ATOM     17  C   UNL     1       5.761   3.497  12.397  0.00  0.00    +0.000 C 
ATOM     18  F   UNL     1       4.491   3.749  11.981  0.00  0.00    +0.000 F 
ATOM     19  F   UNL     1       6.581   4.068  11.472  0.00  0.00    +0.000 F 
ATOM     20  F   UNL     1       5.936   2.152  12.273  0.00  0.00    +0.000 F 
ENDBRANCH  15  17
ENDBRANCH   8  11
ENDBRANCH   1   9
BRANCH   5  21
ATOM     21  C   UNL     1       1.873   7.808  21.026  0.00  0.00    +0.000 C 
BRANCH  21  22
ATOM     22  N   UNL     1       0.494   8.324  20.939  0.00  0.00    +0.000 NA
ATOM     23  C   UNL     1      -0.192   8.489  22.244  0.00  0.00    +0.000 C 
ATOM     24  C   UNL     1      -0.042   9.840  22.997  0.00  0.00    +0.000 C 
ATOM     25  N   UNL     1      -0.018  11.066  22.175  0.00  0.00    +0.000 NA
ATOM     26  C   UNL     1       0.857  10.822  21.008  0.00  0.00    +0.000 C 
ATOM     27  C   UNL     1       0.461   9.580  20.178  0.00  0.00    +0.000 C 
BRANCH  25  28
ATOM     28  C   UNL     1      -1.352  11.497  21.717  0.00  0.00    +0.000 C 
BRANCH  28  29
ATOM     29  C   UNL     1      -2.049  12.524  22.591  0.00  0.00    +0.000 A 
ATOM     30  C   UNL     1      -3.424  12.452  22.862  0.00  0.00    +0.000 A 
ATOM     31  C   UNL     1      -4.021  13.352  23.748  0.00  0.00    +0.000 A 
ATOM     32  C   UNL     1      -3.245  14.323  24.371  0.00  0.00    +0.000 A 
ATOM     33  C   UNL     1      -1.882  14.409  24.122  0.00  0.00    +0.000 A 
ATOM     34  C   UNL     1      -1.285  13.511  23.236  0.00  0.00    +0.000 A 
BRANCH  32  35
ATOM     35  O   UNL     1      -3.783  15.217  25.250  0.00  0.00    +0.000 OA
ATOM     36  H   UNL     1      -4.730  15.307  25.056  0.00  0.00    +0.000 HD
ENDBRANCH  32  35
ENDBRANCH  28  29
ENDBRANCH  25  28
ENDBRANCH  21  22
ENDBRANCH   5  21
TORSDOF 8
ENDMDL
MODEL 6
REMARK VINA RESULT:      -8.1      5.121      7.163
REMARK  Name = 
REMARK  8 active torsions:
REMARK  status: ('A' for Active; 'I' for Inactive)
REMARK    1  A    between atoms: C_2  and  C_25
REMARK    2  A    between atoms: N_3  and  C_4
REMARK    3  A    between atoms: C_8  and  C_9
REMARK    4  A    between atoms: C_9  and  N_10
REMARK    5  A    between atoms: N_13  and  C_14
REMARK    6  A    between atoms: C_14  and  C_15
REMARK    7  A    between atoms: C_18  and  O_19
REMARK    8  A    between atoms: C_29  and  C_30
REMARK                            x       y       z     vdW  Elec       q    Type
REMARK                         _______ _______ _______ _____ _____    ______ ____
ROOT
ATOM      1  C   UNL     1       0.925   9.814  18.287  0.00  0.00    +0.000 A 
ATOM      2  C   UNL     1      -0.429   9.736  17.945  0.00  0.00    +0.000 A 
ATOM      3  C   UNL     1      -1.270  10.840  18.090  0.00  0.00    +0.000 A 
ATOM      4  C   UNL     1      -0.752  12.054  18.520  0.00  0.00    +0.000 A 
ATOM      5  C   UNL     1       0.608  12.156  18.843  0.00  0.00    +0.000 A 
ATOM      6  C   UNL     1       1.410  11.003  18.825  0.00  0.00    +0.000 A 
ENDROOT
BRANCH   1   9
ATOM      7  O   UNL     1       2.027   7.763  20.056  0.00  0.00    +0.000 OA
ATOM      8  C   UNL     1       2.239   7.791  18.849  0.00  0.00    +0.000 C 
ATOM      9  N   UNL     1       1.874   8.806  17.991  0.00  0.00    +0.000 N 
ATOM     10  H   UNL     1       2.236   8.796  17.046  0.00  0.00    +0.000 HD
BRANCH   8  11
ATOM     11  C   UNL     1       2.948   6.619  18.272  0.00  0.00    +0.000 A 
ATOM     12  C   UNL     1       4.051   6.712  17.417  0.00  0.00    +0.000 A 
ATOM     13  C   UNL     1       4.562   5.550  16.826  0.00  0.00    +0.000 A 
ATOM     14  C   UNL     1       3.971   4.304  17.076  0.00  0.00    +0.000 A 
ATOM     15  C   UNL     1       2.858   4.206  17.921  0.00  0.00    +0.000 A 
ATOM     16  C   UNL     1       2.365   5.370  18.519  0.00  0.00    +0.000 A 
BRANCH  15  17
ATOM     17  C   UNL     1       2.153   2.901  18.193  0.00  0.00    +0.000 C 
ATOM     18  F   UNL     1       2.376   1.952  17.246  0.00  0.00    +0.000 F 
ATOM     19  F   UNL     1       2.534   2.348  19.379  0.00  0.00    +0.000 F 
ATOM     20  F   UNL     1       0.802   3.049  18.267  0.00  0.00    +0.000 F 
ENDBRANCH  15  17
ENDBRANCH   8  11
ENDBRANCH   1   9
BRANCH   5  21
ATOM     21  C   UNL     1       1.215  13.516  19.102  0.00  0.00    +0.000 C 
BRANCH  21  22
ATOM     22  N   UNL     1       2.668  13.470  19.355  0.00  0.00    +0.000 NA
ATOM     23  C   UNL     1       3.494  14.225  18.382  0.00  0.00    +0.000 C 
ATOM     24  C   UNL     1       3.786  15.725  18.662  0.00  0.00    +0.000 C 
ATOM     25  N   UNL     1       4.016  16.112  20.068  0.00  0.00    +0.000 NA
ATOM     26  C   UNL     1       3.000  15.436  20.904  0.00  0.00    +0.000 C 
ATOM     27  C   UNL     1       2.966  13.901  20.727  0.00  0.00    +0.000 C 
BRANCH  25  28
ATOM     28  C   UNL     1       5.367  15.781  20.559  0.00  0.00    +0.000 C 
BRANCH  28  29
ATOM     29  C   UNL     1       6.487  15.914  19.544  0.00  0.00    +0.000 A 
ATOM     30  C   UNL     1       6.997  17.167  19.167  0.00  0.00    +0.000 A 
ATOM     31  C   UNL     1       8.092  17.257  18.305  0.00  0.00    +0.000 A 
ATOM     32  C   UNL     1       8.687  16.097  17.823  0.00  0.00    +0.000 A 
ATOM     33  C   UNL     1       8.203  14.848  18.187  0.00  0.00    +0.000 A 
ATOM     34  C   UNL     1       7.108  14.756  19.047  0.00  0.00    +0.000 A 
BRANCH  32  35
ATOM     35  O   UNL     1       9.765  16.136  16.987  0.00  0.00    +0.000 OA
ATOM     36  H   UNL     1       9.456  16.380  16.099  0.00  0.00    +0.000 HD
ENDBRANCH  32  35
ENDBRANCH  28  29
ENDBRANCH  25  28
ENDBRANCH  21  22
ENDBRANCH   5  21
TORSDOF 8
ENDMDL
MODEL 7
REMARK VINA RESULT:      -7.9      1.549      2.017
REMARK  Name = 
REMARK  8 active torsions:
REMARK  status: ('A' for Active; 'I' for Inactive)
REMARK    1  A    between atoms: C_2  and  C_25
REMARK    2  A    between atoms: N_3  and  C_4
REMARK    3  A    between atoms: C_8  and  C_9
REMARK    4  A    between atoms: C_9  and  N_10
REMARK    5  A    between atoms: N_13  and  C_14
REMARK    6  A    between atoms: C_14  and  C_15
REMARK    7  A    between atoms: C_18  and  O_19
REMARK    8  A    between atoms: C_29  and  C_30
REMARK                            x       y       z     vdW  Elec       q    Type
REMARK                         _______ _______ _______ _____ _____    ______ ____
ROOT
ATOM      1  C   UNL     1       4.296   4.654  17.744  0.00  0.00    +0.000 A 
ATOM      2  C   UNL     1       4.427   3.489  18.507  0.00  0.00    +0.000 A 
ATOM      3  C   UNL     1       3.733   3.336  19.708  0.00  0.00    +0.000 A 
ATOM      4  C   UNL     1       2.849   4.321  20.127  0.00  0.00    +0.000 A 
ATOM      5  C   UNL     1       2.686   5.483  19.361  0.00  0.00    +0.000 A 
ATOM      6  C   UNL     1       3.495   5.683  18.230  0.00  0.00    +0.000 A 
ENDROOT
BRANCH   1   9
ATOM      7  O   UNL     1       7.059   5.124  16.910  0.00  0.00    +0.000 OA
ATOM      8  C   UNL     1       6.153   4.887  16.121  0.00  0.00    +0.000 C 
ATOM      9  N   UNL     1       4.813   4.803  16.435  0.00  0.00    +0.000 N 
ATOM     10  H   UNL     1       4.140   4.757  15.680  0.00  0.00    +0.000 HD
BRANCH   8  11
ATOM     11  C   UNL     1       6.546   4.665  14.705  0.00  0.00    +0.000 A 
ATOM     12  C   UNL     1       7.703   5.189  14.121  0.00  0.00    +0.000 A 
ATOM     13  C   UNL     1       7.913   5.028  12.746  0.00  0.00    +0.000 A 
ATOM     14  C   UNL     1       6.969   4.359  11.955  0.00  0.00    +0.000 A 
ATOM     15  C   UNL     1       5.801   3.843  12.531  0.00  0.00    +0.000 A 
ATOM     16  C   UNL     1       5.610   3.995  13.908  0.00  0.00    +0.000 A 
BRANCH  15  17
ATOM     17  C   UNL     1       4.730   3.153  11.726  0.00  0.00    +0.000 C 
ATOM     18  F   UNL     1       5.089   1.918  11.284  0.00  0.00    +0.000 F 
ATOM     19  F   UNL     1       3.582   2.979  12.439  0.00  0.00    +0.000 F 
ATOM     20  F   UNL     1       4.378   3.861  10.618  0.00  0.00    +0.000 F 
ENDBRANCH  15  17
ENDBRANCH   8  11
ENDBRANCH   1   9
BRANCH   5  21
ATOM     21  C   UNL     1       1.574   6.451  19.698  0.00  0.00    +0.000 C 
BRANCH  21  22
ATOM     22  N   UNL     1       2.058   7.809  20.012  0.00  0.00    +0.000 NA
ATOM     23  C   UNL     1       1.892   8.797  18.918  0.00  0.00    +0.000 C 
ATOM     24  C   UNL     1       0.565   9.601  18.840  0.00  0.00    +0.000 C 
ATOM     25  N   UNL     1      -0.044  10.018  20.119  0.00  0.00    +0.000 NA
ATOM     26  C   UNL     1       0.018   8.873  21.053  0.00  0.00    +0.000 C 
ATOM     27  C   UNL     1       1.441   8.303  21.250  0.00  0.00    +0.000 C 
BRANCH  25  28
ATOM     28  C   UNL     1       0.605  11.194  20.728  0.00  0.00    +0.000 C 
BRANCH  28  29
ATOM     29  C   UNL     1      -0.331  12.210  21.357  0.00  0.00    +0.000 A 
ATOM     30  C   UNL     1      -0.881  12.014  22.633  0.00  0.00    +0.000 A 
ATOM     31  C   UNL     1      -1.661  13.009  23.229  0.00  0.00    +0.000 A 
ATOM     32  C   UNL     1      -1.887  14.204  22.556  0.00  0.00    +0.000 A 
ATOM     33  C   UNL     1      -1.347  14.420  21.296  0.00  0.00    +0.000 A 
ATOM     34  C   UNL     1      -0.569  13.427  20.698  0.00  0.00    +0.000 A 
BRANCH  32  35
ATOM     35  O   UNL     1      -2.633  15.206  23.103  0.00  0.00    +0.000 OA
ATOM     36  H   UNL     1      -3.531  15.156  22.737  0.00  0.00    +0.000 HD
ENDBRANCH  32  35
ENDBRANCH  28  29
ENDBRANCH  25  28
ENDBRANCH  21  22
ENDBRANCH   5  21
TORSDOF 8
ENDMDL
MODEL 8
REMARK VINA RESULT:      -7.8      6.190     12.091
REMARK  Name = 
REMARK  8 active torsions:
REMARK  status: ('A' for Active; 'I' for Inactive)
REMARK    1  A    between atoms: C_2  and  C_25
REMARK    2  A    between atoms: N_3  and  C_4
REMARK    3  A    between atoms: C_8  and  C_9
REMARK    4  A    between atoms: C_9  and  N_10
REMARK    5  A    between atoms: N_13  and  C_14
REMARK    6  A    between atoms: C_14  and  C_15
REMARK    7  A    between atoms: C_18  and  O_19
REMARK    8  A    between atoms: C_29  and  C_30
REMARK                            x       y       z     vdW  Elec       q    Type
REMARK                         _______ _______ _______ _____ _____    ______ ____
ROOT
ATOM      1  C   UNL     1       0.009  10.356  20.483  0.00  0.00    +0.000 A 
ATOM      2  C   UNL     1      -0.242  10.715  19.153  0.00  0.00    +0.000 A 
ATOM      3  C   UNL     1       0.355  10.023  18.098  0.00  0.00    +0.000 A 
ATOM      4  C   UNL     1       1.161   8.923  18.360  0.00  0.00    +0.000 A 
ATOM      5  C   UNL     1       1.401   8.534  19.684  0.00  0.00    +0.000 A 
ATOM      6  C   UNL     1       0.908   9.323  20.736  0.00  0.00    +0.000 A 
ENDROOT
BRANCH   1   9
ATOM      7  O   UNL     1       0.455  12.861  21.922  0.00  0.00    +0.000 OA
ATOM      8  C   UNL     1      -0.510  12.135  22.124  0.00  0.00    +0.000 C 
ATOM      9  N   UNL     1      -0.700  10.879  21.590  0.00  0.00    +0.000 N 
ATOM     10  H   UNL     1      -1.456  10.309  21.947  0.00  0.00    +0.000 HD
BRANCH   8  11
ATOM     11  C   UNL     1      -1.566  12.671  23.023  0.00  0.00    +0.000 A 
ATOM     12  C   UNL     1      -2.795  12.043  23.252  0.00  0.00    +0.000 A 
ATOM     13  C   UNL     1      -3.770  12.697  24.015  0.00  0.00    +0.000 A 
ATOM     14  C   UNL     1      -3.527  13.975  24.536  0.00  0.00    +0.000 A 
ATOM     15  C   UNL     1      -2.304  14.615  24.300  0.00  0.00    +0.000 A 
ATOM     16  C   UNL     1      -1.331  13.946  23.551  0.00  0.00    +0.000 A 
BRANCH  15  17
ATOM     17  C   UNL     1      -2.001  16.005  24.798  0.00  0.00    +0.000 C 
ATOM     18  F   UNL     1      -0.917  16.069  25.615  0.00  0.00    +0.000 F 
ATOM     19  F   UNL     1      -1.756  16.875  23.778  0.00  0.00    +0.000 F 
ATOM     20  F   UNL     1      -3.036  16.539  25.504  0.00  0.00    +0.000 F 
ENDBRANCH  15  17
ENDBRANCH   8  11
ENDBRANCH   1   9
BRANCH   5  21
ATOM     21  C   UNL     1       2.096   7.220  19.962  0.00  0.00    +0.000 C 
BRANCH  21  22
ATOM     22  N   UNL     1       2.561   6.535  18.741  0.00  0.00    +0.000 NA
ATOM     23  C   UNL     1       4.032   6.535  18.550  0.00  0.00    +0.000 C 
ATOM     24  C   UNL     1       4.861   5.375  19.167  0.00  0.00    +0.000 C 
ATOM     25  N   UNL     1       4.255   4.029  19.140  0.00  0.00    +0.000 NA
ATOM     26  C   UNL     1       2.836   4.155  19.539  0.00  0.00    +0.000 C 
ATOM     27  C   UNL     1       2.035   5.165  18.686  0.00  0.00    +0.000 C 
BRANCH  25  28
ATOM     28  C   UNL     1       4.348   3.364  17.827  0.00  0.00    +0.000 C 
BRANCH  28  29
ATOM     29  C   UNL     1       5.298   4.005  16.831  0.00  0.00    +0.000 A 
ATOM     30  C   UNL     1       6.655   4.203  17.129  0.00  0.00    +0.000 A 
ATOM     31  C   UNL     1       7.527   4.704  16.159  0.00  0.00    +0.000 A 
ATOM     32  C   UNL     1       7.049   5.002  14.889  0.00  0.00    +0.000 A 
ATOM     33  C   UNL     1       5.711   4.808  14.572  0.00  0.00    +0.000 A 
ATOM     34  C   UNL     1       4.838   4.309  15.539  0.00  0.00    +0.000 A 
BRANCH  32  35
ATOM     35  O   UNL     1       7.865   5.484  13.908  0.00  0.00    +0.000 OA
ATOM     36  H   UNL     1       7.964   6.442  14.034  0.00  0.00    +0.000 HD
ENDBRANCH  32  35
ENDBRANCH  28  29
ENDBRANCH  25  28
ENDBRANCH  21  22
ENDBRANCH   5  21
TORSDOF 8
ENDMDL
MODEL 9
REMARK VINA RESULT:      -7.8      5.403      7.598
REMARK  Name = 
REMARK  8 active torsions:
REMARK  status: ('A' for Active; 'I' for Inactive)
REMARK    1  A    between atoms: C_2  and  C_25
REMARK    2  A    between atoms: N_3  and  C_4
REMARK    3  A    between atoms: C_8  and  C_9
REMARK    4  A    between atoms: C_9  and  N_10
REMARK    5  A    between atoms: N_13  and  C_14
REMARK    6  A    between atoms: C_14  and  C_15
REMARK    7  A    between atoms: C_18  and  O_19
REMARK    8  A    between atoms: C_29  and  C_30
REMARK                            x       y       z     vdW  Elec       q    Type
REMARK                         _______ _______ _______ _____ _____    ______ ____
ROOT
ATOM      1  C   UNL     1       0.696  10.016  18.443  0.00  0.00    +0.000 A 
ATOM      2  C   UNL     1      -0.646  10.037  18.048  0.00  0.00    +0.000 A 
ATOM      3  C   UNL     1      -1.388  11.218  18.093  0.00  0.00    +0.000 A 
ATOM      4  C   UNL     1      -0.778  12.406  18.473  0.00  0.00    +0.000 A 
ATOM      5  C   UNL     1       0.573  12.407  18.846  0.00  0.00    +0.000 A 
ATOM      6  C   UNL     1       1.267  11.189  18.930  0.00  0.00    +0.000 A 
ENDROOT
BRANCH   1   9
ATOM      7  O   UNL     1       1.752   8.145  20.426  0.00  0.00    +0.000 OA
ATOM      8  C   UNL     1       1.902   7.997  19.219  0.00  0.00    +0.000 C 
ATOM      9  N   UNL     1       1.560   8.912  18.247  0.00  0.00    +0.000 N 
ATOM     10  H   UNL     1       1.870   8.749  17.297  0.00  0.00    +0.000 HD
BRANCH   8  11
ATOM     11  C   UNL     1       2.501   6.710  18.778  0.00  0.00    +0.000 A 
ATOM     12  C   UNL     1       3.553   6.607  17.864  0.00  0.00    +0.000 A 
ATOM     13  C   UNL     1       3.956   5.342  17.417  0.00  0.00    +0.000 A 
ATOM     14  C   UNL     1       3.304   4.187  17.870  0.00  0.00    +0.000 A 
ATOM     15  C   UNL     1       2.241   4.284  18.776  0.00  0.00    +0.000 A 
ATOM     16  C   UNL     1       1.858   5.550  19.228  0.00  0.00    +0.000 A 
BRANCH  15  17
ATOM     17  C   UNL     1       1.474   3.081  19.266  0.00  0.00    +0.000 C 
ATOM     18  F   UNL     1       2.261   2.007  19.542  0.00  0.00    +0.000 F 
ATOM     19  F   UNL     1       0.780   3.344  20.408  0.00  0.00    +0.000 F 
ATOM     20  F   UNL     1       0.554   2.650  18.360  0.00  0.00    +0.000 F 
ENDBRANCH  15  17
ENDBRANCH   8  11
ENDBRANCH   1   9
BRANCH   5  21
ATOM     21  C   UNL     1       1.291  13.722  19.051  0.00  0.00    +0.000 C 
BRANCH  21  22
ATOM     22  N   UNL     1       2.713  13.561  19.410  0.00  0.00    +0.000 NA
ATOM     23  C   UNL     1       3.672  14.027  18.378  0.00  0.00    +0.000 C 
ATOM     24  C   UNL     1       4.131  15.511  18.407  0.00  0.00    +0.000 C 
ATOM     25  N   UNL     1       4.338  16.123  19.734  0.00  0.00    +0.000 NA
ATOM     26  C   UNL     1       3.207  15.731  20.603  0.00  0.00    +0.000 C 
ATOM     27  C   UNL     1       2.994  14.204  20.700  0.00  0.00    +0.000 C 
BRANCH  25  28
ATOM     28  C   UNL     1       5.612  15.741  20.370  0.00  0.00    +0.000 C 
BRANCH  28  29
ATOM     29  C   UNL     1       6.844  15.841  19.488  0.00  0.00    +0.000 A 
ATOM     30  C   UNL     1       7.481  14.699  18.979  0.00  0.00    +0.000 A 
ATOM     31  C   UNL     1       8.553  14.822  18.091  0.00  0.00    +0.000 A 
ATOM     32  C   UNL     1       8.987  16.085  17.705  0.00  0.00    +0.000 A 
ATOM     33  C   UNL     1       8.368  17.228  18.192  0.00  0.00    +0.000 A 
ATOM     34  C   UNL     1       7.298  17.106  19.080  0.00  0.00    +0.000 A 
BRANCH  32  35
ATOM     35  O   UNL     1      10.023  16.253  16.833  0.00  0.00    +0.000 OA
ATOM     36  H   UNL     1      10.169  15.415  16.363  0.00  0.00    +0.000 HD
ENDBRANCH  32  35
ENDBRANCH  28  29
ENDBRANCH  25  28
ENDBRANCH  21  22
ENDBRANCH   5  21
TORSDOF 8
ENDMDL
