MODEL 1
REMARK VINA RESULT:      -8.1      0.000      0.000
REMARK  Name = 
REMARK  11 active torsions:
REMARK  status: ('A' for Active; 'I' for Inactive)
REMARK    1  A    between atoms: C_1  and  O_2
REMARK    2  A    between atoms: O_2  and  C_3
REMARK    3  A    between atoms: C_6  and  C_7
REMARK    4  A    between atoms: C_10  and  C_11
REMARK    5  A    between atoms: C_11  and  N_12
REMARK    6  A    between atoms: C_16  and  C_17
REMARK    7  A    between atoms: C_17  and  C_19
REMARK    8  A    between atoms: C_23  and  O_24
REMARK    9  A    between atoms: O_24  and  C_25
REMARK   10  A    between atoms: C_25  and  C_26
REMARK   11  A    between atoms: C_25  and  C_27
REMARK                            x       y       z     vdW  Elec       q    Type
REMARK                         _______ _______ _______ _____ _____    ______ ____
ROOT
ATOM      1  N   UNL     1       4.689   4.946  18.075  0.00  0.00    +0.000 NA
ATOM      2  C   UNL     1       3.984   3.695  17.745  0.00  0.00    +0.000 C 
ATOM      3  C   UNL     1       2.472   3.763  17.955  0.00  0.00    +0.000 C 
ATOM      4  C   UNL     1       2.108   4.303  19.330  0.00  0.00    +0.000 C 
ATOM      5  C   UNL     1       2.834   5.609  19.649  0.00  0.00    +0.000 C 
ATOM      6  C   UNL     1       4.343   5.463  19.403  0.00  0.00    +0.000 C 
ENDROOT
BRANCH   5   7
ATOM      7  C   UNL     1       2.236   6.821  18.916  0.00  0.00    +0.000 C 
ATOM      8  O   UNL     1       2.163   6.881  17.689  0.00  0.00    +0.000 OA
BRANCH   7   9
ATOM      9  C   UNL     1       1.683   7.968  19.709  0.00  0.00    +0.000 A 
ATOM     10  C   UNL     1       1.374   7.771  21.061  0.00  0.00    +0.000 A 
ATOM     11  C   UNL     1       0.883   8.825  21.833  0.00  0.00    +0.000 A 
ATOM     12  C   UNL     1       0.673  10.075  21.250  0.00  0.00    +0.000 A 
ATOM     13  C   UNL     1       0.935  10.272  19.897  0.00  0.00    +0.000 A 
ATOM     14  C   UNL     1       1.472   9.231  19.141  0.00  0.00    +0.000 A 
BRANCH  13  15
ATOM     15  O   UNL     1       0.628  11.513  19.406  0.00  0.00    +0.000 OA
BRANCH  15  16
ATOM     16  C   UNL     1       1.595  12.562  19.578  0.00  0.00    +0.000 C 
ATOM     17  C   UNL     1       2.313  12.883  18.265  0.00  0.00    +0.000 C 
ATOM     18  C   UNL     1       0.831  13.796  20.052  0.00  0.00    +0.000 C 
ENDBRANCH  15  16
ENDBRANCH  13  15
ENDBRANCH   7   9
ENDBRANCH   5   7
BRANCH   1  19
ATOM     19  C   UNL     1       6.150   4.781  17.950  0.00  0.00    +0.000 C 
BRANCH  19  23
ATOM     20  C   UNL     1       8.124   8.490  18.109  0.00  0.00    +0.000 A 
ATOM     21  N   UNL     1       8.537   7.503  18.928  0.00  0.00    +0.000 NA
ATOM     22  C   UNL     1       7.897   6.332  18.839  0.00  0.00    +0.000 A 
ATOM     23  C   UNL     1       6.870   6.092  17.955  0.00  0.00    +0.000 A 
ATOM     24  C   UNL     1       6.555   7.146  17.124  0.00  0.00    +0.000 A 
ATOM     25  N   UNL     1       7.157   8.353  17.178  0.00  0.00    +0.000 NA
BRANCH  20  29
ATOM     26  C   UNL     1       9.731  12.392  18.968  0.00  0.00    +0.000 A 
ATOM     27  C   UNL     1       9.998  11.312  19.801  0.00  0.00    +0.000 A 
ATOM     28  C   UNL     1       9.508  10.045  19.488  0.00  0.00    +0.000 A 
ATOM     29  C   UNL     1       8.709   9.818  18.350  0.00  0.00    +0.000 A 
ATOM     30  C   UNL     1       8.456  10.925  17.517  0.00  0.00    +0.000 A 
ATOM     31  C   UNL     1       8.959  12.200  17.824  0.00  0.00    +0.000 A 
BRANCH  26  33
ATOM     32  C   UNL     1      11.577  13.534  19.884  0.00  0.00    +0.000 C 
ATOM     33  O   UNL     1      10.242  13.583  19.400  0.00  0.00    +0.000 OA
ENDBRANCH  26  33
ENDBRANCH  20  29
ENDBRANCH  19  23
ENDBRANCH   1  19
TORSDOF 8
ENDMDL
MODEL 2
REMARK VINA RESULT:      -8.1      1.279      2.020
REMARK  Name = 
REMARK  11 active torsions:
REMARK  status: ('A' for Active; 'I' for Inactive)
REMARK    1  A    between atoms: C_1  and  O_2
REMARK    2  A    between atoms: O_2  and  C_3
REMARK    3  A    between atoms: C_6  and  C_7
REMARK    4  A    between atoms: C_10  and  C_11
REMARK    5  A    between atoms: C_11  and  N_12
REMARK    6  A    between atoms: C_16  and  C_17
REMARK    7  A    between atoms: C_17  and  C_19
REMARK    8  A    between atoms: C_23  and  O_24
REMARK    9  A    between atoms: O_24  and  C_25
REMARK   10  A    between atoms: C_25  and  C_26
REMARK   11  A    between atoms: C_25  and  C_27
REMARK                            x       y       z     vdW  Elec       q    Type
REMARK                         _______ _______ _______ _____ _____    ______ ____
ROOT
ATOM      1  N   UNL     1       4.997   4.519  18.287  0.00  0.00    +0.000 NA
ATOM      2  C   UNL     1       4.482   3.184  18.637  0.00  0.00    +0.000 C 
ATOM      3  C   UNL     1       3.017   3.182  19.073  0.00  0.00    +0.000 C 
ATOM      4  C   UNL     1       2.736   4.225  20.144  0.00  0.00    +0.000 C 
ATOM      5  C   UNL     1       3.262   5.607  19.758  0.00  0.00    +0.000 C 
ATOM      6  C   UNL     1       4.732   5.523  19.323  0.00  0.00    +0.000 C 
ENDROOT
BRANCH   5   7
ATOM      7  C   UNL     1       2.381   6.312  18.713  0.00  0.00    +0.000 C 
ATOM      8  O   UNL     1       1.941   5.733  17.721  0.00  0.00    +0.000 OA
BRANCH   7   9
ATOM      9  C   UNL     1       2.003   7.750  18.911  0.00  0.00    +0.000 A 
ATOM     10  C   UNL     1       1.990   8.606  17.802  0.00  0.00    +0.000 A 
ATOM     11  C   UNL     1       1.616   9.943  17.949  0.00  0.00    +0.000 A 
ATOM     12  C   UNL     1       1.281  10.437  19.209  0.00  0.00    +0.000 A 
ATOM     13  C   UNL     1       1.333   9.608  20.326  0.00  0.00    +0.000 A 
ATOM     14  C   UNL     1       1.658   8.261  20.168  0.00  0.00    +0.000 A 
BRANCH  13  15
ATOM     15  O   UNL     1       1.056  10.207  21.526  0.00  0.00    +0.000 OA
BRANCH  15  16
ATOM     16  C   UNL     1      -0.257  10.026  22.080  0.00  0.00    +0.000 C 
ATOM     17  C   UNL     1      -0.192   9.482  23.510  0.00  0.00    +0.000 C 
ATOM     18  C   UNL     1      -0.928  11.397  22.090  0.00  0.00    +0.000 C 
ENDBRANCH  15  16
ENDBRANCH  13  15
ENDBRANCH   7   9
ENDBRANCH   5   7
BRANCH   1  19
ATOM     19  C   UNL     1       6.439   4.466  17.976  0.00  0.00    +0.000 C 
BRANCH  19  23
ATOM     20  C   UNL     1       8.144   8.307  18.125  0.00  0.00    +0.000 A 
ATOM     21  N   UNL     1       8.530   7.392  19.036  0.00  0.00    +0.000 NA
ATOM     22  C   UNL     1       7.980   6.177  18.949  0.00  0.00    +0.000 A 
ATOM     23  C   UNL     1       7.069   5.822  17.980  0.00  0.00    +0.000 A 
ATOM     24  C   UNL     1       6.777   6.809  17.063  0.00  0.00    +0.000 A 
ATOM     25  N   UNL     1       7.291   8.057  17.110  0.00  0.00    +0.000 NA
BRANCH  20  29
ATOM     26  C   UNL     1       9.412  12.342  18.930  0.00  0.00    +0.000 A 
ATOM     27  C   UNL     1       9.749  11.305  19.790  0.00  0.00    +0.000 A 
ATOM     28  C   UNL     1       9.369   9.996  19.496  0.00  0.00    +0.000 A 
ATOM     29  C   UNL     1       8.615   9.682  18.348  0.00  0.00    +0.000 A 
ATOM     30  C   UNL     1       8.289  10.748  17.488  0.00  0.00    +0.000 A 
ATOM     31  C   UNL     1       8.680  12.066  17.776  0.00  0.00    +0.000 A 
BRANCH  26  33
ATOM     32  C   UNL     1       8.804  14.575  19.373  0.00  0.00    +0.000 C 
ATOM     33  O   UNL     1       9.816  13.579  19.346  0.00  0.00    +0.000 OA
ENDBRANCH  26  33
ENDBRANCH  20  29
ENDBRANCH  19  23
ENDBRANCH   1  19
TORSDOF 8
ENDMDL
MODEL 3
REMARK VINA RESULT:      -7.9      0.646      1.116
REMARK  Name = 
REMARK  11 active torsions:
REMARK  status: ('A' for Active; 'I' for Inactive)
REMARK    1  A    between atoms: C_1  and  O_2
REMARK    2  A    between atoms: O_2  and  C_3
REMARK    3  A    between atoms: C_6  and  C_7
REMARK    4  A    between atoms: C_10  and  C_11
REMARK    5  A    between atoms: C_11  and  N_12
REMARK    6  A    between atoms: C_16  and  C_17
REMARK    7  A    between atoms: C_17  and  C_19
REMARK    8  A    between atoms: C_23  and  O_24
REMARK    9  A    between atoms: O_24  and  C_25
REMARK   10  A    between atoms: C_25  and  C_26
REMARK   11  A    between atoms: C_25  and  C_27
REMARK                            x       y       z     vdW  Elec       q    Type
REMARK                         _______ _______ _______ _____ _____    ______ ____
ROOT
ATOM      1  N   UNL     1       4.600   5.200  17.946  0.00  0.00    +0.000 NA
ATOM      2  C   UNL     1       3.831   4.003  17.564  0.00  0.00    +0.000 C 
ATOM      3  C   UNL     1       2.328   4.131  17.807  0.00  0.00    +0.000 C 
ATOM      4  C   UNL     1       2.013   4.614  19.215  0.00  0.00    +0.000 C 
ATOM      5  C   UNL     1       2.807   5.866  19.589  0.00  0.00    +0.000 C 
ATOM      6  C   UNL     1       4.302   5.661  19.306  0.00  0.00    +0.000 C 
ENDROOT
BRANCH   5   7
ATOM      7  C   UNL     1       2.255   7.142  18.931  0.00  0.00    +0.000 C 
ATOM      8  O   UNL     1       2.311   7.338  17.718  0.00  0.00    +0.000 OA
BRANCH   7   9
ATOM      9  C   UNL     1       1.587   8.183  19.780  0.00  0.00    +0.000 A 
ATOM     10  C   UNL     1       1.468   7.960  21.158  0.00  0.00    +0.000 A 
ATOM     11  C   UNL     1       0.877   8.921  21.979  0.00  0.00    +0.000 A 
ATOM     12  C   UNL     1       0.375  10.097  21.422  0.00  0.00    +0.000 A 
ATOM     13  C   UNL     1       0.447  10.312  20.048  0.00  0.00    +0.000 A 
ATOM     14  C   UNL     1       1.084   9.372  19.238  0.00  0.00    +0.000 A 
BRANCH  13  15
ATOM     15  O   UNL     1      -0.137  11.463  19.593  0.00  0.00    +0.000 OA
BRANCH  15  16
ATOM     16  C   UNL     1       0.692  12.409  18.898  0.00  0.00    +0.000 C 
ATOM     17  C   UNL     1      -0.106  13.641  18.463  0.00  0.00    +0.000 C 
ATOM     18  C   UNL     1       1.791  12.834  19.868  0.00  0.00    +0.000 C 
ENDBRANCH  15  16
ENDBRANCH  13  15
ENDBRANCH   7   9
ENDBRANCH   5   7
BRANCH   1  19
ATOM     19  C   UNL     1       6.049   4.973  17.783  0.00  0.00    +0.000 C 
BRANCH  19  23
ATOM     20  C   UNL     1       8.205   8.559  18.213  0.00  0.00    +0.000 A 
ATOM     21  N   UNL     1       8.532   7.510  18.992  0.00  0.00    +0.000 NA
ATOM     22  C   UNL     1       7.837   6.381  18.818  0.00  0.00    +0.000 A 
ATOM     23  C   UNL     1       6.835   6.242  17.884  0.00  0.00    +0.000 A 
ATOM     24  C   UNL     1       6.609   7.352  17.099  0.00  0.00    +0.000 A 
ATOM     25  N   UNL     1       7.269   8.521  17.240  0.00  0.00    +0.000 NA
BRANCH  20  29
ATOM     26  C   UNL     1      10.215  12.272  19.055  0.00  0.00    +0.000 A 
ATOM     27  C   UNL     1       9.565  12.073  17.843  0.00  0.00    +0.000 A 
ATOM     28  C   UNL     1       8.881  10.883  17.600  0.00  0.00    +0.000 A 
ATOM     29  C   UNL     1       8.848   9.839  18.545  0.00  0.00    +0.000 A 
ATOM     30  C   UNL     1       9.508  10.064  19.768  0.00  0.00    +0.000 A 
ATOM     31  C   UNL     1      10.188  11.267  20.021  0.00  0.00    +0.000 A 
BRANCH  26  33
ATOM     32  C   UNL     1      10.294  14.544  18.436  0.00  0.00    +0.000 C 
ATOM     33  O   UNL     1      10.872  13.465  19.157  0.00  0.00    +0.000 OA
ENDBRANCH  26  33
ENDBRANCH  20  29
ENDBRANCH  19  23
ENDBRANCH   1  19
TORSDOF 8
ENDMDL
MODEL 4
REMARK VINA RESULT:      -7.9      0.981      1.129
REMARK  Name = 
REMARK  11 active torsions:
REMARK  status: ('A' for Active; 'I' for Inactive)
REMARK    1  A    between atoms: C_1  and  O_2
REMARK    2  A    between atoms: O_2  and  C_3
REMARK    3  A    between atoms: C_6  and  C_7
REMARK    4  A    between atoms: C_10  and  C_11
REMARK    5  A    between atoms: C_11  and  N_12
REMARK    6  A    between atoms: C_16  and  C_17
REMARK    7  A    between atoms: C_17  and  C_19
REMARK    8  A    between atoms: C_23  and  O_24
REMARK    9  A    between atoms: O_24  and  C_25
REMARK   10  A    between atoms: C_25  and  C_26
REMARK   11  A    between atoms: C_25  and  C_27
REMARK                            x       y       z     vdW  Elec       q    Type
REMARK                         _______ _______ _______ _____ _____    ______ ____
ROOT
ATOM      1  N   UNL     1       4.777   4.761  18.119  0.00  0.00    +0.000 NA
ATOM      2  C   UNL     1       4.108   3.456  17.977  0.00  0.00    +0.000 C 
ATOM      3  C   UNL     1       2.613   3.491  18.290  0.00  0.00    +0.000 C 
ATOM      4  C   UNL     1       2.321   4.166  19.622  0.00  0.00    +0.000 C 
ATOM      5  C   UNL     1       3.009   5.526  19.745  0.00  0.00    +0.000 C 
ATOM      6  C   UNL     1       4.502   5.408  19.405  0.00  0.00    +0.000 C 
ENDROOT
BRANCH   5   7
ATOM      7  C   UNL     1       2.308   6.627  18.931  0.00  0.00    +0.000 C 
ATOM      8  O   UNL     1       2.158   6.553  17.713  0.00  0.00    +0.000 OA
BRANCH   7   9
ATOM      9  C   UNL     1       1.748   7.826  19.637  0.00  0.00    +0.000 A 
ATOM     10  C   UNL     1       1.430   7.725  20.998  0.00  0.00    +0.000 A 
ATOM     11  C   UNL     1       0.933   8.831  21.689  0.00  0.00    +0.000 A 
ATOM     12  C   UNL     1       0.726  10.035  21.017  0.00  0.00    +0.000 A 
ATOM     13  C   UNL     1       0.997  10.137  19.655  0.00  0.00    +0.000 A 
ATOM     14  C   UNL     1       1.541   9.045  18.979  0.00  0.00    +0.000 A 
BRANCH  13  15
ATOM     15  O   UNL     1       0.693  11.339  19.075  0.00  0.00    +0.000 OA
BRANCH  15  16
ATOM     16  C   UNL     1      -0.651  11.541  18.611  0.00  0.00    +0.000 C 
ATOM     17  C   UNL     1      -1.318  10.217  18.229  0.00  0.00    +0.000 C 
ATOM     18  C   UNL     1      -1.426  12.185  19.758  0.00  0.00    +0.000 C 
ENDBRANCH  15  16
ENDBRANCH  13  15
ENDBRANCH   7   9
ENDBRANCH   5   7
BRANCH   1  19
ATOM     19  C   UNL     1       6.233   4.636  17.904  0.00  0.00    +0.000 C 
BRANCH  19  23
ATOM     20  C   UNL     1       8.114   8.392  18.092  0.00  0.00    +0.000 A 
ATOM     21  N   UNL     1       8.505   7.430  18.950  0.00  0.00    +0.000 NA
ATOM     22  C   UNL     1       7.897   6.243  18.851  0.00  0.00    +0.000 A 
ATOM     23  C   UNL     1       6.922   5.963  17.920  0.00  0.00    +0.000 A 
ATOM     24  C   UNL     1       6.628   6.994  17.054  0.00  0.00    +0.000 A 
ATOM     25  N   UNL     1       7.199   8.216  17.116  0.00  0.00    +0.000 NA
BRANCH  20  29
ATOM     26  C   UNL     1       9.601  12.338  18.964  0.00  0.00    +0.000 A 
ATOM     27  C   UNL     1       9.929  11.258  19.774  0.00  0.00    +0.000 A 
ATOM     28  C   UNL     1       9.477   9.978  19.456  0.00  0.00    +0.000 A 
ATOM     29  C   UNL     1       8.657   9.738  18.337  0.00  0.00    +0.000 A 
ATOM     30  C   UNL     1       8.341  10.845  17.527  0.00  0.00    +0.000 A 
ATOM     31  C   UNL     1       8.805  12.134  17.838  0.00  0.00    +0.000 A 
BRANCH  26  33
ATOM     32  C   UNL     1      10.026  14.599  18.453  0.00  0.00    +0.000 C 
ATOM     33  O   UNL     1      10.079  13.541  19.400  0.00  0.00    +0.000 OA
ENDBRANCH  26  33
ENDBRANCH  20  29
ENDBRANCH  19  23
ENDBRANCH   1  19
TORSDOF 8
ENDMDL
MODEL 5
REMARK VINA RESULT:      -7.9      1.192      1.564
REMARK  Name = 
REMARK  11 active torsions:
REMARK  status: ('A' for Active; 'I' for Inactive)
REMARK    1  A    between atoms: C_1  and  O_2
REMARK    2  A    between atoms: O_2  and  C_3
REMARK    3  A    between atoms: C_6  and  C_7
REMARK    4  A    between atoms: C_10  and  C_11
REMARK    5  A    between atoms: C_11  and  N_12
REMARK    6  A    between atoms: C_16  and  C_17
REMARK    7  A    between atoms: C_17  and  C_19
REMARK    8  A    between atoms: C_23  and  O_24
REMARK    9  A    between atoms: O_24  and  C_25
REMARK   10  A    between atoms: C_25  and  C_26
REMARK   11  A    between atoms: C_25  and  C_27
REMARK                            x       y       z     vdW  Elec       q    Type
REMARK                         _______ _______ _______ _____ _____    ______ ____
ROOT
ATOM      1  N   UNL     1       4.633   5.429  17.843  0.00  0.00    +0.000 NA
ATOM      2  C   UNL     1       3.824   4.276  17.410  0.00  0.00    +0.000 C 
ATOM      3  C   UNL     1       2.323   4.453  17.637  0.00  0.00    +0.000 C 
ATOM      4  C   UNL     1       2.007   4.900  19.057  0.00  0.00    +0.000 C 
ATOM      5  C   UNL     1       2.843   6.107  19.484  0.00  0.00    +0.000 C 
ATOM      6  C   UNL     1       4.333   5.854  19.213  0.00  0.00    +0.000 C 
ENDROOT
BRANCH   5   7
ATOM      7  C   UNL     1       2.350   7.425  18.864  0.00  0.00    +0.000 C 
ATOM      8  O   UNL     1       2.580   7.732  17.695  0.00  0.00    +0.000 OA
BRANCH   7   9
ATOM      9  C   UNL     1       1.524   8.368  19.688  0.00  0.00    +0.000 A 
ATOM     10  C   UNL     1       1.148   7.986  20.982  0.00  0.00    +0.000 A 
ATOM     11  C   UNL     1       0.404   8.852  21.784  0.00  0.00    +0.000 A 
ATOM     12  C   UNL     1       0.008  10.093  21.286  0.00  0.00    +0.000 A 
ATOM     13  C   UNL     1       0.339  10.468  19.986  0.00  0.00    +0.000 A 
ATOM     14  C   UNL     1       1.125   9.621  19.206  0.00  0.00    +0.000 A 
BRANCH  13  15
ATOM     15  O   UNL     1      -0.157  11.674  19.570  0.00  0.00    +0.000 OA
BRANCH  15  16
ATOM     16  C   UNL     1      -1.357  11.671  18.780  0.00  0.00    +0.000 C 
ATOM     17  C   UNL     1      -1.713  10.261  18.304  0.00  0.00    +0.000 C 
ATOM     18  C   UNL     1      -2.477  12.203  19.672  0.00  0.00    +0.000 C 
ENDBRANCH  15  16
ENDBRANCH  13  15
ENDBRANCH   7   9
ENDBRANCH   5   7
BRANCH   1  19
ATOM     19  C   UNL     1       6.075   5.151  17.691  0.00  0.00    +0.000 C 
BRANCH  19  23
ATOM     20  C   UNL     1       8.358   8.635  18.268  0.00  0.00    +0.000 A 
ATOM     21  N   UNL     1       8.631   7.551  19.020  0.00  0.00    +0.000 NA
ATOM     22  C   UNL     1       7.897   6.456  18.799  0.00  0.00    +0.000 A 
ATOM     23  C   UNL     1       6.907   6.384  17.845  0.00  0.00    +0.000 A 
ATOM     24  C   UNL     1       6.738   7.526  17.091  0.00  0.00    +0.000 A 
ATOM     25  N   UNL     1       7.440   8.664  17.279  0.00  0.00    +0.000 NA
BRANCH  20  29
ATOM     26  C   UNL     1      10.526  12.202  19.328  0.00  0.00    +0.000 A 
ATOM     27  C   UNL     1      10.366  11.834  17.997  0.00  0.00    +0.000 A 
ATOM     28  C   UNL     1       9.625  10.701  17.665  0.00  0.00    +0.000 A 
ATOM     29  C   UNL     1       9.044   9.879  18.651  0.00  0.00    +0.000 A 
ATOM     30  C   UNL     1       9.214  10.272  19.992  0.00  0.00    +0.000 A 
ATOM     31  C   UNL     1       9.950  11.421  20.329  0.00  0.00    +0.000 A 
BRANCH  26  33
ATOM     32  C   UNL     1      11.803  13.917  18.339  0.00  0.00    +0.000 C 
ATOM     33  O   UNL     1      11.297  13.312  19.521  0.00  0.00    +0.000 OA
ENDBRANCH  26  33
ENDBRANCH  20  29
ENDBRANCH  19  23
ENDBRANCH   1  19
TORSDOF 8
ENDMDL
MODEL 6
REMARK VINA RESULT:      -7.4      3.762      8.727
REMARK  Name = 
REMARK  11 active torsions:
REMARK  status: ('A' for Active; 'I' for Inactive)
REMARK    1  A    between atoms: C_1  and  O_2
REMARK    2  A    between atoms: O_2  and  C_3
REMARK    3  A    between atoms: C_6  and  C_7
REMARK    4  A    between atoms: C_10  and  C_11
REMARK    5  A    between atoms: C_11  and  N_12
REMARK    6  A    between atoms: C_16  and  C_17
REMARK    7  A    between atoms: C_17  and  C_19
REMARK    8  A    between atoms: C_23  and  O_24
REMARK    9  A    between atoms: O_24  and  C_25
REMARK   10  A    between atoms: C_25  and  C_26
REMARK   11  A    between atoms: C_25  and  C_27
REMARK                            x       y       z     vdW  Elec       q    Type
REMARK                         _______ _______ _______ _____ _____    ______ ____
ROOT
ATOM      1  N   UNL     1       2.901   5.640  19.387  0.00  0.00    +0.000 NA
ATOM      2  C   UNL     1       1.919   5.082  20.333  0.00  0.00    +0.000 C 
ATOM      3  C   UNL     1       1.429   3.683  19.962  0.00  0.00    +0.000 C 
ATOM      4  C   UNL     1       0.968   3.603  18.514  0.00  0.00    +0.000 C 
ATOM      5  C   UNL     1       2.005   4.170  17.545  0.00  0.00    +0.000 C 
ATOM      6  C   UNL     1       2.454   5.568  17.992  0.00  0.00    +0.000 C 
ENDROOT
BRANCH   5   7
ATOM      7  C   UNL     1       3.192   3.219  17.314  0.00  0.00    +0.000 C 
ATOM      8  O   UNL     1       3.138   2.019  17.581  0.00  0.00    +0.000 OA
BRANCH   7   9
ATOM      9  C   UNL     1       4.458   3.748  16.709  0.00  0.00    +0.000 A 
ATOM     10  C   UNL     1       4.508   3.967  15.326  0.00  0.00    +0.000 A 
ATOM     11  C   UNL     1       5.662   4.484  14.736  0.00  0.00    +0.000 A 
ATOM     12  C   UNL     1       6.782   4.759  15.521  0.00  0.00    +0.000 A 
ATOM     13  C   UNL     1       6.760   4.504  16.891  0.00  0.00    +0.000 A 
ATOM     14  C   UNL     1       5.588   4.035  17.484  0.00  0.00    +0.000 A 
BRANCH  13  15
ATOM     15  O   UNL     1       7.931   4.740  17.559  0.00  0.00    +0.000 OA
BRANCH  15  16
ATOM     16  C   UNL     1       7.961   5.824  18.501  0.00  0.00    +0.000 C 
ATOM     17  C   UNL     1       7.626   7.159  17.832  0.00  0.00    +0.000 C 
ATOM     18  C   UNL     1       6.912   5.515  19.567  0.00  0.00    +0.000 C 
ENDBRANCH  15  16
ENDBRANCH  13  15
ENDBRANCH   7   9
ENDBRANCH   5   7
BRANCH   1  19
ATOM     19  C   UNL     1       3.254   7.027  19.746  0.00  0.00    +0.000 C 
BRANCH  19  23
ATOM     20  C   UNL     1       0.053   9.625  18.919  0.00  0.00    +0.000 A 
ATOM     21  N   UNL     1       0.257   9.235  20.193  0.00  0.00    +0.000 NA
ATOM     22  C   UNL     1       1.293   8.422  20.422  0.00  0.00    +0.000 A 
ATOM     23  C   UNL     1       2.152   7.990  19.437  0.00  0.00    +0.000 A 
ATOM     24  C   UNL     1       1.893   8.484  18.176  0.00  0.00    +0.000 A 
ATOM     25  N   UNL     1       0.854   9.295  17.884  0.00  0.00    +0.000 NA
BRANCH  20  29
ATOM     26  C   UNL     1      -3.663  11.718  18.319  0.00  0.00    +0.000 A 
ATOM     27  C   UNL     1      -2.796  12.083  19.343  0.00  0.00    +0.000 A 
ATOM     28  C   UNL     1      -1.577  11.426  19.499  0.00  0.00    +0.000 A 
ATOM     29  C   UNL     1      -1.194  10.362  18.659  0.00  0.00    +0.000 A 
ATOM     30  C   UNL     1      -2.084  10.012  17.626  0.00  0.00    +0.000 A 
ATOM     31  C   UNL     1      -3.308  10.681  17.458  0.00  0.00    +0.000 A 
BRANCH  26  33
ATOM     32  C   UNL     1      -5.713  12.096  17.222  0.00  0.00    +0.000 C 
ATOM     33  O   UNL     1      -4.836  12.417  18.292  0.00  0.00    +0.000 OA
ENDBRANCH  26  33
ENDBRANCH  20  29
ENDBRANCH  19  23
ENDBRANCH   1  19
TORSDOF 8
ENDMDL
MODEL 7
REMARK VINA RESULT:      -7.3      4.418      8.802
REMARK  Name = 
REMARK  11 active torsions:
REMARK  status: ('A' for Active; 'I' for Inactive)
REMARK    1  A    between atoms: C_1  and  O_2
REMARK    2  A    between atoms: O_2  and  C_3
REMARK    3  A    between atoms: C_6  and  C_7
REMARK    4  A    between atoms: C_10  and  C_11
REMARK    5  A    between atoms: C_11  and  N_12
REMARK    6  A    between atoms: C_16  and  C_17
REMARK    7  A    between atoms: C_17  and  C_19
REMARK    8  A    between atoms: C_23  and  O_24
REMARK    9  A    between atoms: O_24  and  C_25
REMARK   10  A    between atoms: C_25  and  C_26
REMARK   11  A    between atoms: C_25  and  C_27
REMARK                            x       y       z     vdW  Elec       q    Type
REMARK                         _______ _______ _______ _____ _____    ______ ____
ROOT
ATOM      1  N   UNL     1       2.726   6.365  18.863  0.00  0.00    +0.000 NA
ATOM      2  C   UNL     1       2.034   6.201  20.153  0.00  0.00    +0.000 C 
ATOM      3  C   UNL     1       1.900   4.747  20.602  0.00  0.00    +0.000 C 
ATOM      4  C   UNL     1       1.329   3.859  19.506  0.00  0.00    +0.000 C 
ATOM      5  C   UNL     1       2.069   4.029  18.179  0.00  0.00    +0.000 C 
ATOM      6  C   UNL     1       2.172   5.515  17.805  0.00  0.00    +0.000 C 
ENDROOT
BRANCH   5   7
ATOM      7  C   UNL     1       3.436   3.325  18.162  0.00  0.00    +0.000 C 
ATOM      8  O   UNL     1       3.576   2.147  18.488  0.00  0.00    +0.000 OA
BRANCH   7   9
ATOM      9  C   UNL     1       4.650   4.074  17.700  0.00  0.00    +0.000 A 
ATOM     10  C   UNL     1       5.582   4.508  18.653  0.00  0.00    +0.000 A 
ATOM     11  C   UNL     1       6.736   5.184  18.253  0.00  0.00    +0.000 A 
ATOM     12  C   UNL     1       6.950   5.454  16.902  0.00  0.00    +0.000 A 
ATOM     13  C   UNL     1       6.011   5.067  15.949  0.00  0.00    +0.000 A 
ATOM     14  C   UNL     1       4.884   4.348  16.347  0.00  0.00    +0.000 A 
BRANCH  13  15
ATOM     15  O   UNL     1       6.280   5.442  14.661  0.00  0.00    +0.000 OA
BRANCH  15  16
ATOM     16  C   UNL     1       7.001   4.520  13.828  0.00  0.00    +0.000 C 
ATOM     17  C   UNL     1       6.052   3.671  12.979  0.00  0.00    +0.000 C 
ATOM     18  C   UNL     1       7.893   5.353  12.911  0.00  0.00    +0.000 C 
ENDBRANCH  15  16
ENDBRANCH  13  15
ENDBRANCH   7   9
ENDBRANCH   5   7
BRANCH   1  19
ATOM     19  C   UNL     1       2.732   7.780  18.440  0.00  0.00    +0.000 C 
BRANCH  19  23
ATOM     20  C   UNL     1      -0.084  10.188  20.429  0.00  0.00    +0.000 A 
ATOM     21  N   UNL     1      -0.045  10.217  19.083  0.00  0.00    +0.000 NA
ATOM     22  C   UNL     1       0.852   9.427  18.483  0.00  0.00    +0.000 A 
ATOM     23  C   UNL     1       1.705   8.590  19.166  0.00  0.00    +0.000 A 
ATOM     24  C   UNL     1       1.553   8.591  20.536  0.00  0.00    +0.000 A 
ATOM     25  N   UNL     1       0.676   9.377  21.196  0.00  0.00    +0.000 NA
BRANCH  20  29
ATOM     26  C   UNL     1      -2.485  13.269  22.241  0.00  0.00    +0.000 A 
ATOM     27  C   UNL     1      -2.469  13.097  20.863  0.00  0.00    +0.000 A 
ATOM     28  C   UNL     1      -1.721  12.068  20.292  0.00  0.00    +0.000 A 
ATOM     29  C   UNL     1      -0.941  11.195  21.074  0.00  0.00    +0.000 A 
ATOM     30  C   UNL     1      -0.977  11.383  22.469  0.00  0.00    +0.000 A 
ATOM     31  C   UNL     1      -1.738  12.412  23.048  0.00  0.00    +0.000 A 
BRANCH  26  33
ATOM     32  C   UNL     1      -4.632  14.107  22.730  0.00  0.00    +0.000 C 
ATOM     33  O   UNL     1      -3.231  14.329  22.672  0.00  0.00    +0.000 OA
ENDBRANCH  26  33
ENDBRANCH  20  29
ENDBRANCH  19  23
ENDBRANCH   1  19
TORSDOF 8
ENDMDL
MODEL 8
REMARK VINA RESULT:      -7.3      5.128      8.776
REMARK  Name = 
REMARK  11 active torsions:
REMARK  status: ('A' for Active; 'I' for Inactive)
REMARK    1  A    between atoms: C_1  and  O_2
REMARK    2  A    between atoms: O_2  and  C_3
REMARK    3  A    between atoms: C_6  and  C_7
REMARK    4  A    between atoms: C_10  and  C_11
REMARK    5  A    between atoms: C_11  and  N_12
REMARK    6  A    between atoms: C_16  and  C_17
REMARK    7  A    between atoms: C_17  and  C_19
REMARK    8  A    between atoms: C_23  and  O_24
REMARK    9  A    between atoms: O_24  and  C_25
REMARK   10  A    between atoms: C_25  and  C_26
REMARK   11  A    between atoms: C_25  and  C_27
REMARK                            x       y       z     vdW  Elec       q    Type
REMARK                         _______ _______ _______ _____ _____    ______ ____
ROOT
ATOM      1  N   UNL     1      -1.262  12.236  20.436  0.00  0.00    +0.000 NA
ATOM      2  C   UNL     1      -0.716  12.017  21.787  0.00  0.00    +0.000 C 
ATOM      3  C   UNL     1      -1.752  12.155  22.901  0.00  0.00    +0.000 C 
ATOM      4  C   UNL     1      -2.551  13.445  22.786  0.00  0.00    +0.000 C 
ATOM      5  C   UNL     1      -3.123  13.648  21.383  0.00  0.00    +0.000 C 
ATOM      6  C   UNL     1      -2.025  13.483  20.323  0.00  0.00    +0.000 C 
ENDROOT
BRANCH   5   7
ATOM      7  C   UNL     1      -4.347  12.760  21.103  0.00  0.00    +0.000 C 
ATOM      8  O   UNL     1      -4.945  12.158  21.994  0.00  0.00    +0.000 OA
BRANCH   7   9
ATOM      9  C   UNL     1      -4.870  12.639  19.702  0.00  0.00    +0.000 A 
ATOM     10  C   UNL     1      -5.925  13.468  19.298  0.00  0.00    +0.000 A 
ATOM     11  C   UNL     1      -6.415  13.398  17.993  0.00  0.00    +0.000 A 
ATOM     12  C   UNL     1      -5.872  12.481  17.094  0.00  0.00    +0.000 A 
ATOM     13  C   UNL     1      -4.853  11.622  17.496  0.00  0.00    +0.000 A 
ATOM     14  C   UNL     1      -4.331  11.728  18.785  0.00  0.00    +0.000 A 
BRANCH  13  15
ATOM     15  O   UNL     1      -4.438  10.712  16.561  0.00  0.00    +0.000 OA
BRANCH  15  16
ATOM     16  C   UNL     1      -3.097  10.826  16.059  0.00  0.00    +0.000 C 
ATOM     17  C   UNL     1      -2.113  10.004  16.896  0.00  0.00    +0.000 C 
ATOM     18  C   UNL     1      -3.111  10.295  14.628  0.00  0.00    +0.000 C 
ENDBRANCH  15  16
ENDBRANCH  13  15
ENDBRANCH   7   9
ENDBRANCH   5   7
BRANCH   1  19
ATOM     19  C   UNL     1      -0.193  12.190  19.419  0.00  0.00    +0.000 C 
BRANCH  19  23
ATOM     20  C   UNL     1       1.798   8.487  19.332  0.00  0.00    +0.000 A 
ATOM     21  N   UNL     1       1.974   9.340  18.303  0.00  0.00    +0.000 NA
ATOM     22  C   UNL     1       1.338  10.515  18.371  0.00  0.00    +0.000 A 
ATOM     23  C   UNL     1       0.544  10.889  19.432  0.00  0.00    +0.000 A 
ATOM     24  C   UNL     1       0.469   9.972  20.458  0.00  0.00    +0.000 A 
ATOM     25  N   UNL     1       1.077   8.766  20.438  0.00  0.00    +0.000 NA
BRANCH  20  29
ATOM     26  C   UNL     1       3.524   4.560  18.956  0.00  0.00    +0.000 A 
ATOM     27  C   UNL     1       2.738   4.891  20.054  0.00  0.00    +0.000 A 
ATOM     28  C   UNL     1       2.150   6.152  20.142  0.00  0.00    +0.000 A 
ATOM     29  C   UNL     1       2.350   7.135  19.153  0.00  0.00    +0.000 A 
ATOM     30  C   UNL     1       3.144   6.777  18.048  0.00  0.00    +0.000 A 
ATOM     31  C   UNL     1       3.729   5.503  17.950  0.00  0.00    +0.000 A 
BRANCH  26  33
ATOM     32  C   UNL     1       3.713   2.532  20.140  0.00  0.00    +0.000 C 
ATOM     33  O   UNL     1       4.066   3.307  19.004  0.00  0.00    +0.000 OA
ENDBRANCH  26  33
ENDBRANCH  20  29
ENDBRANCH  19  23
ENDBRANCH   1  19
TORSDOF 8
ENDMDL
MODEL 9
REMARK VINA RESULT:      -7.3      3.100      7.571
REMARK  Name = 
REMARK  11 active torsions:
REMARK  status: ('A' for Active; 'I' for Inactive)
REMARK    1  A    between atoms: C_1  and  O_2
REMARK    2  A    between atoms: O_2  and  C_3
REMARK    3  A    between atoms: C_6  and  C_7
REMARK    4  A    between atoms: C_10  and  C_11
REMARK    5  A    between atoms: C_11  and  N_12
REMARK    6  A    between atoms: C_16  and  C_17
REMARK    7  A    between atoms: C_17  and  C_19
REMARK    8  A    between atoms: C_23  and  O_24
REMARK    9  A    between atoms: O_24  and  C_25
REMARK   10  A    between atoms: C_25  and  C_26
REMARK   11  A    between atoms: C_25  and  C_27
REMARK                            x       y       z     vdW  Elec       q    Type
REMARK                         _______ _______ _______ _____ _____    ______ ____
ROOT
ATOM      1  N   UNL     1       2.281   4.859  20.054  0.00  0.00    +0.000 NA
ATOM      2  C   UNL     1       1.064   4.030  20.123  0.00  0.00    +0.000 C 
ATOM      3  C   UNL     1       0.950   3.006  18.995  0.00  0.00    +0.000 C 
ATOM      4  C   UNL     1       1.161   3.635  17.626  0.00  0.00    +0.000 C 
ATOM      5  C   UNL     1       2.436   4.477  17.567  0.00  0.00    +0.000 C 
ATOM      6  C   UNL     1       2.481   5.471  18.736  0.00  0.00    +0.000 C 
ENDROOT
BRANCH   5   7
ATOM      7  C   UNL     1       3.712   3.625  17.472  0.00  0.00    +0.000 C 
ATOM      8  O   UNL     1       3.823   2.536  18.034  0.00  0.00    +0.000 OA
BRANCH   7   9
ATOM      9  C   UNL     1       4.863   4.105  16.639  0.00  0.00    +0.000 A 
ATOM     10  C   UNL     1       5.169   3.428  15.450  0.00  0.00    +0.000 A 
ATOM     11  C   UNL     1       6.217   3.866  14.640  0.00  0.00    +0.000 A 
ATOM     12  C   UNL     1       6.982   4.966  15.025  0.00  0.00    +0.000 A 
ATOM     13  C   UNL     1       6.716   5.622  16.226  0.00  0.00    +0.000 A 
ATOM     14  C   UNL     1       5.637   5.212  17.008  0.00  0.00    +0.000 A 
BRANCH  13  15
ATOM     15  O   UNL     1       7.568   6.643  16.547  0.00  0.00    +0.000 OA
BRANCH  15  16
ATOM     16  C   UNL     1       7.442   7.240  17.848  0.00  0.00    +0.000 C 
ATOM     17  C   UNL     1       8.123   6.391  18.924  0.00  0.00    +0.000 C 
ATOM     18  C   UNL     1       8.120   8.607  17.777  0.00  0.00    +0.000 C 
ENDBRANCH  15  16
ENDBRANCH  13  15
ENDBRANCH   7   9
ENDBRANCH   5   7
BRANCH   1  19
ATOM     19  C   UNL     1       2.279   5.892  21.108  0.00  0.00    +0.000 C 
BRANCH  19  23
ATOM     20  C   UNL     1       0.706   9.572  19.817  0.00  0.00    +0.000 A 
ATOM     21  N   UNL     1       1.676   8.990  19.084  0.00  0.00    +0.000 NA
ATOM     22  C   UNL     1       2.141   7.813  19.515  0.00  0.00    +0.000 A 
ATOM     23  C   UNL     1       1.671   7.176  20.641  0.00  0.00    +0.000 A 
ATOM     24  C   UNL     1       0.644   7.824  21.294  0.00  0.00    +0.000 A 
ATOM     25  N   UNL     1       0.145   9.019  20.913  0.00  0.00    +0.000 NA
BRANCH  20  29
ATOM     26  C   UNL     1      -0.257  13.653  18.838  0.00  0.00    +0.000 A 
ATOM     27  C   UNL     1       1.033  13.166  18.669  0.00  0.00    +0.000 A 
ATOM     28  C   UNL     1       1.322  11.831  18.949  0.00  0.00    +0.000 A 
ATOM     29  C   UNL     1       0.341  10.945  19.435  0.00  0.00    +0.000 A 
ATOM     30  C   UNL     1      -0.961  11.458  19.594  0.00  0.00    +0.000 A 
ATOM     31  C   UNL     1      -1.257  12.800  19.302  0.00  0.00    +0.000 A 
BRANCH  26  33
ATOM     32  C   UNL     1       0.761  15.776  18.745  0.00  0.00    +0.000 C 
ATOM     33  O   UNL     1      -0.402  14.983  18.559  0.00  0.00    +0.000 OA
ENDBRANCH  26  33
ENDBRANCH  20  29
ENDBRANCH  19  23
ENDBRANCH   1  19
TORSDOF 8
ENDMDL
