MODEL 1
REMARK VINA RESULT:      -8.8      0.000      0.000
REMARK  Name = 
REMARK  6 active torsions:
REMARK  status: ('A' for Active; 'I' for Inactive)
REMARK    1  A    between atoms: C_1  and  C_2
REMARK    2  A    between atoms: C_4  and  C_5
REMARK    3  A    between atoms: C_6  and  S_7
REMARK    4  A    between atoms: S_7  and  N_10
REMARK    5  A    between atoms: N_10  and  C_11
REMARK    6  A    between atoms: C_24  and  C_25
REMARK                            x       y       z     vdW  Elec       q    Type
REMARK                         _______ _______ _______ _____ _____    ______ ____
ROOT
ATOM      1  N   UNL     1       3.215   4.789  19.257  0.00  0.00    +0.000 N 
ATOM      2  H   UNL     1       2.784   4.184  18.556  0.00  0.00    +0.000 HD
ENDROOT
BRANCH   1   3
ATOM      3  C   UNL     1       2.817   6.155  19.148  0.00  0.00    +0.000 A 
ATOM      4  C   UNL     1       3.004   6.870  17.965  0.00  0.00    +0.000 A 
ATOM      5  C   UNL     1       2.517   8.176  17.829  0.00  0.00    +0.000 A 
ATOM      6  C   UNL     1       1.839   8.736  18.920  0.00  0.00    +0.000 A 
ATOM      7  N   UNL     1       1.253   9.973  19.063  0.00  0.00    +0.000 N 
ATOM      8  C   UNL     1       0.682  10.105  20.306  0.00  0.00    +0.000 A 
ATOM      9  C   UNL     1      -0.011  11.170  20.878  0.00  0.00    +0.000 A 
ATOM     10  C   UNL     1      -0.467  10.948  22.168  0.00  0.00    +0.000 A 
ATOM     11  N   UNL     1      -0.289   9.805  22.866  0.00  0.00    +0.000 NA
ATOM     12  C   UNL     1       0.391   8.784  22.289  0.00  0.00    +0.000 A 
ATOM     13  C   UNL     1       0.901   8.910  20.990  0.00  0.00    +0.000 A 
ATOM     14  C   UNL     1       1.646   8.052  20.118  0.00  0.00    +0.000 A 
ATOM     15  C   UNL     1       2.155   6.740  20.234  0.00  0.00    +0.000 A 
ATOM     16  H   UNL     1       1.236  10.685  18.347  0.00  0.00    +0.000 HD
ENDBRANCH   1   3
BRANCH   1  17
ATOM     17  S   UNL     1       4.880   4.421  19.266  0.00  0.00    +0.000 S 
ATOM     18  O   UNL     1       4.998   3.147  19.924  0.00  0.00    +0.000 OA
ATOM     19  O   UNL     1       5.544   5.589  19.832  0.00  0.00    +0.000 OA
BRANCH  17  25
ATOM     20  C   UNL     1       6.568   4.142  13.371  0.00  0.00    +0.000 C 
ATOM     21  C   UNL     1       6.167   4.213  14.814  0.00  0.00    +0.000 A 
ATOM     22  C   UNL     1       7.057   4.638  15.799  0.00  0.00    +0.000 A 
ATOM     23  C   UNL     1       6.679   4.697  17.156  0.00  0.00    +0.000 A 
ATOM     24  C   UNL     1       7.734   5.148  18.135  0.00  0.00    +0.000 C 
ATOM     25  C   UNL     1       5.360   4.318  17.531  0.00  0.00    +0.000 A 
ATOM     26  C   UNL     1       4.468   3.828  16.544  0.00  0.00    +0.000 A 
ATOM     27  C   UNL     1       3.070   3.313  16.764  0.00  0.00    +0.000 C 
ATOM     28  C   UNL     1       4.887   3.821  15.197  0.00  0.00    +0.000 A 
ENDBRANCH  17  25
ENDBRANCH   1  17
TORSDOF 3
ENDMDL
MODEL 2
REMARK VINA RESULT:      -8.7      0.269      1.733
REMARK  Name = 
REMARK  6 active torsions:
REMARK  status: ('A' for Active; 'I' for Inactive)
REMARK    1  A    between atoms: C_1  and  C_2
REMARK    2  A    between atoms: C_4  and  C_5
REMARK    3  A    between atoms: C_6  and  S_7
REMARK    4  A    between atoms: S_7  and  N_10
REMARK    5  A    between atoms: N_10  and  C_11
REMARK    6  A    between atoms: C_24  and  C_25
REMARK                            x       y       z     vdW  Elec       q    Type
REMARK                         _______ _______ _______ _____ _____    ______ ____
ROOT
ATOM      1  N   UNL     1       3.236   4.858  19.131  0.00  0.00    +0.000 N 
ATOM      2  H   UNL     1       2.845   4.274  18.389  0.00  0.00    +0.000 HD
ENDROOT
BRANCH   1   3
ATOM      3  C   UNL     1       2.825   6.223  19.052  0.00  0.00    +0.000 A 
ATOM      4  C   UNL     1       2.993   6.961  17.881  0.00  0.00    +0.000 A 
ATOM      5  C   UNL     1       2.494   8.266  17.775  0.00  0.00    +0.000 A 
ATOM      6  C   UNL     1       1.825   8.800  18.884  0.00  0.00    +0.000 A 
ATOM      7  N   UNL     1       1.230  10.028  19.058  0.00  0.00    +0.000 N 
ATOM      8  C   UNL     1       0.673  10.133  20.309  0.00  0.00    +0.000 A 
ATOM      9  C   UNL     1      -0.022  11.182  20.909  0.00  0.00    +0.000 A 
ATOM     10  C   UNL     1      -0.461  10.931  22.200  0.00  0.00    +0.000 A 
ATOM     11  N   UNL     1      -0.266   9.777  22.874  0.00  0.00    +0.000 NA
ATOM     12  C   UNL     1       0.416   8.772  22.270  0.00  0.00    +0.000 A 
ATOM     13  C   UNL     1       0.909   8.927  20.967  0.00  0.00    +0.000 A 
ATOM     14  C   UNL     1       1.651   8.091  20.071  0.00  0.00    +0.000 A 
ATOM     15  C   UNL     1       2.172   6.782  20.157  0.00  0.00    +0.000 A 
ATOM     16  H   UNL     1       1.200  10.754  18.355  0.00  0.00    +0.000 HD
ENDBRANCH   1   3
BRANCH   1  17
ATOM     17  S   UNL     1       4.903   4.509  19.203  0.00  0.00    +0.000 S 
ATOM     18  O   UNL     1       5.005   3.192  19.775  0.00  0.00    +0.000 OA
ATOM     19  O   UNL     1       5.518   5.641  19.885  0.00  0.00    +0.000 OA
BRANCH  17  25
ATOM     20  C   UNL     1       6.811   4.515  13.369  0.00  0.00    +0.000 C 
ATOM     21  C   UNL     1       6.334   4.508  14.790  0.00  0.00    +0.000 A 
ATOM     22  C   UNL     1       5.126   3.916  15.153  0.00  0.00    +0.000 A 
ATOM     23  C   UNL     1       4.677   3.918  16.489  0.00  0.00    +0.000 A 
ATOM     24  C   UNL     1       3.342   3.269  16.758  0.00  0.00    +0.000 C 
ATOM     25  C   UNL     1       5.475   4.534  17.493  0.00  0.00    +0.000 A 
ATOM     26  C   UNL     1       6.676   5.191  17.124  0.00  0.00    +0.000 A 
ATOM     27  C   UNL     1       7.603   5.958  18.030  0.00  0.00    +0.000 C 
ATOM     28  C   UNL     1       7.093   5.130  15.778  0.00  0.00    +0.000 A 
ENDBRANCH  17  25
ENDBRANCH   1  17
TORSDOF 3
ENDMDL
MODEL 3
REMARK VINA RESULT:      -8.1      2.929      7.974
REMARK  Name = 
REMARK  6 active torsions:
REMARK  status: ('A' for Active; 'I' for Inactive)
REMARK    1  A    between atoms: C_1  and  C_2
REMARK    2  A    between atoms: C_4  and  C_5
REMARK    3  A    between atoms: C_6  and  S_7
REMARK    4  A    between atoms: S_7  and  N_10
REMARK    5  A    between atoms: N_10  and  C_11
REMARK    6  A    between atoms: C_24  and  C_25
REMARK                            x       y       z     vdW  Elec       q    Type
REMARK                         _______ _______ _______ _____ _____    ______ ____
ROOT
ATOM      1  N   UNL     1       4.449   3.194  18.676  0.00  0.00    +0.000 N 
ATOM      2  H   UNL     1       4.660   3.346  19.664  0.00  0.00    +0.000 HD
ENDROOT
BRANCH   1   3
ATOM      3  C   UNL     1       5.297   3.932  17.796  0.00  0.00    +0.000 A 
ATOM      4  C   UNL     1       6.219   4.855  18.287  0.00  0.00    +0.000 A 
ATOM      5  C   UNL     1       7.120   5.498  17.428  0.00  0.00    +0.000 A 
ATOM      6  C   UNL     1       7.059   5.183  16.065  0.00  0.00    +0.000 A 
ATOM      7  N   UNL     1       7.815   5.641  15.011  0.00  0.00    +0.000 N 
ATOM      8  C   UNL     1       7.424   5.054  13.832  0.00  0.00    +0.000 A 
ATOM      9  C   UNL     1       7.904   5.216  12.534  0.00  0.00    +0.000 A 
ATOM     10  C   UNL     1       7.272   4.439  11.575  0.00  0.00    +0.000 A 
ATOM     11  N   UNL     1       6.268   3.570  11.819  0.00  0.00    +0.000 NA
ATOM     12  C   UNL     1       5.816   3.433  13.091  0.00  0.00    +0.000 A 
ATOM     13  C   UNL     1       6.382   4.178  14.134  0.00  0.00    +0.000 A 
ATOM     14  C   UNL     1       6.142   4.273  15.543  0.00  0.00    +0.000 A 
ATOM     15  C   UNL     1       5.238   3.645  16.427  0.00  0.00    +0.000 A 
ATOM     16  H   UNL     1       8.564   6.315  15.094  0.00  0.00    +0.000 HD
ENDBRANCH   1   3
BRANCH   1  17
ATOM     17  S   UNL     1       2.760   3.352  18.506  0.00  0.00    +0.000 S 
ATOM     18  O   UNL     1       2.188   2.223  19.192  0.00  0.00    +0.000 OA
ATOM     19  O   UNL     1       2.517   3.528  17.080  0.00  0.00    +0.000 OA
BRANCH  17  25
ATOM     20  C   UNL     1       1.250   8.596  21.318  0.00  0.00    +0.000 C 
ATOM     21  C   UNL     1       1.616   7.309  20.642  0.00  0.00    +0.000 A 
ATOM     22  C   UNL     1       1.417   6.076  21.260  0.00  0.00    +0.000 A 
ATOM     23  C   UNL     1       1.769   4.868  20.625  0.00  0.00    +0.000 A 
ATOM     24  C   UNL     1       1.530   3.597  21.401  0.00  0.00    +0.000 C 
ATOM     25  C   UNL     1       2.336   4.905  19.320  0.00  0.00    +0.000 A 
ATOM     26  C   UNL     1       2.598   6.157  18.709  0.00  0.00    +0.000 A 
ATOM     27  C   UNL     1       3.259   6.392  17.376  0.00  0.00    +0.000 C 
ATOM     28  C   UNL     1       2.196   7.332  19.376  0.00  0.00    +0.000 A 
ENDBRANCH  17  25
ENDBRANCH   1  17
TORSDOF 3
ENDMDL
MODEL 4
REMARK VINA RESULT:      -7.8      3.017      7.929
REMARK  Name = 
REMARK  6 active torsions:
REMARK  status: ('A' for Active; 'I' for Inactive)
REMARK    1  A    between atoms: C_1  and  C_2
REMARK    2  A    between atoms: C_4  and  C_5
REMARK    3  A    between atoms: C_6  and  S_7
REMARK    4  A    between atoms: S_7  and  N_10
REMARK    5  A    between atoms: N_10  and  C_11
REMARK    6  A    between atoms: C_24  and  C_25
REMARK                            x       y       z     vdW  Elec       q    Type
REMARK                         _______ _______ _______ _____ _____    ______ ____
ROOT
ATOM      1  N   UNL     1       4.439   3.023  18.596  0.00  0.00    +0.000 N 
ATOM      2  H   UNL     1       4.652   3.142  19.589  0.00  0.00    +0.000 HD
ENDROOT
BRANCH   1   3
ATOM      3  C   UNL     1       5.274   3.804  17.741  0.00  0.00    +0.000 A 
ATOM      4  C   UNL     1       6.158   4.749  18.260  0.00  0.00    +0.000 A 
ATOM      5  C   UNL     1       7.048   5.436  17.426  0.00  0.00    +0.000 A 
ATOM      6  C   UNL     1       7.018   5.141  16.056  0.00  0.00    +0.000 A 
ATOM      7  N   UNL     1       7.773   5.642  15.021  0.00  0.00    +0.000 N 
ATOM      8  C   UNL     1       7.419   5.062  13.828  0.00  0.00    +0.000 A 
ATOM      9  C   UNL     1       7.912   5.261  12.540  0.00  0.00    +0.000 A 
ATOM     10  C   UNL     1       7.321   4.480  11.559  0.00  0.00    +0.000 A 
ATOM     11  N   UNL     1       6.343   3.574  11.774  0.00  0.00    +0.000 NA
ATOM     12  C   UNL     1       5.877   3.401  13.037  0.00  0.00    +0.000 A 
ATOM     13  C   UNL     1       6.403   4.147  14.100  0.00  0.00    +0.000 A 
ATOM     14  C   UNL     1       6.139   4.210  15.506  0.00  0.00    +0.000 A 
ATOM     15  C   UNL     1       5.245   3.538  16.367  0.00  0.00    +0.000 A 
ATOM     16  H   UNL     1       8.498   6.339  15.127  0.00  0.00    +0.000 HD
ENDBRANCH   1   3
BRANCH   1  17
ATOM     17  S   UNL     1       2.747   3.165  18.438  0.00  0.00    +0.000 S 
ATOM     18  O   UNL     1       2.192   2.006  19.085  0.00  0.00    +0.000 OA
ATOM     19  O   UNL     1       2.497   3.389  17.019  0.00  0.00    +0.000 OA
BRANCH  17  25
ATOM     20  C   UNL     1       1.319   8.373  21.357  0.00  0.00    +0.000 C 
ATOM     21  C   UNL     1       1.671   7.107  20.634  0.00  0.00    +0.000 A 
ATOM     22  C   UNL     1       2.222   7.127  19.354  0.00  0.00    +0.000 A 
ATOM     23  C   UNL     1       2.544   5.935  18.673  0.00  0.00    +0.000 A 
ATOM     24  C   UNL     1       3.112   6.078  17.284  0.00  0.00    +0.000 C 
ATOM     25  C   UNL     1       2.307   4.683  19.307  0.00  0.00    +0.000 A 
ATOM     26  C   UNL     1       1.692   4.653  20.584  0.00  0.00    +0.000 A 
ATOM     27  C   UNL     1       1.297   3.430  21.369  0.00  0.00    +0.000 C 
ATOM     28  C   UNL     1       1.420   5.875  21.232  0.00  0.00    +0.000 A 
ENDBRANCH  17  25
ENDBRANCH   1  17
TORSDOF 3
ENDMDL
MODEL 5
REMARK VINA RESULT:      -7.8      1.387      2.350
REMARK  Name = 
REMARK  6 active torsions:
REMARK  status: ('A' for Active; 'I' for Inactive)
REMARK    1  A    between atoms: C_1  and  C_2
REMARK    2  A    between atoms: C_4  and  C_5
REMARK    3  A    between atoms: C_6  and  S_7
REMARK    4  A    between atoms: S_7  and  N_10
REMARK    5  A    between atoms: N_10  and  C_11
REMARK    6  A    between atoms: C_24  and  C_25
REMARK                            x       y       z     vdW  Elec       q    Type
REMARK                         _______ _______ _______ _____ _____    ______ ____
ROOT
ATOM      1  N   UNL     1       3.243   5.743  20.304  0.00  0.00    +0.000 N 
ATOM      2  H   UNL     1       2.849   5.630  21.240  0.00  0.00    +0.000 HD
ENDROOT
BRANCH   1   3
ATOM      3  C   UNL     1       2.729   6.878  19.608  0.00  0.00    +0.000 A 
ATOM      4  C   UNL     1       2.973   7.064  18.248  0.00  0.00    +0.000 A 
ATOM      5  C   UNL     1       2.379   8.122  17.548  0.00  0.00    +0.000 A 
ATOM      6  C   UNL     1       1.536   8.984  18.262  0.00  0.00    +0.000 A 
ATOM      7  N   UNL     1       0.820  10.080  17.838  0.00  0.00    +0.000 N 
ATOM      8  C   UNL     1       0.107  10.632  18.874  0.00  0.00    +0.000 A 
ATOM      9  C   UNL     1      -0.744  11.735  18.905  0.00  0.00    +0.000 A 
ATOM     10  C   UNL     1      -1.314  12.001  20.141  0.00  0.00    +0.000 A 
ATOM     11  N   UNL     1      -1.104  11.280  21.263  0.00  0.00    +0.000 NA
ATOM     12  C   UNL     1      -0.268  10.212  21.208  0.00  0.00    +0.000 A 
ATOM     13  C   UNL     1       0.365   9.862  20.008  0.00  0.00    +0.000 A 
ATOM     14  C   UNL     1       1.281   8.831  19.623  0.00  0.00    +0.000 A 
ATOM     15  C   UNL     1       1.899   7.762  20.308  0.00  0.00    +0.000 A 
ATOM     16  H   UNL     1       0.813  10.428  16.889  0.00  0.00    +0.000 HD
ENDBRANCH   1   3
BRANCH   1  17
ATOM     17  S   UNL     1       3.162   4.216  19.549  0.00  0.00    +0.000 S 
ATOM     18  O   UNL     1       1.798   4.062  19.119  0.00  0.00    +0.000 OA
ATOM     19  O   UNL     1       3.730   3.270  20.502  0.00  0.00    +0.000 OA
BRANCH  17  25
ATOM     20  C   UNL     1       6.969   4.467  14.740  0.00  0.00    +0.000 C 
ATOM     21  C   UNL     1       6.030   4.402  15.908  0.00  0.00    +0.000 A 
ATOM     22  C   UNL     1       4.724   3.935  15.769  0.00  0.00    +0.000 A 
ATOM     23  C   UNL     1       3.841   3.883  16.867  0.00  0.00    +0.000 A 
ATOM     24  C   UNL     1       2.445   3.383  16.592  0.00  0.00    +0.000 C 
ATOM     25  C   UNL     1       4.292   4.311  18.147  0.00  0.00    +0.000 A 
ATOM     26  C   UNL     1       5.599   4.843  18.284  0.00  0.00    +0.000 A 
ATOM     27  C   UNL     1       6.218   5.412  19.534  0.00  0.00    +0.000 C 
ATOM     28  C   UNL     1       6.451   4.842  17.160  0.00  0.00    +0.000 A 
ENDBRANCH  17  25
ENDBRANCH   1  17
TORSDOF 3
ENDMDL
MODEL 6
REMARK VINA RESULT:      -7.6      1.421      1.663
REMARK  Name = 
REMARK  6 active torsions:
REMARK  status: ('A' for Active; 'I' for Inactive)
REMARK    1  A    between atoms: C_1  and  C_2
REMARK    2  A    between atoms: C_4  and  C_5
REMARK    3  A    between atoms: C_6  and  S_7
REMARK    4  A    between atoms: S_7  and  N_10
REMARK    5  A    between atoms: N_10  and  C_11
REMARK    6  A    between atoms: C_24  and  C_25
REMARK                            x       y       z     vdW  Elec       q    Type
REMARK                         _______ _______ _______ _____ _____    ______ ____
ROOT
ATOM      1  N   UNL     1       3.282   5.968  20.241  0.00  0.00    +0.000 N 
ATOM      2  H   UNL     1       3.041   5.876  21.230  0.00  0.00    +0.000 HD
ENDROOT
BRANCH   1   3
ATOM      3  C   UNL     1       2.675   7.097  19.613  0.00  0.00    +0.000 A 
ATOM      4  C   UNL     1       2.820   7.329  18.246  0.00  0.00    +0.000 A 
ATOM      5  C   UNL     1       2.137   8.378  17.618  0.00  0.00    +0.000 A 
ATOM      6  C   UNL     1       1.309   9.183  18.410  0.00  0.00    +0.000 A 
ATOM      7  N   UNL     1       0.521  10.258  18.066  0.00  0.00    +0.000 N 
ATOM      8  C   UNL     1      -0.144  10.751  19.162  0.00  0.00    +0.000 A 
ATOM      9  C   UNL     1      -1.036  11.814  19.281  0.00  0.00    +0.000 A 
ATOM     10  C   UNL     1      -1.533  12.023  20.559  0.00  0.00    +0.000 A 
ATOM     11  N   UNL     1      -1.218  11.283  21.643  0.00  0.00    +0.000 NA
ATOM     12  C   UNL     1      -0.345  10.255  21.503  0.00  0.00    +0.000 A 
ATOM     13  C   UNL     1       0.221   9.963  20.254  0.00  0.00    +0.000 A 
ATOM     14  C   UNL     1       1.151   8.983  19.780  0.00  0.00    +0.000 A 
ATOM     15  C   UNL     1       1.858   7.926  20.391  0.00  0.00    +0.000 A 
ATOM     16  H   UNL     1       0.436  10.629  17.130  0.00  0.00    +0.000 HD
ENDBRANCH   1   3
BRANCH   1  17
ATOM     17  S   UNL     1       3.067   4.429  19.539  0.00  0.00    +0.000 S 
ATOM     18  O   UNL     1       1.685   4.368  19.141  0.00  0.00    +0.000 OA
ATOM     19  O   UNL     1       3.581   3.471  20.510  0.00  0.00    +0.000 OA
BRANCH  17  25
ATOM     20  C   UNL     1       6.859   4.379  14.712  0.00  0.00    +0.000 C 
ATOM     21  C   UNL     1       5.942   4.395  15.898  0.00  0.00    +0.000 A 
ATOM     22  C   UNL     1       6.358   4.880  17.137  0.00  0.00    +0.000 A 
ATOM     23  C   UNL     1       5.496   4.887  18.252  0.00  0.00    +0.000 A 
ATOM     24  C   UNL     1       6.064   5.412  19.546  0.00  0.00    +0.000 C 
ATOM     25  C   UNL     1       4.169   4.392  18.112  0.00  0.00    +0.000 A 
ATOM     26  C   UNL     1       3.757   3.842  16.872  0.00  0.00    +0.000 A 
ATOM     27  C   UNL     1       2.427   3.207  16.561  0.00  0.00    +0.000 C 
ATOM     28  C   UNL     1       4.649   3.890  15.781  0.00  0.00    +0.000 A 
ENDBRANCH  17  25
ENDBRANCH   1  17
TORSDOF 3
ENDMDL
MODEL 7
REMARK VINA RESULT:      -7.6      3.623      9.001
REMARK  Name = 
REMARK  6 active torsions:
REMARK  status: ('A' for Active; 'I' for Inactive)
REMARK    1  A    between atoms: C_1  and  C_2
REMARK    2  A    between atoms: C_4  and  C_5
REMARK    3  A    between atoms: C_6  and  S_7
REMARK    4  A    between atoms: S_7  and  N_10
REMARK    5  A    between atoms: N_10  and  C_11
REMARK    6  A    between atoms: C_24  and  C_25
REMARK                            x       y       z     vdW  Elec       q    Type
REMARK                         _______ _______ _______ _____ _____    ______ ____
ROOT
ATOM      1  N   UNL     1       1.059   9.363  20.564  0.00  0.00    +0.000 N 
ATOM      2  H   UNL     1       1.705   9.760  21.250  0.00  0.00    +0.000 HD
ENDROOT
BRANCH   1   3
ATOM      3  C   UNL     1       1.667   8.394  19.710  0.00  0.00    +0.000 A 
ATOM      4  C   UNL     1       2.167   8.747  18.458  0.00  0.00    +0.000 A 
ATOM      5  C   UNL     1       2.856   7.816  17.670  0.00  0.00    +0.000 A 
ATOM      6  C   UNL     1       3.021   6.523  18.183  0.00  0.00    +0.000 A 
ATOM      7  N   UNL     1       3.655   5.426  17.645  0.00  0.00    +0.000 N 
ATOM      8  C   UNL     1       3.591   4.353  18.499  0.00  0.00    +0.000 A 
ATOM      9  C   UNL     1       4.090   3.058  18.369  0.00  0.00    +0.000 A 
ATOM     10  C   UNL     1       3.849   2.226  19.452  0.00  0.00    +0.000 A 
ATOM     11  N   UNL     1       3.193   2.587  20.576  0.00  0.00    +0.000 NA
ATOM     12  C   UNL     1       2.713   3.852  20.677  0.00  0.00    +0.000 A 
ATOM     13  C   UNL     1       2.897   4.770  19.634  0.00  0.00    +0.000 A 
ATOM     14  C   UNL     1       2.524   6.137  19.426  0.00  0.00    +0.000 A 
ATOM     15  C   UNL     1       1.825   7.091  20.197  0.00  0.00    +0.000 A 
ATOM     16  H   UNL     1       4.113   5.415  16.744  0.00  0.00    +0.000 HD
ENDBRANCH   1   3
BRANCH   1  17
ATOM     17  S   UNL     1       0.232  10.674  19.854  0.00  0.00    +0.000 S 
ATOM     18  O   UNL     1      -0.460  10.131  18.714  0.00  0.00    +0.000 OA
ATOM     19  O   UNL     1       1.230  11.719  19.662  0.00  0.00    +0.000 OA
BRANCH  17  25
ATOM     20  C   UNL     1      -3.694  12.735  24.099  0.00  0.00    +0.000 C 
ATOM     21  C   UNL     1      -2.741  12.238  23.054  0.00  0.00    +0.000 A 
ATOM     22  C   UNL     1      -2.798  12.693  21.737  0.00  0.00    +0.000 A 
ATOM     23  C   UNL     1      -1.906  12.218  20.755  0.00  0.00    +0.000 A 
ATOM     24  C   UNL     1      -2.079  12.763  19.360  0.00  0.00    +0.000 C 
ATOM     25  C   UNL     1      -0.921  11.255  21.113  0.00  0.00    +0.000 A 
ATOM     26  C   UNL     1      -0.895  10.743  22.434  0.00  0.00    +0.000 A 
ATOM     27  C   UNL     1       0.019   9.673  22.972  0.00  0.00    +0.000 C 
ATOM     28  C   UNL     1      -1.789  11.277  23.385  0.00  0.00    +0.000 A 
ENDBRANCH  17  25
ENDBRANCH   1  17
TORSDOF 3
ENDMDL
MODEL 8
REMARK VINA RESULT:      -7.6      3.111      8.552
REMARK  Name = 
REMARK  6 active torsions:
REMARK  status: ('A' for Active; 'I' for Inactive)
REMARK    1  A    between atoms: C_1  and  C_2
REMARK    2  A    between atoms: C_4  and  C_5
REMARK    3  A    between atoms: C_6  and  S_7
REMARK    4  A    between atoms: S_7  and  N_10
REMARK    5  A    between atoms: N_10  and  C_11
REMARK    6  A    between atoms: C_24  and  C_25
REMARK                            x       y       z     vdW  Elec       q    Type
REMARK                         _______ _______ _______ _____ _____    ______ ____
ROOT
ATOM      1  N   UNL     1       1.464   8.862  19.699  0.00  0.00    +0.000 N 
ATOM      2  H   UNL     1       1.977   9.474  20.336  0.00  0.00    +0.000 HD
ENDROOT
BRANCH   1   3
ATOM      3  C   UNL     1       2.126   7.622  19.451  0.00  0.00    +0.000 A 
ATOM      4  C   UNL     1       1.845   6.487  20.211  0.00  0.00    +0.000 A 
ATOM      5  C   UNL     1       2.419   5.250  19.896  0.00  0.00    +0.000 A 
ATOM      6  C   UNL     1       3.285   5.194  18.795  0.00  0.00    +0.000 A 
ATOM      7  N   UNL     1       3.969   4.129  18.255  0.00  0.00    +0.000 N 
ATOM      8  C   UNL     1       4.701   4.520  17.160  0.00  0.00    +0.000 A 
ATOM      9  C   UNL     1       5.531   3.787  16.314  0.00  0.00    +0.000 A 
ATOM     10  C   UNL     1       6.107   4.514  15.283  0.00  0.00    +0.000 A 
ATOM     11  N   UNL     1       5.912   5.832  15.062  0.00  0.00    +0.000 NA
ATOM     12  C   UNL     1       5.102   6.524  15.901  0.00  0.00    +0.000 A 
ATOM     13  C   UNL     1       4.476   5.884  16.979  0.00  0.00    +0.000 A 
ATOM     14  C   UNL     1       3.594   6.312  18.023  0.00  0.00    +0.000 A 
ATOM     15  C   UNL     1       3.009   7.550  18.367  0.00  0.00    +0.000 A 
ATOM     16  H   UNL     1       3.933   3.184  18.612  0.00  0.00    +0.000 HD
ENDBRANCH   1   3
BRANCH   1  17
ATOM     17  S   UNL     1       0.997   9.820  18.368  0.00  0.00    +0.000 S 
ATOM     18  O   UNL     1       0.621   8.896  17.331  0.00  0.00    +0.000 OA
ATOM     19  O   UNL     1       2.097  10.750  18.141  0.00  0.00    +0.000 OA
BRANCH  17  25
ATOM     20  C   UNL     1      -3.779  13.097  20.400  0.00  0.00    +0.000 C 
ATOM     21  C   UNL     1      -2.605  12.302  19.912  0.00  0.00    +0.000 A 
ATOM     22  C   UNL     1      -1.367  12.361  20.550  0.00  0.00    +0.000 A 
ATOM     23  C   UNL     1      -0.263  11.618  20.084  0.00  0.00    +0.000 A 
ATOM     24  C   UNL     1       1.032  11.781  20.838  0.00  0.00    +0.000 C 
ATOM     25  C   UNL     1      -0.415  10.785  18.940  0.00  0.00    +0.000 A 
ATOM     26  C   UNL     1      -1.653  10.765  18.250  0.00  0.00    +0.000 A 
ATOM     27  C   UNL     1      -1.973  10.010  16.987  0.00  0.00    +0.000 C 
ATOM     28  C   UNL     1      -2.733  11.503  18.779  0.00  0.00    +0.000 A 
ENDBRANCH  17  25
ENDBRANCH   1  17
TORSDOF 3
ENDMDL
MODEL 9
REMARK VINA RESULT:      -7.6      3.115      8.690
REMARK  Name = 
REMARK  6 active torsions:
REMARK  status: ('A' for Active; 'I' for Inactive)
REMARK    1  A    between atoms: C_1  and  C_2
REMARK    2  A    between atoms: C_4  and  C_5
REMARK    3  A    between atoms: C_6  and  S_7
REMARK    4  A    between atoms: S_7  and  N_10
REMARK    5  A    between atoms: N_10  and  C_11
REMARK    6  A    between atoms: C_24  and  C_25
REMARK                            x       y       z     vdW  Elec       q    Type
REMARK                         _______ _______ _______ _____ _____    ______ ____
ROOT
ATOM      1  N   UNL     1       1.460   8.833  19.709  0.00  0.00    +0.000 N 
ATOM      2  H   UNL     1       1.980   9.448  20.338  0.00  0.00    +0.000 HD
ENDROOT
BRANCH   1   3
ATOM      3  C   UNL     1       2.125   7.597  19.449  0.00  0.00    +0.000 A 
ATOM      4  C   UNL     1       1.848   6.454  20.198  0.00  0.00    +0.000 A 
ATOM      5  C   UNL     1       2.425   5.222  19.871  0.00  0.00    +0.000 A 
ATOM      6  C   UNL     1       3.290   5.179  18.769  0.00  0.00    +0.000 A 
ATOM      7  N   UNL     1       3.977   4.121  18.218  0.00  0.00    +0.000 N 
ATOM      8  C   UNL     1       4.707   4.524  17.126  0.00  0.00    +0.000 A 
ATOM      9  C   UNL     1       5.538   3.802  16.273  0.00  0.00    +0.000 A 
ATOM     10  C   UNL     1       6.111   4.540  15.249  0.00  0.00    +0.000 A 
ATOM     11  N   UNL     1       5.912   5.860  15.040  0.00  0.00    +0.000 NA
ATOM     12  C   UNL     1       5.101   6.542  15.886  0.00  0.00    +0.000 A 
ATOM     13  C   UNL     1       4.478   5.890  16.959  0.00  0.00    +0.000 A 
ATOM     14  C   UNL     1       3.595   6.305  18.007  0.00  0.00    +0.000 A 
ATOM     15  C   UNL     1       3.008   7.538  18.364  0.00  0.00    +0.000 A 
ATOM     16  H   UNL     1       3.944   3.173  18.566  0.00  0.00    +0.000 HD
ENDBRANCH   1   3
BRANCH   1  17
ATOM     17  S   UNL     1       0.963   9.788  18.387  0.00  0.00    +0.000 S 
ATOM     18  O   UNL     1       0.568   8.862  17.359  0.00  0.00    +0.000 OA
ATOM     19  O   UNL     1       2.055  10.721  18.136  0.00  0.00    +0.000 OA
BRANCH  17  25
ATOM     20  C   UNL     1      -3.837  13.075  20.343  0.00  0.00    +0.000 C 
ATOM     21  C   UNL     1      -2.672  12.268  19.856  0.00  0.00    +0.000 A 
ATOM     22  C   UNL     1      -2.750  11.498  18.697  0.00  0.00    +0.000 A 
ATOM     23  C   UNL     1      -1.654  10.734  18.246  0.00  0.00    +0.000 A 
ATOM     24  C   UNL     1      -1.864   9.921  16.993  0.00  0.00    +0.000 C 
ATOM     25  C   UNL     1      -0.439  10.750  18.987  0.00  0.00    +0.000 A 
ATOM     26  C   UNL     1      -0.371  11.482  20.199  0.00  0.00    +0.000 A 
ATOM     27  C   UNL     1       0.796  11.553  21.148  0.00  0.00    +0.000 C 
ATOM     28  C   UNL     1      -1.486  12.254  20.586  0.00  0.00    +0.000 A 
ENDBRANCH  17  25
ENDBRANCH   1  17
TORSDOF 3
ENDMDL
