MODEL 1
REMARK VINA RESULT:      -7.7      0.000      0.000
REMARK  Name = 
REMARK  6 active torsions:
REMARK  status: ('A' for Active; 'I' for Inactive)
REMARK    1  A    between atoms: C_2  and  C_3
REMARK    2  A    between atoms: C_3  and  C_4
REMARK    3  A    between atoms: C_4  and  N_5
REMARK    4  A    between atoms: N_8  and  C_9
REMARK    5  A    between atoms: C_9  and  C_10
REMARK    6  A    between atoms: C_14  and  N_15
REMARK                            x       y       z     vdW  Elec       q    Type
REMARK                         _______ _______ _______ _____ _____    ______ ____
ROOT
ATOM      1  N   UNL     1       4.636   4.945  18.661  0.00  0.00    +0.000 NA
ATOM      2  C   UNL     1       4.340   4.860  17.214  0.00  0.00    +0.000 C 
ATOM      3  C   UNL     1       5.164   5.819  16.317  0.00  0.00    +0.000 C 
ATOM      4  N   UNL     1       6.633   5.739  16.502  0.00  0.00    +0.000 NA
ATOM      5  C   UNL     1       6.927   5.809  17.950  0.00  0.00    +0.000 C 
ATOM      6  C   UNL     1       6.100   4.851  18.841  0.00  0.00    +0.000 C 
ENDROOT
BRANCH   1   7
ATOM      7  C   UNL     1       4.062   6.145  19.323  0.00  0.00    +0.000 C 
BRANCH   7   8
ATOM      8  C   UNL     1       2.533   6.100  19.298  0.00  0.00    +0.000 C 
BRANCH   8  10
ATOM      9  O   UNL     1       1.854   4.578  21.056  0.00  0.00    +0.000 OA
ATOM     10  C   UNL     1       1.855   5.732  20.610  0.00  0.00    +0.000 C 
ATOM     11  N   UNL     1       1.294   6.745  21.355  0.00  0.00    +0.000 N 
ATOM     12  C   UNL     1       1.147   8.038  20.930  0.00  0.00    +0.000 A 
ATOM     13  N   UNL     1       1.219   8.491  19.708  0.00  0.00    +0.000 NA
ATOM     14  C   UNL     1       1.089   9.865  19.701  0.00  0.00    +0.000 A 
ATOM     15  C   UNL     1       1.114  10.686  18.555  0.00  0.00    +0.000 A 
ATOM     16  C   UNL     1       1.041  12.074  18.693  0.00  0.00    +0.000 A 
ATOM     17  C   UNL     1       0.944  12.649  19.956  0.00  0.00    +0.000 A 
ATOM     18  C   UNL     1       0.882  11.852  21.108  0.00  0.00    +0.000 A 
ATOM     19  C   UNL     1       0.945  10.456  20.958  0.00  0.00    +0.000 A 
ATOM     20  S   UNL     1       0.858   9.197  22.147  0.00  0.00    +0.000 S 
ATOM     21  H   UNL     1       1.010   6.513  22.295  0.00  0.00    +0.000 HD
ENDBRANCH   8  10
ENDBRANCH   7   8
ENDBRANCH   1   7
BRANCH   4  22
ATOM     22  C   UNL     1       7.158   4.527  15.854  0.00  0.00    +0.000 C 
BRANCH  22  23
ATOM     23  C   UNL     1       7.042   4.514  14.343  0.00  0.00    +0.000 A 
ATOM     24  C   UNL     1       7.882   5.328  13.563  0.00  0.00    +0.000 A 
ATOM     25  C   UNL     1       7.836   5.279  12.168  0.00  0.00    +0.000 A 
ATOM     26  C   UNL     1       6.968   4.394  11.530  0.00  0.00    +0.000 A 
ATOM     27  C   UNL     1       6.132   3.573  12.298  0.00  0.00    +0.000 A 
ATOM     28  C   UNL     1       6.145   3.649  13.699  0.00  0.00    +0.000 A 
BRANCH  27  29
ATOM     29  N   UNL     1       5.280   2.583  11.630  0.00  0.00    +0.000 N 
ATOM     30  O   UNL     1       4.129   2.926  11.322  0.00  0.00    +0.000 OA
ATOM     31  O   UNL     1       5.766   1.468  11.390  0.00  0.00    +0.000 OA
ENDBRANCH  27  29
ENDBRANCH  22  23
ENDBRANCH   4  22
TORSDOF 6
ENDMDL
MODEL 2
REMARK VINA RESULT:      -7.6      4.443      6.497
REMARK  Name = 
REMARK  6 active torsions:
REMARK  status: ('A' for Active; 'I' for Inactive)
REMARK    1  A    between atoms: C_2  and  C_3
REMARK    2  A    between atoms: C_3  and  C_4
REMARK    3  A    between atoms: C_4  and  N_5
REMARK    4  A    between atoms: N_8  and  C_9
REMARK    5  A    between atoms: C_9  and  C_10
REMARK    6  A    between atoms: C_14  and  N_15
REMARK                            x       y       z     vdW  Elec       q    Type
REMARK                         _______ _______ _______ _____ _____    ______ ____
ROOT
ATOM      1  N   UNL     1       1.172  10.016  19.716  0.00  0.00    +0.000 NA
ATOM      2  C   UNL     1       1.688   8.919  20.563  0.00  0.00    +0.000 C 
ATOM      3  C   UNL     1       1.501   7.494  19.981  0.00  0.00    +0.000 C 
ATOM      4  N   UNL     1       2.019   7.309  18.604  0.00  0.00    +0.000 NA
ATOM      5  C   UNL     1       1.515   8.415  17.761  0.00  0.00    +0.000 C 
ATOM      6  C   UNL     1       1.703   9.834  18.348  0.00  0.00    +0.000 C 
ENDROOT
BRANCH   1   7
ATOM      7  C   UNL     1      -0.308  10.145  19.733  0.00  0.00    +0.000 C 
BRANCH   7   8
ATOM      8  C   UNL     1      -0.724  11.551  20.170  0.00  0.00    +0.000 C 
BRANCH   8  10
ATOM      9  O   UNL     1      -0.740  12.619  17.996  0.00  0.00    +0.000 OA
ATOM     10  C   UNL     1      -1.305  12.443  19.082  0.00  0.00    +0.000 C 
ATOM     11  N   UNL     1      -2.544  13.005  19.299  0.00  0.00    +0.000 N 
ATOM     12  C   UNL     1      -3.224  12.964  20.487  0.00  0.00    +0.000 A 
ATOM     13  N   UNL     1      -2.752  12.674  21.669  0.00  0.00    +0.000 NA
ATOM     14  C   UNL     1      -3.770  12.669  22.600  0.00  0.00    +0.000 A 
ATOM     15  C   UNL     1      -3.623  12.400  23.976  0.00  0.00    +0.000 A 
ATOM     16  C   UNL     1      -4.749  12.358  24.800  0.00  0.00    +0.000 A 
ATOM     17  C   UNL     1      -6.016  12.580  24.269  0.00  0.00    +0.000 A 
ATOM     18  C   UNL     1      -6.185  12.883  22.911  0.00  0.00    +0.000 A 
ATOM     19  C   UNL     1      -5.043  12.934  22.092  0.00  0.00    +0.000 A 
ATOM     20  S   UNL     1      -4.891  13.312  20.406  0.00  0.00    +0.000 S 
ATOM     21  H   UNL     1      -2.989  13.442  18.506  0.00  0.00    +0.000 HD
ENDBRANCH   8  10
ENDBRANCH   7   8
ENDBRANCH   1   7
BRANCH   4  22
ATOM     22  C   UNL     1       3.488   7.210  18.628  0.00  0.00    +0.000 C 
BRANCH  22  23
ATOM     23  C   UNL     1       4.052   5.972  17.960  0.00  0.00    +0.000 A 
ATOM     24  C   UNL     1       3.203   4.901  17.629  0.00  0.00    +0.000 A 
ATOM     25  C   UNL     1       3.693   3.781  16.953  0.00  0.00    +0.000 A 
ATOM     26  C   UNL     1       5.033   3.727  16.572  0.00  0.00    +0.000 A 
ATOM     27  C   UNL     1       5.885   4.793  16.892  0.00  0.00    +0.000 A 
ATOM     28  C   UNL     1       5.407   5.901  17.608  0.00  0.00    +0.000 A 
BRANCH  27  29
ATOM     29  N   UNL     1       7.274   4.774  16.420  0.00  0.00    +0.000 N 
ATOM     30  O   UNL     1       7.517   5.300  15.322  0.00  0.00    +0.000 OA
ATOM     31  O   UNL     1       8.129   4.257  17.152  0.00  0.00    +0.000 OA
ENDBRANCH  27  29
ENDBRANCH  22  23
ENDBRANCH   4  22
TORSDOF 6
ENDMDL
MODEL 3
REMARK VINA RESULT:      -7.5      1.810      2.474
REMARK  Name = 
REMARK  6 active torsions:
REMARK  status: ('A' for Active; 'I' for Inactive)
REMARK    1  A    between atoms: C_2  and  C_3
REMARK    2  A    between atoms: C_3  and  C_4
REMARK    3  A    between atoms: C_4  and  N_5
REMARK    4  A    between atoms: N_8  and  C_9
REMARK    5  A    between atoms: C_9  and  C_10
REMARK    6  A    between atoms: C_14  and  N_15
REMARK                            x       y       z     vdW  Elec       q    Type
REMARK                         _______ _______ _______ _____ _____    ______ ____
ROOT
ATOM      1  N   UNL     1       3.879   5.355  18.668  0.00  0.00    +0.000 NA
ATOM      2  C   UNL     1       3.817   5.373  17.190  0.00  0.00    +0.000 C 
ATOM      3  C   UNL     1       4.985   6.116  16.492  0.00  0.00    +0.000 C 
ATOM      4  N   UNL     1       6.340   5.673  16.900  0.00  0.00    +0.000 NA
ATOM      5  C   UNL     1       6.396   5.641  18.378  0.00  0.00    +0.000 C 
ATOM      6  C   UNL     1       5.227   4.900  19.069  0.00  0.00    +0.000 C 
ENDROOT
BRANCH   1   7
ATOM      7  C   UNL     1       3.509   6.646  19.302  0.00  0.00    +0.000 C 
BRANCH   7   8
ATOM      8  C   UNL     1       2.242   7.220  18.664  0.00  0.00    +0.000 C 
BRANCH   8  10
ATOM      9  O   UNL     1       3.047   8.305  16.654  0.00  0.00    +0.000 OA
ATOM     10  C   UNL     1       2.444   8.404  17.729  0.00  0.00    +0.000 C 
ATOM     11  N   UNL     1       1.861   9.604  18.070  0.00  0.00    +0.000 N 
ATOM     12  C   UNL     1       1.254   9.866  19.268  0.00  0.00    +0.000 A 
ATOM     13  N   UNL     1       1.356   9.191  20.381  0.00  0.00    +0.000 NA
ATOM     14  C   UNL     1       0.530   9.733  21.345  0.00  0.00    +0.000 A 
ATOM     15  C   UNL     1       0.390   9.260  22.665  0.00  0.00    +0.000 A 
ATOM     16  C   UNL     1      -0.536   9.859  23.522  0.00  0.00    +0.000 A 
ATOM     17  C   UNL     1      -1.320  10.919  23.078  0.00  0.00    +0.000 A 
ATOM     18  C   UNL     1      -1.174  11.429  21.780  0.00  0.00    +0.000 A 
ATOM     19  C   UNL     1      -0.232  10.827  20.929  0.00  0.00    +0.000 A 
ATOM     20  S   UNL     1       0.224  11.224  19.304  0.00  0.00    +0.000 S 
ATOM     21  H   UNL     1       1.854  10.322  17.361  0.00  0.00    +0.000 HD
ENDBRANCH   8  10
ENDBRANCH   7   8
ENDBRANCH   1   7
BRANCH   4  22
ATOM     22  C   UNL     1       6.659   4.381  16.271  0.00  0.00    +0.000 C 
BRANCH  22  23
ATOM     23  C   UNL     1       6.752   4.417  14.759  0.00  0.00    +0.000 A 
ATOM     24  C   UNL     1       7.743   5.192  14.131  0.00  0.00    +0.000 A 
ATOM     25  C   UNL     1       7.888   5.183  12.742  0.00  0.00    +0.000 A 
ATOM     26  C   UNL     1       7.060   4.379  11.960  0.00  0.00    +0.000 A 
ATOM     27  C   UNL     1       6.074   3.598  12.577  0.00  0.00    +0.000 A 
ATOM     28  C   UNL     1       5.897   3.635  13.968  0.00  0.00    +0.000 A 
BRANCH  27  29
ATOM     29  N   UNL     1       5.259   2.688  11.763  0.00  0.00    +0.000 N 
ATOM     30  O   UNL     1       5.737   1.578  11.486  0.00  0.00    +0.000 OA
ATOM     31  O   UNL     1       4.132   3.071  11.418  0.00  0.00    +0.000 OA
ENDBRANCH  27  29
ENDBRANCH  22  23
ENDBRANCH   4  22
TORSDOF 6
ENDMDL
MODEL 4
REMARK VINA RESULT:      -7.5      2.737      4.396
REMARK  Name = 
REMARK  6 active torsions:
REMARK  status: ('A' for Active; 'I' for Inactive)
REMARK    1  A    between atoms: C_2  and  C_3
REMARK    2  A    between atoms: C_3  and  C_4
REMARK    3  A    between atoms: C_4  and  N_5
REMARK    4  A    between atoms: N_8  and  C_9
REMARK    5  A    between atoms: C_9  and  C_10
REMARK    6  A    between atoms: C_14  and  N_15
REMARK                            x       y       z     vdW  Elec       q    Type
REMARK                         _______ _______ _______ _____ _____    ______ ____
ROOT
ATOM      1  N   UNL     1       2.221   6.637  20.174  0.00  0.00    +0.000 NA
ATOM      2  C   UNL     1       1.867   5.219  20.398  0.00  0.00    +0.000 C 
ATOM      3  C   UNL     1       1.495   4.424  19.120  0.00  0.00    +0.000 C 
ATOM      4  N   UNL     1       2.496   4.492  18.028  0.00  0.00    +0.000 NA
ATOM      5  C   UNL     1       2.861   5.910  17.816  0.00  0.00    +0.000 C 
ATOM      6  C   UNL     1       3.230   6.698  19.095  0.00  0.00    +0.000 C 
ENDROOT
BRANCH   1   7
ATOM      7  C   UNL     1       1.054   7.514  19.904  0.00  0.00    +0.000 C 
BRANCH   7   8
ATOM      8  C   UNL     1       1.489   8.976  19.787  0.00  0.00    +0.000 C 
BRANCH   8  10
ATOM      9  O   UNL     1       1.992   9.249  17.434  0.00  0.00    +0.000 OA
ATOM     10  C   UNL     1       1.330   9.612  18.413  0.00  0.00    +0.000 C 
ATOM     11  N   UNL     1       0.354  10.570  18.253  0.00  0.00    +0.000 N 
ATOM     12  C   UNL     1      -0.375  11.121  19.272  0.00  0.00    +0.000 A 
ATOM     13  N   UNL     1      -0.114  11.090  20.550  0.00  0.00    +0.000 NA
ATOM     14  C   UNL     1      -1.130  11.698  21.259  0.00  0.00    +0.000 A 
ATOM     15  C   UNL     1      -1.177  11.847  22.660  0.00  0.00    +0.000 A 
ATOM     16  C   UNL     1      -2.300  12.422  23.260  0.00  0.00    +0.000 A 
ATOM     17  C   UNL     1      -3.371  12.848  22.480  0.00  0.00    +0.000 A 
ATOM     18  C   UNL     1      -3.332  12.742  21.083  0.00  0.00    +0.000 A 
ATOM     19  C   UNL     1      -2.193  12.172  20.488  0.00  0.00    +0.000 A 
ATOM     20  S   UNL     1      -1.807  11.928  18.815  0.00  0.00    +0.000 S 
ATOM     21  H   UNL     1       0.144  10.849  17.306  0.00  0.00    +0.000 HD
ENDBRANCH   8  10
ENDBRANCH   7   8
ENDBRANCH   1   7
BRANCH   4  22
ATOM     22  C   UNL     1       3.646   3.630  18.345  0.00  0.00    +0.000 C 
BRANCH  22  23
ATOM     23  C   UNL     1       4.976   4.126  17.814  0.00  0.00    +0.000 A 
ATOM     24  C   UNL     1       6.009   4.468  18.705  0.00  0.00    +0.000 A 
ATOM     25  C   UNL     1       7.263   4.861  18.232  0.00  0.00    +0.000 A 
ATOM     26  C   UNL     1       7.513   4.893  16.861  0.00  0.00    +0.000 A 
ATOM     27  C   UNL     1       6.492   4.548  15.965  0.00  0.00    +0.000 A 
ATOM     28  C   UNL     1       5.219   4.193  16.434  0.00  0.00    +0.000 A 
BRANCH  27  29
ATOM     29  N   UNL     1       6.779   4.501  14.527  0.00  0.00    +0.000 N 
ATOM     30  O   UNL     1       7.603   5.311  14.076  0.00  0.00    +0.000 OA
ATOM     31  O   UNL     1       6.200   3.640  13.849  0.00  0.00    +0.000 OA
ENDBRANCH  27  29
ENDBRANCH  22  23
ENDBRANCH   4  22
TORSDOF 6
ENDMDL
MODEL 5
REMARK VINA RESULT:      -7.4      4.427      7.004
REMARK  Name = 
REMARK  6 active torsions:
REMARK  status: ('A' for Active; 'I' for Inactive)
REMARK    1  A    between atoms: C_2  and  C_3
REMARK    2  A    between atoms: C_3  and  C_4
REMARK    3  A    between atoms: C_4  and  N_5
REMARK    4  A    between atoms: N_8  and  C_9
REMARK    5  A    between atoms: C_9  and  C_10
REMARK    6  A    between atoms: C_14  and  N_15
REMARK                            x       y       z     vdW  Elec       q    Type
REMARK                         _______ _______ _______ _____ _____    ______ ____
ROOT
ATOM      1  N   UNL     1       0.176   9.976  19.483  0.00  0.00    +0.000 NA
ATOM      2  C   UNL     1       0.720   9.690  18.137  0.00  0.00    +0.000 C 
ATOM      3  C   UNL     1       2.159   9.112  18.118  0.00  0.00    +0.000 C 
ATOM      4  N   UNL     1       2.363   7.917  18.972  0.00  0.00    +0.000 NA
ATOM      5  C   UNL     1       1.805   8.199  20.313  0.00  0.00    +0.000 C 
ATOM      6  C   UNL     1       0.370   8.777  20.325  0.00  0.00    +0.000 C 
ENDROOT
BRANCH   1   7
ATOM      7  C   UNL     1       0.734  11.201  20.110  0.00  0.00    +0.000 C 
BRANCH   7   8
ATOM      8  C   UNL     1      -0.386  12.164  20.510  0.00  0.00    +0.000 C 
BRANCH   8  10
ATOM      9  O   UNL     1      -0.374  13.245  18.342  0.00  0.00    +0.000 OA
ATOM     10  C   UNL     1      -0.992  12.987  19.382  0.00  0.00    +0.000 C 
ATOM     11  N   UNL     1      -2.305  13.385  19.505  0.00  0.00    +0.000 N 
ATOM     12  C   UNL     1      -3.061  13.246  20.638  0.00  0.00    +0.000 A 
ATOM     13  N   UNL     1      -2.646  13.006  21.852  0.00  0.00    +0.000 NA
ATOM     14  C   UNL     1      -3.723  12.862  22.703  0.00  0.00    +0.000 A 
ATOM     15  C   UNL     1      -3.646  12.599  24.086  0.00  0.00    +0.000 A 
ATOM     16  C   UNL     1      -4.816  12.406  24.823  0.00  0.00    +0.000 A 
ATOM     17  C   UNL     1      -6.057  12.472  24.197  0.00  0.00    +0.000 A 
ATOM     18  C   UNL     1      -6.161  12.766  22.831  0.00  0.00    +0.000 A 
ATOM     19  C   UNL     1      -4.977  12.970  22.100  0.00  0.00    +0.000 A 
ATOM     20  S   UNL     1      -4.748  13.382  20.431  0.00  0.00    +0.000 S 
ATOM     21  H   UNL     1      -2.741  13.772  18.681  0.00  0.00    +0.000 HD
ENDBRANCH   8  10
ENDBRANCH   7   8
ENDBRANCH   1   7
BRANCH   4  22
ATOM     22  C   UNL     1       1.775   6.731  18.328  0.00  0.00    +0.000 C 
BRANCH  22  23
ATOM     23  C   UNL     1       2.719   5.554  18.185  0.00  0.00    +0.000 A 
ATOM     24  C   UNL     1       2.265   4.352  17.613  0.00  0.00    +0.000 A 
ATOM     25  C   UNL     1       3.138   3.280  17.411  0.00  0.00    +0.000 A 
ATOM     26  C   UNL     1       4.484   3.403  17.752  0.00  0.00    +0.000 A 
ATOM     27  C   UNL     1       4.946   4.599  18.317  0.00  0.00    +0.000 A 
ATOM     28  C   UNL     1       4.066   5.663  18.561  0.00  0.00    +0.000 A 
BRANCH  27  29
ATOM     29  N   UNL     1       6.377   4.758  18.599  0.00  0.00    +0.000 N 
ATOM     30  O   UNL     1       7.179   4.471  17.696  0.00  0.00    +0.000 OA
ATOM     31  O   UNL     1       6.704   5.192  19.713  0.00  0.00    +0.000 OA
ENDBRANCH  27  29
ENDBRANCH  22  23
ENDBRANCH   4  22
TORSDOF 6
ENDMDL
MODEL 6
REMARK VINA RESULT:      -7.4      4.224     11.321
REMARK  Name = 
REMARK  6 active torsions:
REMARK  status: ('A' for Active; 'I' for Inactive)
REMARK    1  A    between atoms: C_2  and  C_3
REMARK    2  A    between atoms: C_3  and  C_4
REMARK    3  A    between atoms: C_4  and  N_5
REMARK    4  A    between atoms: N_8  and  C_9
REMARK    5  A    between atoms: C_9  and  C_10
REMARK    6  A    between atoms: C_14  and  N_15
REMARK                            x       y       z     vdW  Elec       q    Type
REMARK                         _______ _______ _______ _____ _____    ______ ____
ROOT
ATOM      1  N   UNL     1       1.561   8.448  20.932  0.00  0.00    +0.000 NA
ATOM      2  C   UNL     1       0.944   9.384  19.967  0.00  0.00    +0.000 C 
ATOM      3  C   UNL     1      -0.494   9.842  20.323  0.00  0.00    +0.000 C 
ATOM      4  N   UNL     1      -0.652  10.401  21.687  0.00  0.00    +0.000 NA
ATOM      5  C   UNL     1      -0.020   9.472  22.650  0.00  0.00    +0.000 C 
ATOM      6  C   UNL     1       1.414   9.017  22.288  0.00  0.00    +0.000 C 
ENDROOT
BRANCH   1   7
ATOM      7  C   UNL     1       1.040   7.061  20.842  0.00  0.00    +0.000 C 
BRANCH   7   8
ATOM      8  C   UNL     1       2.093   6.123  20.248  0.00  0.00    +0.000 C 
BRANCH   8  10
ATOM      9  O   UNL     1       0.777   4.183  20.858  0.00  0.00    +0.000 OA
ATOM     10  C   UNL     1       1.729   4.645  20.217  0.00  0.00    +0.000 C 
ATOM     11  N   UNL     1       2.446   3.819  19.381  0.00  0.00    +0.000 N 
ATOM     12  C   UNL     1       3.574   4.187  18.698  0.00  0.00    +0.000 A 
ATOM     13  N   UNL     1       4.335   5.226  18.912  0.00  0.00    +0.000 NA
ATOM     14  C   UNL     1       5.334   5.288  17.962  0.00  0.00    +0.000 A 
ATOM     15  C   UNL     1       6.337   6.275  17.889  0.00  0.00    +0.000 A 
ATOM     16  C   UNL     1       7.251   6.261  16.833  0.00  0.00    +0.000 A 
ATOM     17  C   UNL     1       7.175   5.277  15.853  0.00  0.00    +0.000 A 
ATOM     18  C   UNL     1       6.208   4.264  15.922  0.00  0.00    +0.000 A 
ATOM     19  C   UNL     1       5.300   4.281  16.995  0.00  0.00    +0.000 A 
ATOM     20  S   UNL     1       4.025   3.177  17.400  0.00  0.00    +0.000 S 
ATOM     21  H   UNL     1       2.081   2.889  19.240  0.00  0.00    +0.000 HD
ENDBRANCH   8  10
ENDBRANCH   7   8
ENDBRANCH   1   7
BRANCH   4  22
ATOM     22  C   UNL     1      -0.101  11.765  21.740  0.00  0.00    +0.000 C 
BRANCH  22  23
ATOM     23  C   UNL     1      -0.936  12.756  22.526  0.00  0.00    +0.000 A 
ATOM     24  C   UNL     1      -0.489  14.079  22.693  0.00  0.00    +0.000 A 
ATOM     25  C   UNL     1      -1.276  15.023  23.355  0.00  0.00    +0.000 A 
ATOM     26  C   UNL     1      -2.535  14.668  23.837  0.00  0.00    +0.000 A 
ATOM     27  C   UNL     1      -2.992  13.354  23.670  0.00  0.00    +0.000 A 
ATOM     28  C   UNL     1      -2.188  12.391  23.042  0.00  0.00    +0.000 A 
BRANCH  27  29
ATOM     29  N   UNL     1      -4.349  13.001  24.101  0.00  0.00    +0.000 N 
ATOM     30  O   UNL     1      -5.252  13.828  23.902  0.00  0.00    +0.000 OA
ATOM     31  O   UNL     1      -4.522  11.888  24.619  0.00  0.00    +0.000 OA
ENDBRANCH  27  29
ENDBRANCH  22  23
ENDBRANCH   4  22
TORSDOF 6
ENDMDL
MODEL 7
REMARK VINA RESULT:      -7.4      5.228      8.729
REMARK  Name = 
REMARK  6 active torsions:
REMARK  status: ('A' for Active; 'I' for Inactive)
REMARK    1  A    between atoms: C_2  and  C_3
REMARK    2  A    between atoms: C_3  and  C_4
REMARK    3  A    between atoms: C_4  and  N_5
REMARK    4  A    between atoms: N_8  and  C_9
REMARK    5  A    between atoms: C_9  and  C_10
REMARK    6  A    between atoms: C_14  and  N_15
REMARK                            x       y       z     vdW  Elec       q    Type
REMARK                         _______ _______ _______ _____ _____    ______ ____
ROOT
ATOM      1  N   UNL     1      -0.141  11.006  22.782  0.00  0.00    +0.000 NA
ATOM      2  C   UNL     1       0.023   9.603  23.221  0.00  0.00    +0.000 C 
ATOM      3  C   UNL     1      -0.400   8.535  22.180  0.00  0.00    +0.000 C 
ATOM      4  N   UNL     1       0.222   8.685  20.842  0.00  0.00    +0.000 NA
ATOM      5  C   UNL     1       0.071  10.092  20.411  0.00  0.00    +0.000 C 
ATOM      6  C   UNL     1       0.493  11.154  21.455  0.00  0.00    +0.000 C 
ENDROOT
BRANCH   1   7
ATOM      7  C   UNL     1      -1.549  11.479  22.790  0.00  0.00    +0.000 C 
BRANCH   7   8
ATOM      8  C   UNL     1      -1.638  12.928  22.309  0.00  0.00    +0.000 C 
BRANCH   8  10
ATOM      9  O   UNL     1      -1.017  14.319  24.193  0.00  0.00    +0.000 OA
ATOM     10  C   UNL     1      -1.889  13.974  23.386  0.00  0.00    +0.000 C 
ATOM     11  N   UNL     1      -3.112  14.607  23.401  0.00  0.00    +0.000 N 
ATOM     12  C   UNL     1      -4.185  14.253  22.629  0.00  0.00    +0.000 A 
ATOM     13  N   UNL     1      -4.371  13.133  21.984  0.00  0.00    +0.000 NA
ATOM     14  C   UNL     1      -5.545  13.190  21.260  0.00  0.00    +0.000 A 
ATOM     15  C   UNL     1      -6.060  12.157  20.450  0.00  0.00    +0.000 A 
ATOM     16  C   UNL     1      -7.227  12.369  19.713  0.00  0.00    +0.000 A 
ATOM     17  C   UNL     1      -7.882  13.595  19.774  0.00  0.00    +0.000 A 
ATOM     18  C   UNL     1      -7.408  14.626  20.598  0.00  0.00    +0.000 A 
ATOM     19  C   UNL     1      -6.239  14.398  21.345  0.00  0.00    +0.000 A 
ATOM     20  S   UNL     1      -5.415  15.424  22.474  0.00  0.00    +0.000 S 
ATOM     21  H   UNL     1      -3.198  15.414  24.001  0.00  0.00    +0.000 HD
ENDBRANCH   8  10
ENDBRANCH   7   8
ENDBRANCH   1   7
BRANCH   4  22
ATOM     22  C   UNL     1       1.621   8.231  20.883  0.00  0.00    +0.000 C 
BRANCH  22  23
ATOM     23  C   UNL     1       1.888   6.931  20.151  0.00  0.00    +0.000 A 
ATOM     24  C   UNL     1       2.401   6.950  18.842  0.00  0.00    +0.000 A 
ATOM     25  C   UNL     1       2.717   5.763  18.178  0.00  0.00    +0.000 A 
ATOM     26  C   UNL     1       2.551   4.538  18.822  0.00  0.00    +0.000 A 
ATOM     27  C   UNL     1       2.046   4.509  20.129  0.00  0.00    +0.000 A 
ATOM     28  C   UNL     1       1.688   5.696  20.785  0.00  0.00    +0.000 A 
BRANCH  27  29
ATOM     29  N   UNL     1       1.950   3.227  20.838  0.00  0.00    +0.000 N 
ATOM     30  O   UNL     1       2.119   3.233  22.067  0.00  0.00    +0.000 OA
ATOM     31  O   UNL     1       1.684   2.216  20.173  0.00  0.00    +0.000 OA
ENDBRANCH  27  29
ENDBRANCH  22  23
ENDBRANCH   4  22
TORSDOF 6
ENDMDL
MODEL 8
REMARK VINA RESULT:      -7.4      4.618      7.348
REMARK  Name = 
REMARK  6 active torsions:
REMARK  status: ('A' for Active; 'I' for Inactive)
REMARK    1  A    between atoms: C_2  and  C_3
REMARK    2  A    between atoms: C_3  and  C_4
REMARK    3  A    between atoms: C_4  and  N_5
REMARK    4  A    between atoms: N_8  and  C_9
REMARK    5  A    between atoms: C_9  and  C_10
REMARK    6  A    between atoms: C_14  and  N_15
REMARK                            x       y       z     vdW  Elec       q    Type
REMARK                         _______ _______ _______ _____ _____    ______ ____
ROOT
ATOM      1  N   UNL     1      -0.275   9.730  20.218  0.00  0.00    +0.000 NA
ATOM      2  C   UNL     1       0.339   9.102  19.027  0.00  0.00    +0.000 C 
ATOM      3  C   UNL     1       1.813   8.657  19.205  0.00  0.00    +0.000 C 
ATOM      4  N   UNL     1       2.066   7.787  20.379  0.00  0.00    +0.000 NA
ATOM      5  C   UNL     1       1.439   8.409  21.566  0.00  0.00    +0.000 C 
ATOM      6  C   UNL     1      -0.032   8.852  21.382  0.00  0.00    +0.000 C 
ENDROOT
BRANCH   1   7
ATOM      7  C   UNL     1       0.173  11.125  20.461  0.00  0.00    +0.000 C 
BRANCH   7   8
ATOM      8  C   UNL     1      -1.016  12.088  20.443  0.00  0.00    +0.000 C 
BRANCH   8  10
ATOM      9  O   UNL     1      -0.892  12.451  18.052  0.00  0.00    +0.000 OA
ATOM     10  C   UNL     1      -1.591  12.413  19.072  0.00  0.00    +0.000 C 
ATOM     11  N   UNL     1      -2.952  12.593  18.967  0.00  0.00    +0.000 N 
ATOM     12  C   UNL     1      -3.814  12.669  20.027  0.00  0.00    +0.000 A 
ATOM     13  N   UNL     1      -3.523  12.882  21.282  0.00  0.00    +0.000 NA
ATOM     14  C   UNL     1      -4.664  12.814  22.054  0.00  0.00    +0.000 A 
ATOM     15  C   UNL     1      -4.722  12.996  23.451  0.00  0.00    +0.000 A 
ATOM     16  C   UNL     1      -5.935  12.831  24.123  0.00  0.00    +0.000 A 
ATOM     17  C   UNL     1      -7.085  12.487  23.421  0.00  0.00    +0.000 A 
ATOM     18  C   UNL     1      -7.060  12.333  22.028  0.00  0.00    +0.000 A 
ATOM     19  C   UNL     1      -5.837  12.513  21.359  0.00  0.00    +0.000 A 
ATOM     20  S   UNL     1      -5.465  12.438  19.666  0.00  0.00    +0.000 S 
ATOM     21  H   UNL     1      -3.334  12.631  18.033  0.00  0.00    +0.000 HD
ENDBRANCH   8  10
ENDBRANCH   7   8
ENDBRANCH   1   7
BRANCH   4  22
ATOM     22  C   UNL     1       1.586   6.422  20.108  0.00  0.00    +0.000 C 
BRANCH  22  23
ATOM     23  C   UNL     1       2.517   5.579  19.260  0.00  0.00    +0.000 A 
ATOM     24  C   UNL     1       2.021   4.891  18.139  0.00  0.00    +0.000 A 
ATOM     25  C   UNL     1       2.877   4.164  17.307  0.00  0.00    +0.000 A 
ATOM     26  C   UNL     1       4.246   4.137  17.568  0.00  0.00    +0.000 A 
ATOM     27  C   UNL     1       4.750   4.825  18.680  0.00  0.00    +0.000 A 
ATOM     28  C   UNL     1       3.890   5.521  19.542  0.00  0.00    +0.000 A 
BRANCH  27  29
ATOM     29  N   UNL     1       6.199   4.866  18.907  0.00  0.00    +0.000 N 
ATOM     30  O   UNL     1       6.934   4.364  18.042  0.00  0.00    +0.000 OA
ATOM     31  O   UNL     1       6.609   5.419  19.938  0.00  0.00    +0.000 OA
ENDBRANCH  27  29
ENDBRANCH  22  23
ENDBRANCH   4  22
TORSDOF 6
ENDMDL
MODEL 9
REMARK VINA RESULT:      -7.4      4.528     11.628
REMARK  Name = 
REMARK  6 active torsions:
REMARK  status: ('A' for Active; 'I' for Inactive)
REMARK    1  A    between atoms: C_2  and  C_3
REMARK    2  A    between atoms: C_3  and  C_4
REMARK    3  A    between atoms: C_4  and  N_5
REMARK    4  A    between atoms: N_8  and  C_9
REMARK    5  A    between atoms: C_9  and  C_10
REMARK    6  A    between atoms: C_14  and  N_15
REMARK                            x       y       z     vdW  Elec       q    Type
REMARK                         _______ _______ _______ _____ _____    ______ ____
ROOT
ATOM      1  N   UNL     1       0.572   8.418  20.582  0.00  0.00    +0.000 NA
ATOM      2  C   UNL     1      -0.400   8.578  21.685  0.00  0.00    +0.000 C 
ATOM      3  C   UNL     1      -0.094   9.738  22.667  0.00  0.00    +0.000 C 
ATOM      4  N   UNL     1       0.113  11.060  22.028  0.00  0.00    +0.000 NA
ATOM      5  C   UNL     1       1.074  10.895  20.914  0.00  0.00    +0.000 C 
ATOM      6  C   UNL     1       0.764   9.735  19.939  0.00  0.00    +0.000 C 
ENDROOT
BRANCH   1   7
ATOM      7  C   UNL     1       1.857   7.800  20.996  0.00  0.00    +0.000 C 
BRANCH   7   8
ATOM      8  C   UNL     1       2.330   6.782  19.956  0.00  0.00    +0.000 C 
BRANCH   8  10
ATOM      9  O   UNL     1       0.930   5.057  20.923  0.00  0.00    +0.000 OA
ATOM     10  C   UNL     1       1.866   5.347  20.168  0.00  0.00    +0.000 C 
ATOM     11  N   UNL     1       2.469   4.356  19.426  0.00  0.00    +0.000 N 
ATOM     12  C   UNL     1       3.571   4.534  18.634  0.00  0.00    +0.000 A 
ATOM     13  N   UNL     1       4.413   5.532  18.646  0.00  0.00    +0.000 NA
ATOM     14  C   UNL     1       5.349   5.378  17.644  0.00  0.00    +0.000 A 
ATOM     15  C   UNL     1       6.408   6.266  17.367  0.00  0.00    +0.000 A 
ATOM     16  C   UNL     1       7.247   6.028  16.276  0.00  0.00    +0.000 A 
ATOM     17  C   UNL     1       7.039   4.921  15.460  0.00  0.00    +0.000 A 
ATOM     18  C   UNL     1       6.014   4.005  15.735  0.00  0.00    +0.000 A 
ATOM     19  C   UNL     1       5.183   4.247  16.842  0.00  0.00    +0.000 A 
ATOM     20  S   UNL     1       3.866   3.314  17.479  0.00  0.00    +0.000 S 
ATOM     21  H   UNL     1       2.035   3.446  19.447  0.00  0.00    +0.000 HD
ENDBRANCH   8  10
ENDBRANCH   7   8
ENDBRANCH   1   7
BRANCH   4  22
ATOM     22  C   UNL     1      -1.179  11.626  21.610  0.00  0.00    +0.000 C 
BRANCH  22  23
ATOM     23  C   UNL     1      -1.824  12.551  22.623  0.00  0.00    +0.000 A 
ATOM     24  C   UNL     1      -1.067  13.568  23.231  0.00  0.00    +0.000 A 
ATOM     25  C   UNL     1      -1.661  14.472  24.115  0.00  0.00    +0.000 A 
ATOM     26  C   UNL     1      -3.026  14.391  24.383  0.00  0.00    +0.000 A 
ATOM     27  C   UNL     1      -3.790  13.385  23.776  0.00  0.00    +0.000 A 
ATOM     28  C   UNL     1      -3.191  12.449  22.921  0.00  0.00    +0.000 A 
BRANCH  27  29
ATOM     29  N   UNL     1      -5.241  13.351  23.992  0.00  0.00    +0.000 N 
ATOM     30  O   UNL     1      -5.856  14.427  23.950  0.00  0.00    +0.000 OA
ATOM     31  O   UNL     1      -5.773  12.247  24.180  0.00  0.00    +0.000 OA
ENDBRANCH  27  29
ENDBRANCH  22  23
ENDBRANCH   4  22
TORSDOF 6
ENDMDL
