MODEL 1
REMARK VINA RESULT:      -8.4      0.000      0.000
REMARK  Name = 
REMARK  4 active torsions:
REMARK  status: ('A' for Active; 'I' for Inactive)
REMARK    1  A    between atoms: C_2  and  C_10
REMARK    2  A    between atoms: N_3  and  C_4
REMARK    3  A    between atoms: C_17  and  C_18
REMARK    4  A    between atoms: C_23  and  C_24
REMARK                            x       y       z     vdW  Elec       q    Type
REMARK                         _______ _______ _______ _____ _____    ______ ____
ROOT
ATOM      1  C   UNL     1       2.084   7.280  19.713  0.00  0.00    +0.000 A 
ATOM      2  C   UNL     1       3.174   7.484  18.885  0.00  0.00    +0.000 A 
ATOM      3  N   UNL     1       3.452   6.254  18.317  0.00  0.00    +0.000 N 
ATOM      4  C   UNL     1       2.901   5.368  19.244  0.00  0.00    +0.000 A 
ATOM      5  C   UNL     1       3.712   4.244  19.591  0.00  0.00    +0.000 A 
ATOM      6  C   UNL     1       5.047   4.326  19.372  0.00  0.00    +0.000 A 
ATOM      7  C   UNL     1       5.615   5.496  18.604  0.00  0.00    +0.000 A 
ATOM      8  C   UNL     1       6.878   5.522  18.050  0.00  0.00    +0.000 A 
ATOM      9  C   UNL     1       6.979   4.643  16.995  0.00  0.00    +0.000 A 
ATOM     10  C   UNL     1       5.966   4.833  16.051  0.00  0.00    +0.000 A 
ATOM     11  N   UNL     1       4.816   5.554  16.384  0.00  0.00    +0.000 NA
ATOM     12  C   UNL     1       4.686   5.942  17.691  0.00  0.00    +0.000 A 
ATOM     13  N   UNL     1       1.856   5.914  19.848  0.00  0.00    +0.000 NA
ENDROOT
BRANCH   1  15
ATOM     14  O   UNL     1       1.262   8.256  21.681  0.00  0.00    +0.000 OA
ATOM     15  C   UNL     1       1.389   8.337  20.464  0.00  0.00    +0.000 C 
ATOM     16  N   UNL     1       0.950   9.380  19.664  0.00  0.00    +0.000 N 
ATOM     17  H   UNL     1       1.127   9.257  18.672  0.00  0.00    +0.000 HD
BRANCH  16  18
ATOM     18  C   UNL     1       0.371  10.598  20.097  0.00  0.00    +0.000 A 
ATOM     19  C   UNL     1       1.078  11.597  20.761  0.00  0.00    +0.000 A 
ATOM     20  C   UNL     1       0.422  12.762  21.129  0.00  0.00    +0.000 A 
ATOM     21  N   UNL     1      -0.892  12.994  20.896  0.00  0.00    +0.000 NA
ATOM     22  C   UNL     1      -1.559  12.017  20.234  0.00  0.00    +0.000 A 
ATOM     23  C   UNL     1      -0.989  10.820  19.837  0.00  0.00    +0.000 A 
ENDBRANCH  16  18
ENDBRANCH   1  15
BRANCH   8  24
ATOM     24  C   UNL     1       7.379   6.971  17.607  0.00  0.00    +0.000 C 
ATOM     25  F   UNL     1       7.922   7.008  16.360  0.00  0.00    +0.000 F 
ATOM     26  F   UNL     1       6.375   7.890  17.609  0.00  0.00    +0.000 F 
ATOM     27  F   UNL     1       8.338   7.470  18.438  0.00  0.00    +0.000 F 
ENDBRANCH   8  24
BRANCH  10  28
ATOM     28  C   UNL     1       6.278   4.373  14.621  0.00  0.00    +0.000 C 
ATOM     29  F   UNL     1       5.266   4.690  13.751  0.00  0.00    +0.000 F 
ATOM     30  F   UNL     1       7.391   4.947  14.092  0.00  0.00    +0.000 F 
ATOM     31  F   UNL     1       6.428   3.028  14.508  0.00  0.00    +0.000 F 
ENDBRANCH  10  28
TORSDOF 4
ENDMDL
MODEL 2
REMARK VINA RESULT:      -8.4      4.865      6.794
REMARK  Name = 
REMARK  4 active torsions:
REMARK  status: ('A' for Active; 'I' for Inactive)
REMARK    1  A    between atoms: C_2  and  C_10
REMARK    2  A    between atoms: N_3  and  C_4
REMARK    3  A    between atoms: C_17  and  C_18
REMARK    4  A    between atoms: C_23  and  C_24
REMARK                            x       y       z     vdW  Elec       q    Type
REMARK                         _______ _______ _______ _____ _____    ______ ____
ROOT
ATOM      1  C   UNL     1       7.640   7.850  17.736  0.00  0.00    +0.000 A 
ATOM      2  C   UNL     1       6.553   7.323  18.411  0.00  0.00    +0.000 A 
ATOM      3  N   UNL     1       6.447   6.010  17.991  0.00  0.00    +0.000 N 
ATOM      4  C   UNL     1       7.085   6.043  16.751  0.00  0.00    +0.000 A 
ATOM      5  C   UNL     1       6.415   5.362  15.687  0.00  0.00    +0.000 A 
ATOM      6  C   UNL     1       5.087   5.128  15.813  0.00  0.00    +0.000 A 
ATOM      7  C   UNL     1       4.392   5.408  17.124  0.00  0.00    +0.000 A 
ATOM      8  C   UNL     1       3.150   4.917  17.465  0.00  0.00    +0.000 A 
ATOM      9  C   UNL     1       3.187   3.553  17.654  0.00  0.00    +0.000 A 
ATOM     10  C   UNL     1       4.188   3.171  18.549  0.00  0.00    +0.000 A 
ATOM     11  N   UNL     1       5.229   4.049  18.864  0.00  0.00    +0.000 NA
ATOM     12  C   UNL     1       5.277   5.225  18.163  0.00  0.00    +0.000 A 
ATOM     13  N   UNL     1       8.037   6.963  16.738  0.00  0.00    +0.000 NA
ENDROOT
BRANCH   1  15
ATOM     14  O   UNL     1       7.813  10.129  17.213  0.00  0.00    +0.000 OA
ATOM     15  C   UNL     1       8.177   9.205  17.933  0.00  0.00    +0.000 C 
ATOM     16  N   UNL     1       9.068   9.294  18.989  0.00  0.00    +0.000 N 
ATOM     17  H   UNL     1       9.263   8.413  19.455  0.00  0.00    +0.000 HD
BRANCH  16  18
ATOM     18  C   UNL     1       9.650  10.474  19.514  0.00  0.00    +0.000 A 
ATOM     19  C   UNL     1      10.632  11.211  18.857  0.00  0.00    +0.000 A 
ATOM     20  C   UNL     1      11.126  12.363  19.449  0.00  0.00    +0.000 A 
ATOM     21  N   UNL     1      10.720  12.824  20.656  0.00  0.00    +0.000 NA
ATOM     22  C   UNL     1       9.752  12.103  21.273  0.00  0.00    +0.000 A 
ATOM     23  C   UNL     1       9.208  10.938  20.762  0.00  0.00    +0.000 A 
ENDBRANCH  16  18
ENDBRANCH   1  15
BRANCH   8  24
ATOM     24  C   UNL     1       2.478   5.626  18.727  0.00  0.00    +0.000 C 
ATOM     25  F   UNL     1       3.365   5.985  19.694  0.00  0.00    +0.000 F 
ATOM     26  F   UNL     1       1.808   6.762  18.388  0.00  0.00    +0.000 F 
ATOM     27  F   UNL     1       1.562   4.830  19.349  0.00  0.00    +0.000 F 
ENDBRANCH   8  24
BRANCH  10  28
ATOM     28  C   UNL     1       3.972   1.839  19.281  0.00  0.00    +0.000 C 
ATOM     29  F   UNL     1       2.791   1.827  19.979  0.00  0.00    +0.000 F 
ATOM     30  F   UNL     1       3.902   0.765  18.450  0.00  0.00    +0.000 F 
ATOM     31  F   UNL     1       4.929   1.571  20.205  0.00  0.00    +0.000 F 
ENDBRANCH  10  28
TORSDOF 4
ENDMDL
MODEL 3
REMARK VINA RESULT:      -8.4      4.865      6.831
REMARK  Name = 
REMARK  4 active torsions:
REMARK  status: ('A' for Active; 'I' for Inactive)
REMARK    1  A    between atoms: C_2  and  C_10
REMARK    2  A    between atoms: N_3  and  C_4
REMARK    3  A    between atoms: C_17  and  C_18
REMARK    4  A    between atoms: C_23  and  C_24
REMARK                            x       y       z     vdW  Elec       q    Type
REMARK                         _______ _______ _______ _____ _____    ______ ____
ROOT
ATOM      1  C   UNL     1       7.633   7.819  17.747  0.00  0.00    +0.000 A 
ATOM      2  C   UNL     1       6.505   7.308  18.364  0.00  0.00    +0.000 A 
ATOM      3  N   UNL     1       6.428   5.983  17.974  0.00  0.00    +0.000 N 
ATOM      4  C   UNL     1       7.146   5.984  16.777  0.00  0.00    +0.000 A 
ATOM      5  C   UNL     1       6.548   5.273  15.692  0.00  0.00    +0.000 A 
ATOM      6  C   UNL     1       5.214   5.038  15.736  0.00  0.00    +0.000 A 
ATOM      7  C   UNL     1       4.435   5.352  16.991  0.00  0.00    +0.000 A 
ATOM      8  C   UNL     1       3.174   4.867  17.265  0.00  0.00    +0.000 A 
ATOM      9  C   UNL     1       3.199   3.509  17.492  0.00  0.00    +0.000 A 
ATOM     10  C   UNL     1       4.141   3.154  18.461  0.00  0.00    +0.000 A 
ATOM     11  N   UNL     1       5.158   4.043  18.818  0.00  0.00    +0.000 NA
ATOM     12  C   UNL     1       5.250   5.200  18.090  0.00  0.00    +0.000 A 
ATOM     13  N   UNL     1       8.095   6.907  16.802  0.00  0.00    +0.000 NA
ENDROOT
BRANCH   1  15
ATOM     14  O   UNL     1       7.779  10.100  17.220  0.00  0.00    +0.000 OA
ATOM     15  C   UNL     1       8.154   9.181  17.941  0.00  0.00    +0.000 C 
ATOM     16  N   UNL     1       9.045   9.281  18.996  0.00  0.00    +0.000 N 
ATOM     17  H   UNL     1       9.252   8.403  19.463  0.00  0.00    +0.000 HD
BRANCH  16  18
ATOM     18  C   UNL     1       9.614  10.469  19.519  0.00  0.00    +0.000 A 
ATOM     19  C   UNL     1       9.275  11.009  20.757  0.00  0.00    +0.000 A 
ATOM     20  C   UNL     1       9.903  12.169  21.186  0.00  0.00    +0.000 A 
ATOM     21  N   UNL     1      10.832  12.836  20.461  0.00  0.00    +0.000 NA
ATOM     22  C   UNL     1      11.161  12.286  19.267  0.00  0.00    +0.000 A 
ATOM     23  C   UNL     1      10.581  11.138  18.755  0.00  0.00    +0.000 A 
ENDBRANCH  16  18
ENDBRANCH   1  15
BRANCH   8  24
ATOM     24  C   UNL     1       2.420   5.608  18.460  0.00  0.00    +0.000 C 
ATOM     25  F   UNL     1       3.251   6.074  19.431  0.00  0.00    +0.000 F 
ATOM     26  F   UNL     1       1.699   6.681  18.033  0.00  0.00    +0.000 F 
ATOM     27  F   UNL     1       1.530   4.797  19.101  0.00  0.00    +0.000 F 
ENDBRANCH   8  24
BRANCH  10  28
ATOM     28  C   UNL     1       3.879   1.842  19.213  0.00  0.00    +0.000 C 
ATOM     29  F   UNL     1       4.853   1.583  20.142  0.00  0.00    +0.000 F 
ATOM     30  F   UNL     1       2.713   1.837  19.914  0.00  0.00    +0.000 F 
ATOM     31  F   UNL     1       3.865   0.751  18.405  0.00  0.00    +0.000 F 
ENDBRANCH  10  28
TORSDOF 4
ENDMDL
MODEL 4
REMARK VINA RESULT:      -8.4      0.069      1.098
REMARK  Name = 
REMARK  4 active torsions:
REMARK  status: ('A' for Active; 'I' for Inactive)
REMARK    1  A    between atoms: C_2  and  C_10
REMARK    2  A    between atoms: N_3  and  C_4
REMARK    3  A    between atoms: C_17  and  C_18
REMARK    4  A    between atoms: C_23  and  C_24
REMARK                            x       y       z     vdW  Elec       q    Type
REMARK                         _______ _______ _______ _____ _____    ______ ____
ROOT
ATOM      1  C   UNL     1       2.084   7.296  19.704  0.00  0.00    +0.000 A 
ATOM      2  C   UNL     1       3.173   7.501  18.876  0.00  0.00    +0.000 A 
ATOM      3  N   UNL     1       3.460   6.269  18.317  0.00  0.00    +0.000 N 
ATOM      4  C   UNL     1       2.914   5.386  19.249  0.00  0.00    +0.000 A 
ATOM      5  C   UNL     1       3.733   4.270  19.605  0.00  0.00    +0.000 A 
ATOM      6  C   UNL     1       5.068   4.359  19.386  0.00  0.00    +0.000 A 
ATOM      7  C   UNL     1       5.628   5.527  18.611  0.00  0.00    +0.000 A 
ATOM      8  C   UNL     1       6.891   5.559  18.058  0.00  0.00    +0.000 A 
ATOM      9  C   UNL     1       6.999   4.673  17.009  0.00  0.00    +0.000 A 
ATOM     10  C   UNL     1       5.986   4.849  16.063  0.00  0.00    +0.000 A 
ATOM     11  N   UNL     1       4.831   5.565  16.389  0.00  0.00    +0.000 NA
ATOM     12  C   UNL     1       4.697   5.961  17.694  0.00  0.00    +0.000 A 
ATOM     13  N   UNL     1       1.865   5.929  19.849  0.00  0.00    +0.000 NA
ENDROOT
BRANCH   1  15
ATOM     14  O   UNL     1       1.266   8.287  21.666  0.00  0.00    +0.000 OA
ATOM     15  C   UNL     1       1.381   8.354  20.447  0.00  0.00    +0.000 C 
ATOM     16  N   UNL     1       0.923   9.380  19.638  0.00  0.00    +0.000 N 
ATOM     17  H   UNL     1       1.093   9.247  18.646  0.00  0.00    +0.000 HD
BRANCH  16  18
ATOM     18  C   UNL     1       0.331  10.596  20.060  0.00  0.00    +0.000 A 
ATOM     19  C   UNL     1      -1.022  10.888  19.916  0.00  0.00    +0.000 A 
ATOM     20  C   UNL     1      -1.507  12.103  20.378  0.00  0.00    +0.000 A 
ATOM     21  N   UNL     1      -0.735  13.051  20.959  0.00  0.00    +0.000 NA
ATOM     22  C   UNL     1       0.576  12.741  21.106  0.00  0.00    +0.000 A 
ATOM     23  C   UNL     1       1.148  11.560  20.668  0.00  0.00    +0.000 A 
ENDBRANCH  16  18
ENDBRANCH   1  15
BRANCH   8  24
ATOM     24  C   UNL     1       7.383   7.007  17.604  0.00  0.00    +0.000 C 
ATOM     25  F   UNL     1       6.394   7.940  17.572  0.00  0.00    +0.000 F 
ATOM     26  F   UNL     1       8.348   7.508  18.424  0.00  0.00    +0.000 F 
ATOM     27  F   UNL     1       7.926   7.008  16.354  0.00  0.00    +0.000 F 
ENDBRANCH   8  24
BRANCH  10  28
ATOM     28  C   UNL     1       6.302   4.381  14.636  0.00  0.00    +0.000 C 
ATOM     29  F   UNL     1       5.293   4.695  13.761  0.00  0.00    +0.000 F 
ATOM     30  F   UNL     1       7.418   4.952  14.108  0.00  0.00    +0.000 F 
ATOM     31  F   UNL     1       6.451   3.036  14.531  0.00  0.00    +0.000 F 
ENDBRANCH  10  28
TORSDOF 4
ENDMDL
MODEL 5
REMARK VINA RESULT:      -7.9      1.342      1.528
REMARK  Name = 
REMARK  4 active torsions:
REMARK  status: ('A' for Active; 'I' for Inactive)
REMARK    1  A    between atoms: C_2  and  C_10
REMARK    2  A    between atoms: N_3  and  C_4
REMARK    3  A    between atoms: C_17  and  C_18
REMARK    4  A    between atoms: C_23  and  C_24
REMARK                            x       y       z     vdW  Elec       q    Type
REMARK                         _______ _______ _______ _____ _____    ______ ____
ROOT
ATOM      1  C   UNL     1       1.911   8.182  18.784  0.00  0.00    +0.000 A 
ATOM      2  C   UNL     1       3.126   8.193  18.122  0.00  0.00    +0.000 A 
ATOM      3  N   UNL     1       3.365   6.883  17.748  0.00  0.00    +0.000 N 
ATOM      4  C   UNL     1       2.599   6.168  18.669  0.00  0.00    +0.000 A 
ATOM      5  C   UNL     1       3.237   5.037  19.265  0.00  0.00    +0.000 A 
ATOM      6  C   UNL     1       4.591   4.985  19.253  0.00  0.00    +0.000 A 
ATOM      7  C   UNL     1       5.378   6.000  18.458  0.00  0.00    +0.000 A 
ATOM      8  C   UNL     1       6.705   5.857  18.113  0.00  0.00    +0.000 A 
ATOM      9  C   UNL     1       6.875   4.846  17.193  0.00  0.00    +0.000 A 
ATOM     10  C   UNL     1       6.037   4.994  16.085  0.00  0.00    +0.000 A 
ATOM     11  N   UNL     1       4.926   5.840  16.147  0.00  0.00    +0.000 NA
ATOM     12  C   UNL     1       4.642   6.399  17.365  0.00  0.00    +0.000 A 
ATOM     13  N   UNL     1       1.534   6.866  19.035  0.00  0.00    +0.000 NA
ENDROOT
BRANCH   1  15
ATOM     14  O   UNL     1       0.794  10.227  18.515  0.00  0.00    +0.000 OA
ATOM     15  C   UNL     1       1.219   9.377  19.291  0.00  0.00    +0.000 C 
ATOM     16  N   UNL     1       1.097   9.396  20.670  0.00  0.00    +0.000 N 
ATOM     17  H   UNL     1       1.534   8.614  21.146  0.00  0.00    +0.000 HD
BRANCH  16  18
ATOM     18  C   UNL     1       0.372  10.334  21.447  0.00  0.00    +0.000 A 
ATOM     19  C   UNL     1       0.412  11.709  21.235  0.00  0.00    +0.000 A 
ATOM     20  C   UNL     1      -0.349  12.542  22.041  0.00  0.00    +0.000 A 
ATOM     21  N   UNL     1      -1.135  12.102  23.052  0.00  0.00    +0.000 NA
ATOM     22  C   UNL     1      -1.174  10.759  23.232  0.00  0.00    +0.000 A 
ATOM     23  C   UNL     1      -0.442   9.854  22.483  0.00  0.00    +0.000 A 
ENDBRANCH  16  18
ENDBRANCH   1  15
BRANCH   8  24
ATOM     24  C   UNL     1       7.405   7.194  17.593  0.00  0.00    +0.000 C 
ATOM     25  F   UNL     1       6.557   8.251  17.479  0.00  0.00    +0.000 F 
ATOM     26  F   UNL     1       8.411   7.604  18.413  0.00  0.00    +0.000 F 
ATOM     27  F   UNL     1       7.971   7.044  16.362  0.00  0.00    +0.000 F 
ENDBRANCH   8  24
BRANCH  10  28
ATOM     28  C   UNL     1       6.510   4.334  14.783  0.00  0.00    +0.000 C 
ATOM     29  F   UNL     1       5.722   4.684  13.717  0.00  0.00    +0.000 F 
ATOM     30  F   UNL     1       7.773   4.686  14.419  0.00  0.00    +0.000 F 
ATOM     31  F   UNL     1       6.468   2.977  14.821  0.00  0.00    +0.000 F 
ENDBRANCH  10  28
TORSDOF 4
ENDMDL
MODEL 6
REMARK VINA RESULT:      -7.8      3.166      4.650
REMARK  Name = 
REMARK  4 active torsions:
REMARK  status: ('A' for Active; 'I' for Inactive)
REMARK    1  A    between atoms: C_2  and  C_10
REMARK    2  A    between atoms: N_3  and  C_4
REMARK    3  A    between atoms: C_17  and  C_18
REMARK    4  A    between atoms: C_23  and  C_24
REMARK                            x       y       z     vdW  Elec       q    Type
REMARK                         _______ _______ _______ _____ _____    ______ ____
ROOT
ATOM      1  C   UNL     1       0.729   9.253  21.094  0.00  0.00    +0.000 A 
ATOM      2  C   UNL     1       1.064   7.911  21.111  0.00  0.00    +0.000 A 
ATOM      3  N   UNL     1       2.063   7.759  20.166  0.00  0.00    +0.000 N 
ATOM      4  C   UNL     1       1.838   8.846  19.320  0.00  0.00    +0.000 A 
ATOM      5  C   UNL     1       1.884   8.564  17.920  0.00  0.00    +0.000 A 
ATOM      6  C   UNL     1       1.704   7.283  17.517  0.00  0.00    +0.000 A 
ATOM      7  C   UNL     1       1.655   6.172  18.538  0.00  0.00    +0.000 A 
ATOM      8  C   UNL     1       1.801   4.834  18.238  0.00  0.00    +0.000 A 
ATOM      9  C   UNL     1       3.087   4.551  17.834  0.00  0.00    +0.000 A 
ATOM     10  C   UNL     1       4.040   5.012  18.746  0.00  0.00    +0.000 A 
ATOM     11  N   UNL     1       3.696   5.967  19.706  0.00  0.00    +0.000 NA
ATOM     12  C   UNL     1       2.439   6.505  19.620  0.00  0.00    +0.000 A 
ATOM     13  N   UNL     1       1.322   9.863  19.992  0.00  0.00    +0.000 NA
ENDROOT
BRANCH   1  15
ATOM     14  O   UNL     1      -0.745   9.253  22.918  0.00  0.00    +0.000 OA
ATOM     15  C   UNL     1      -0.240   9.890  21.999  0.00  0.00    +0.000 C 
ATOM     16  N   UNL     1      -0.468  11.224  21.708  0.00  0.00    +0.000 N 
ATOM     17  H   UNL     1       0.025  11.571  20.892  0.00  0.00    +0.000 HD
BRANCH  16  18
ATOM     18  C   UNL     1      -1.237  12.141  22.468  0.00  0.00    +0.000 A 
ATOM     19  C   UNL     1      -2.533  11.885  22.907  0.00  0.00    +0.000 A 
ATOM     20  C   UNL     1      -3.195  12.843  23.660  0.00  0.00    +0.000 A 
ATOM     21  N   UNL     1      -2.662  14.043  23.992  0.00  0.00    +0.000 NA
ATOM     22  C   UNL     1      -1.394  14.267  23.569  0.00  0.00    +0.000 A 
ATOM     23  C   UNL     1      -0.661  13.374  22.807  0.00  0.00    +0.000 A 
ENDBRANCH  16  18
ENDBRANCH   1  15
BRANCH   8  24
ATOM     24  C   UNL     1       1.362   3.838  19.405  0.00  0.00    +0.000 C 
ATOM     25  F   UNL     1       2.400   3.184  19.992  0.00  0.00    +0.000 F 
ATOM     26  F   UNL     1       0.701   4.477  20.410  0.00  0.00    +0.000 F 
ATOM     27  F   UNL     1       0.515   2.862  18.969  0.00  0.00    +0.000 F 
ENDBRANCH   8  24
BRANCH  10  28
ATOM     28  C   UNL     1       5.391   4.284  18.741  0.00  0.00    +0.000 C 
ATOM     29  F   UNL     1       6.352   4.987  19.421  0.00  0.00    +0.000 F 
ATOM     30  F   UNL     1       5.357   3.063  19.340  0.00  0.00    +0.000 F 
ATOM     31  F   UNL     1       5.903   4.106  17.496  0.00  0.00    +0.000 F 
ENDBRANCH  10  28
TORSDOF 4
ENDMDL
MODEL 7
REMARK VINA RESULT:      -7.8      3.716      4.962
REMARK  Name = 
REMARK  4 active torsions:
REMARK  status: ('A' for Active; 'I' for Inactive)
REMARK    1  A    between atoms: C_2  and  C_10
REMARK    2  A    between atoms: N_3  and  C_4
REMARK    3  A    between atoms: C_17  and  C_18
REMARK    4  A    between atoms: C_23  and  C_24
REMARK                            x       y       z     vdW  Elec       q    Type
REMARK                         _______ _______ _______ _____ _____    ______ ____
ROOT
ATOM      1  C   UNL     1       2.697   8.029  18.192  0.00  0.00    +0.000 A 
ATOM      2  C   UNL     1       2.295   6.870  18.832  0.00  0.00    +0.000 A 
ATOM      3  N   UNL     1       3.366   5.999  18.746  0.00  0.00    +0.000 N 
ATOM      4  C   UNL     1       4.051   6.481  17.630  0.00  0.00    +0.000 A 
ATOM      5  C   UNL     1       4.491   5.494  16.696  0.00  0.00    +0.000 A 
ATOM      6  C   UNL     1       3.879   4.285  16.703  0.00  0.00    +0.000 A 
ATOM      7  C   UNL     1       2.900   3.943  17.801  0.00  0.00    +0.000 A 
ATOM      8  C   UNL     1       2.475   2.665  18.092  0.00  0.00    +0.000 A 
ATOM      9  C   UNL     1       3.496   1.907  18.621  0.00  0.00    +0.000 A 
ATOM     10  C   UNL     1       4.113   2.536  19.705  0.00  0.00    +0.000 A 
ATOM     11  N   UNL     1       3.941   3.906  19.920  0.00  0.00    +0.000 NA
ATOM     12  C   UNL     1       3.256   4.600  18.958  0.00  0.00    +0.000 A 
ATOM     13  N   UNL     1       3.887   7.790  17.509  0.00  0.00    +0.000 NA
ENDROOT
BRANCH   1  15
ATOM     14  O   UNL     1       2.244  10.176  17.363  0.00  0.00    +0.000 OA
ATOM     15  C   UNL     1       1.902   9.264  18.109  0.00  0.00    +0.000 C 
ATOM     16  N   UNL     1       0.775   9.245  18.913  0.00  0.00    +0.000 N 
ATOM     17  H   UNL     1       0.671   8.408  19.479  0.00  0.00    +0.000 HD
BRANCH  16  18
ATOM     18  C   UNL     1      -0.256  10.216  18.956  0.00  0.00    +0.000 A 
ATOM     19  C   UNL     1      -1.266  10.315  18.003  0.00  0.00    +0.000 A 
ATOM     20  C   UNL     1      -2.240  11.292  18.145  0.00  0.00    +0.000 A 
ATOM     21  N   UNL     1      -2.267  12.187  19.161  0.00  0.00    +0.000 NA
ATOM     22  C   UNL     1      -1.285  12.065  20.087  0.00  0.00    +0.000 A 
ATOM     23  C   UNL     1      -0.269  11.128  20.022  0.00  0.00    +0.000 A 
ENDBRANCH  16  18
ENDBRANCH   1  15
BRANCH   8  24
ATOM     24  C   UNL     1       1.191   2.589  19.038  0.00  0.00    +0.000 C 
ATOM     25  F   UNL     1       0.716   3.805  19.420  0.00  0.00    +0.000 F 
ATOM     26  F   UNL     1       0.148   1.945  18.446  0.00  0.00    +0.000 F 
ATOM     27  F   UNL     1       1.433   1.911  20.196  0.00  0.00    +0.000 F 
ENDBRANCH   8  24
BRANCH  10  28
ATOM     28  C   UNL     1       4.813   1.616  20.714  0.00  0.00    +0.000 C 
ATOM     29  F   UNL     1       5.922   2.208  21.261  0.00  0.00    +0.000 F 
ATOM     30  F   UNL     1       4.034   1.277  21.777  0.00  0.00    +0.000 F 
ATOM     31  F   UNL     1       5.267   0.460  20.165  0.00  0.00    +0.000 F 
ENDBRANCH  10  28
TORSDOF 4
ENDMDL
MODEL 8
REMARK VINA RESULT:      -7.7      3.717      4.903
REMARK  Name = 
REMARK  4 active torsions:
REMARK  status: ('A' for Active; 'I' for Inactive)
REMARK    1  A    between atoms: C_2  and  C_10
REMARK    2  A    between atoms: N_3  and  C_4
REMARK    3  A    between atoms: C_17  and  C_18
REMARK    4  A    between atoms: C_23  and  C_24
REMARK                            x       y       z     vdW  Elec       q    Type
REMARK                         _______ _______ _______ _____ _____    ______ ____
ROOT
ATOM      1  C   UNL     1       2.714   7.999  18.186  0.00  0.00    +0.000 A 
ATOM      2  C   UNL     1       2.313   6.837  18.822  0.00  0.00    +0.000 A 
ATOM      3  N   UNL     1       3.388   5.970  18.738  0.00  0.00    +0.000 N 
ATOM      4  C   UNL     1       4.074   6.458  17.625  0.00  0.00    +0.000 A 
ATOM      5  C   UNL     1       4.522   5.474  16.690  0.00  0.00    +0.000 A 
ATOM      6  C   UNL     1       3.914   4.263  16.693  0.00  0.00    +0.000 A 
ATOM      7  C   UNL     1       2.933   3.915  17.787  0.00  0.00    +0.000 A 
ATOM      8  C   UNL     1       2.511   2.634  18.073  0.00  0.00    +0.000 A 
ATOM      9  C   UNL     1       3.534   1.879  18.603  0.00  0.00    +0.000 A 
ATOM     10  C   UNL     1       4.145   2.507  19.691  0.00  0.00    +0.000 A 
ATOM     11  N   UNL     1       3.967   3.877  19.908  0.00  0.00    +0.000 NA
ATOM     12  C   UNL     1       3.283   4.571  18.946  0.00  0.00    +0.000 A 
ATOM     13  N   UNL     1       3.906   7.766  17.507  0.00  0.00    +0.000 NA
ENDROOT
BRANCH   1  15
ATOM     14  O   UNL     1       2.208  10.111  17.302  0.00  0.00    +0.000 OA
ATOM     15  C   UNL     1       1.914   9.231  18.104  0.00  0.00    +0.000 C 
ATOM     16  N   UNL     1       0.840   9.247  18.978  0.00  0.00    +0.000 N 
ATOM     17  H   UNL     1       0.772   8.434  19.583  0.00  0.00    +0.000 HD
BRANCH  16  18
ATOM     18  C   UNL     1      -0.186  10.221  19.047  0.00  0.00    +0.000 A 
ATOM     19  C   UNL     1      -0.280  11.175  20.056  0.00  0.00    +0.000 A 
ATOM     20  C   UNL     1      -1.315  12.098  20.024  0.00  0.00    +0.000 A 
ATOM     21  N   UNL     1      -2.270  12.126  19.065  0.00  0.00    +0.000 NA
ATOM     22  C   UNL     1      -2.153  11.200  18.082  0.00  0.00    +0.000 A 
ATOM     23  C   UNL     1      -1.160  10.237  18.038  0.00  0.00    +0.000 A 
ENDBRANCH  16  18
ENDBRANCH   1  15
BRANCH   8  24
ATOM     24  C   UNL     1       1.225   2.552  19.015  0.00  0.00    +0.000 C 
ATOM     25  F   UNL     1       0.163   1.924  18.443  0.00  0.00    +0.000 F 
ATOM     26  F   UNL     1       1.475   1.888  20.177  0.00  0.00    +0.000 F 
ATOM     27  F   UNL     1       0.767   3.782  19.384  0.00  0.00    +0.000 F 
ENDBRANCH   8  24
BRANCH  10  28
ATOM     28  C   UNL     1       4.845   1.587  20.700  0.00  0.00    +0.000 C 
ATOM     29  F   UNL     1       4.021   1.253  21.744  0.00  0.00    +0.000 F 
ATOM     30  F   UNL     1       5.245   0.400  20.171  0.00  0.00    +0.000 F 
ATOM     31  F   UNL     1       5.934   2.154  21.280  0.00  0.00    +0.000 F 
ENDBRANCH  10  28
TORSDOF 4
ENDMDL
MODEL 9
REMARK VINA RESULT:      -7.7      5.436      9.484
REMARK  Name = 
REMARK  4 active torsions:
REMARK  status: ('A' for Active; 'I' for Inactive)
REMARK    1  A    between atoms: C_2  and  C_10
REMARK    2  A    between atoms: N_3  and  C_4
REMARK    3  A    between atoms: C_17  and  C_18
REMARK    4  A    between atoms: C_23  and  C_24
REMARK                            x       y       z     vdW  Elec       q    Type
REMARK                         _______ _______ _______ _____ _____    ______ ____
ROOT
ATOM      1  C   UNL     1       2.087   8.616  18.175  0.00  0.00    +0.000 A 
ATOM      2  C   UNL     1       1.098   8.755  19.133  0.00  0.00    +0.000 A 
ATOM      3  N   UNL     1       0.584  10.028  18.965  0.00  0.00    +0.000 N 
ATOM      4  C   UNL     1       1.642  10.694  18.344  0.00  0.00    +0.000 A 
ATOM      5  C   UNL     1       1.946  11.993  18.856  0.00  0.00    +0.000 A 
ATOM      6  C   UNL     1       1.531  12.302  20.108  0.00  0.00    +0.000 A 
ATOM      7  C   UNL     1       0.609  11.364  20.849  0.00  0.00    +0.000 A 
ATOM      8  C   UNL     1      -0.122  11.713  21.965  0.00  0.00    +0.000 A 
ATOM      9  C   UNL     1      -1.116  12.613  21.649  0.00  0.00    +0.000 A 
ATOM     10  C   UNL     1      -1.915  12.167  20.593  0.00  0.00    +0.000 A 
ATOM     11  N   UNL     1      -1.472  11.139  19.756  0.00  0.00    +0.000 NA
ATOM     12  C   UNL     1      -0.190  10.695  19.948  0.00  0.00    +0.000 A 
ATOM     13  N   UNL     1       2.351   9.857  17.601  0.00  0.00    +0.000 NA
ENDROOT
BRANCH   1  15
ATOM     14  O   UNL     1       3.944   7.432  17.368  0.00  0.00    +0.000 OA
ATOM     15  C   UNL     1       2.854   7.385  17.930  0.00  0.00    +0.000 C 
ATOM     16  N   UNL     1       2.231   6.246  18.412  0.00  0.00    +0.000 N 
ATOM     17  H   UNL     1       1.319   6.405  18.828  0.00  0.00    +0.000 HD
BRANCH  16  18
ATOM     18  C   UNL     1       2.768   4.935  18.451  0.00  0.00    +0.000 A 
ATOM     19  C   UNL     1       3.817   4.554  19.283  0.00  0.00    +0.000 A 
ATOM     20  C   UNL     1       4.260   3.240  19.258  0.00  0.00    +0.000 A 
ATOM     21  N   UNL     1       3.740   2.284  18.452  0.00  0.00    +0.000 NA
ATOM     22  C   UNL     1       2.708   2.671  17.661  0.00  0.00    +0.000 A 
ATOM     23  C   UNL     1       2.208   3.960  17.614  0.00  0.00    +0.000 A 
ENDBRANCH  16  18
ENDBRANCH   1  15
BRANCH   8  24
ATOM     24  C   UNL     1      -0.735  10.481  22.772  0.00  0.00    +0.000 C 
ATOM     25  F   UNL     1      -0.989   9.389  22.001  0.00  0.00    +0.000 F 
ATOM     26  F   UNL     1       0.085  10.055  23.771  0.00  0.00    +0.000 F 
ATOM     27  F   UNL     1      -1.920  10.786  23.374  0.00  0.00    +0.000 F 
ENDBRANCH   8  24
BRANCH  10  28
ATOM     28  C   UNL     1      -3.339  12.735  20.533  0.00  0.00    +0.000 C 
ATOM     29  F   UNL     1      -4.081  12.369  21.626  0.00  0.00    +0.000 F 
ATOM     30  F   UNL     1      -3.385  14.095  20.515  0.00  0.00    +0.000 F 
ATOM     31  F   UNL     1      -4.050  12.296  19.462  0.00  0.00    +0.000 F 
ENDBRANCH  10  28
TORSDOF 4
ENDMDL
