MODEL 1
REMARK VINA RESULT:      -8.3      0.000      0.000
REMARK  Name = 
REMARK  3 active torsions:
REMARK  status: ('A' for Active; 'I' for Inactive)
REMARK    1  A    between atoms: C_4  and  C_5
REMARK    2  A    between atoms: C_9  and  N_10
REMARK    3  A    between atoms: N_17  and  C_18
REMARK                            x       y       z     vdW  Elec       q    Type
REMARK                         _______ _______ _______ _____ _____    ______ ____
ROOT
ATOM      1  C   UNL     1       1.283   8.945  19.841  0.00  0.00    +0.000 A 
ATOM      2  N   UNL     1       1.376   9.710  18.732  0.00  0.00    +0.000 NA
ATOM      3  C   UNL     1       2.077   9.203  17.714  0.00  0.00    +0.000 A 
ATOM      4  C   UNL     1       2.660   7.963  17.755  0.00  0.00    +0.000 A 
ATOM      5  C   UNL     1       2.506   7.217  18.915  0.00  0.00    +0.000 A 
ATOM      6  N   UNL     1       1.839   7.716  19.974  0.00  0.00    +0.000 NA
ENDROOT
BRANCH   5   7
ATOM      7  N   UNL     1       3.101   5.957  18.973  0.00  0.00    +0.000 N 
ATOM      8  C   UNL     1       2.778   4.956  17.937  0.00  0.00    +0.000 C 
ATOM      9  C   UNL     1       3.827   4.829  16.795  0.00  0.00    +0.000 C 
ATOM     10  C   UNL     1       5.205   4.824  17.364  0.00  0.00    +0.000 A 
ATOM     11  C   UNL     1       5.500   5.322  18.620  0.00  0.00    +0.000 A 
ATOM     12  N   UNL     1       6.834   5.216  18.904  0.00  0.00    +0.000 NA
ATOM     13  C   UNL     1       7.356   4.676  17.823  0.00  0.00    +0.000 A 
ATOM     14  N   UNL     1       6.412   4.430  16.857  0.00  0.00    +0.000 N 
ATOM     15  C   UNL     1       4.476   5.911  19.536  0.00  0.00    +0.000 C 
BRANCH  14  16
ATOM     16  C   UNL     1       6.775   3.890  15.566  0.00  0.00    +0.000 C 
ATOM     17  C   UNL     1       5.908   3.950  14.326  0.00  0.00    +0.000 C 
ATOM     18  C   UNL     1       7.147   4.773  14.392  0.00  0.00    +0.000 C 
ENDBRANCH  14  16
ENDBRANCH   5   7
BRANCH   1  22
ATOM     19  C   UNL     1      -0.920  10.576  23.173  0.00  0.00    +0.000 A 
ATOM     20  C   UNL     1      -0.127   9.447  23.343  0.00  0.00    +0.000 A 
ATOM     21  C   UNL     1       0.596   8.937  22.262  0.00  0.00    +0.000 A 
ATOM     22  C   UNL     1       0.547   9.533  20.981  0.00  0.00    +0.000 A 
ATOM     23  C   UNL     1      -0.247  10.685  20.847  0.00  0.00    +0.000 A 
ATOM     24  C   UNL     1      -0.975  11.198  21.928  0.00  0.00    +0.000 A 
ENDBRANCH   1  22
TORSDOF 3
ENDMDL
MODEL 2
REMARK VINA RESULT:      -8.0      1.959      3.310
REMARK  Name = 
REMARK  3 active torsions:
REMARK  status: ('A' for Active; 'I' for Inactive)
REMARK    1  A    between atoms: C_4  and  C_5
REMARK    2  A    between atoms: C_9  and  N_10
REMARK    3  A    between atoms: N_17  and  C_18
REMARK                            x       y       z     vdW  Elec       q    Type
REMARK                         _______ _______ _______ _____ _____    ______ ____
ROOT
ATOM      1  C   UNL     1       2.316   6.382  19.798  0.00  0.00    +0.000 A 
ATOM      2  N   UNL     1       1.673   5.843  20.855  0.00  0.00    +0.000 NA
ATOM      3  C   UNL     1       1.983   4.581  21.165  0.00  0.00    +0.000 A 
ATOM      4  C   UNL     1       2.921   3.855  20.478  0.00  0.00    +0.000 A 
ATOM      5  C   UNL     1       3.564   4.475  19.416  0.00  0.00    +0.000 A 
ATOM      6  N   UNL     1       3.246   5.732  19.054  0.00  0.00    +0.000 NA
ENDROOT
BRANCH   5   7
ATOM      7  N   UNL     1       4.515   3.744  18.704  0.00  0.00    +0.000 N 
ATOM      8  C   UNL     1       4.071   2.826  17.635  0.00  0.00    +0.000 C 
ATOM      9  C   UNL     1       4.183   3.396  16.192  0.00  0.00    +0.000 C 
ATOM     10  C   UNL     1       5.489   4.093  16.015  0.00  0.00    +0.000 A 
ATOM     11  C   UNL     1       6.242   4.556  17.079  0.00  0.00    +0.000 A 
ATOM     12  N   UNL     1       7.389   5.169  16.655  0.00  0.00    +0.000 NA
ATOM     13  C   UNL     1       7.330   5.101  15.342  0.00  0.00    +0.000 A 
ATOM     14  N   UNL     1       6.193   4.468  14.905  0.00  0.00    +0.000 N 
ATOM     15  C   UNL     1       5.832   4.405  18.508  0.00  0.00    +0.000 C 
BRANCH  14  16
ATOM     16  C   UNL     1       5.897   4.332  13.496  0.00  0.00    +0.000 C 
ATOM     17  C   UNL     1       6.934   4.216  12.399  0.00  0.00    +0.000 C 
ATOM     18  C   UNL     1       6.102   3.032  12.745  0.00  0.00    +0.000 C 
ENDBRANCH  14  16
ENDBRANCH   5   7
BRANCH   1  22
ATOM     19  C   UNL     1       1.296  10.433  18.722  0.00  0.00    +0.000 A 
ATOM     20  C   UNL     1       1.948   9.611  17.811  0.00  0.00    +0.000 A 
ATOM     21  C   UNL     1       2.260   8.295  18.164  0.00  0.00    +0.000 A 
ATOM     22  C   UNL     1       1.933   7.763  19.432  0.00  0.00    +0.000 A 
ATOM     23  C   UNL     1       1.255   8.613  20.322  0.00  0.00    +0.000 A 
ATOM     24  C   UNL     1       0.943   9.933  19.973  0.00  0.00    +0.000 A 
ENDBRANCH   1  22
TORSDOF 3
ENDMDL
MODEL 3
REMARK VINA RESULT:      -7.3      1.231      8.588
REMARK  Name = 
REMARK  3 active torsions:
REMARK  status: ('A' for Active; 'I' for Inactive)
REMARK    1  A    between atoms: C_4  and  C_5
REMARK    2  A    between atoms: C_9  and  N_10
REMARK    3  A    between atoms: N_17  and  C_18
REMARK                            x       y       z     vdW  Elec       q    Type
REMARK                         _______ _______ _______ _____ _____    ______ ____
ROOT
ATOM      1  C   UNL     1       5.804   4.928  16.269  0.00  0.00    +0.000 A 
ATOM      2  N   UNL     1       6.719   4.821  17.255  0.00  0.00    +0.000 NA
ATOM      3  C   UNL     1       6.301   5.104  18.492  0.00  0.00    +0.000 A 
ATOM      4  C   UNL     1       5.010   5.462  18.779  0.00  0.00    +0.000 A 
ATOM      5  C   UNL     1       4.111   5.530  17.723  0.00  0.00    +0.000 A 
ATOM      6  N   UNL     1       4.511   5.289  16.460  0.00  0.00    +0.000 NA
ENDROOT
BRANCH   5   7
ATOM      7  N   UNL     1       2.795   5.900  18.000  0.00  0.00    +0.000 N 
ATOM      8  C   UNL     1       2.155   5.424  19.243  0.00  0.00    +0.000 C 
ATOM      9  C   UNL     1       2.145   6.451  20.411  0.00  0.00    +0.000 C 
ATOM     10  C   UNL     1       1.765   7.801  19.903  0.00  0.00    +0.000 A 
ATOM     11  C   UNL     1       1.875   8.160  18.572  0.00  0.00    +0.000 A 
ATOM     12  N   UNL     1       1.477   9.452  18.365  0.00  0.00    +0.000 NA
ATOM     13  C   UNL     1       1.146   9.888  19.561  0.00  0.00    +0.000 A 
ATOM     14  N   UNL     1       1.313   8.930  20.529  0.00  0.00    +0.000 N 
ATOM     15  C   UNL     1       2.378   7.239  17.508  0.00  0.00    +0.000 C 
BRANCH  14  16
ATOM     16  C   UNL     1       1.061   9.212  21.925  0.00  0.00    +0.000 C 
ATOM     17  C   UNL     1       0.098  10.261  22.438  0.00  0.00    +0.000 C 
ATOM     18  C   UNL     1      -0.231   8.820  22.612  0.00  0.00    +0.000 C 
ENDBRANCH  14  16
ENDBRANCH   5   7
BRANCH   1  22
ATOM     19  C   UNL     1       7.187   4.240  12.241  0.00  0.00    +0.000 A 
ATOM     20  C   UNL     1       7.864   5.125  13.072  0.00  0.00    +0.000 A 
ATOM     21  C   UNL     1       7.417   5.329  14.380  0.00  0.00    +0.000 A 
ATOM     22  C   UNL     1       6.285   4.660  14.897  0.00  0.00    +0.000 A 
ATOM     23  C   UNL     1       5.636   3.755  14.039  0.00  0.00    +0.000 A 
ATOM     24  C   UNL     1       6.079   3.550  12.726  0.00  0.00    +0.000 A 
ENDBRANCH   1  22
TORSDOF 3
ENDMDL
MODEL 4
REMARK VINA RESULT:      -7.2      4.208     10.279
REMARK  Name = 
REMARK  3 active torsions:
REMARK  status: ('A' for Active; 'I' for Inactive)
REMARK    1  A    between atoms: C_4  and  C_5
REMARK    2  A    between atoms: C_9  and  N_10
REMARK    3  A    between atoms: N_17  and  C_18
REMARK                            x       y       z     vdW  Elec       q    Type
REMARK                         _______ _______ _______ _____ _____    ______ ____
ROOT
ATOM      1  C   UNL     1       0.411   9.531  21.079  0.00  0.00    +0.000 A 
ATOM      2  N   UNL     1       0.507   9.051  22.337  0.00  0.00    +0.000 NA
ATOM      3  C   UNL     1      -0.187   9.696  23.278  0.00  0.00    +0.000 A 
ATOM      4  C   UNL     1      -0.984  10.777  23.006  0.00  0.00    +0.000 A 
ATOM      5  C   UNL     1      -1.059  11.207  21.688  0.00  0.00    +0.000 A 
ATOM      6  N   UNL     1      -0.341  10.602  20.723  0.00  0.00    +0.000 NA
ENDROOT
BRANCH   5   7
ATOM      7  N   UNL     1      -1.861  12.311  21.399  0.00  0.00    +0.000 N 
ATOM      8  C   UNL     1      -2.026  12.737  19.995  0.00  0.00    +0.000 C 
ATOM      9  C   UNL     1      -3.339  12.255  19.313  0.00  0.00    +0.000 C 
ATOM     10  C   UNL     1      -4.494  12.437  20.238  0.00  0.00    +0.000 A 
ATOM     11  C   UNL     1      -4.346  12.559  21.607  0.00  0.00    +0.000 A 
ATOM     12  N   UNL     1      -5.554  12.702  22.234  0.00  0.00    +0.000 NA
ATOM     13  C   UNL     1      -6.436  12.646  21.259  0.00  0.00    +0.000 A 
ATOM     14  N   UNL     1      -5.845  12.476  20.032  0.00  0.00    +0.000 N 
ATOM     15  C   UNL     1      -3.022  12.527  22.301  0.00  0.00    +0.000 C 
BRANCH  14  16
ATOM     16  C   UNL     1      -6.632  12.333  18.827  0.00  0.00    +0.000 C 
ATOM     17  C   UNL     1      -7.793  13.223  18.438  0.00  0.00    +0.000 C 
ATOM     18  C   UNL     1      -6.523  13.301  17.666  0.00  0.00    +0.000 C 
ENDBRANCH  14  16
ENDBRANCH   5   7
BRANCH   1  22
ATOM     19  C   UNL     1       2.687   7.509  18.022  0.00  0.00    +0.000 A 
ATOM     20  C   UNL     1       2.097   8.739  17.757  0.00  0.00    +0.000 A 
ATOM     21  C   UNL     1       1.376   9.394  18.759  0.00  0.00    +0.000 A 
ATOM     22  C   UNL     1       1.219   8.842  20.050  0.00  0.00    +0.000 A 
ATOM     23  C   UNL     1       1.846   7.607  20.293  0.00  0.00    +0.000 A 
ATOM     24  C   UNL     1       2.568   6.947  19.291  0.00  0.00    +0.000 A 
ENDBRANCH   1  22
TORSDOF 3
ENDMDL
MODEL 5
REMARK VINA RESULT:      -7.2      3.973      9.956
REMARK  Name = 
REMARK  3 active torsions:
REMARK  status: ('A' for Active; 'I' for Inactive)
REMARK    1  A    between atoms: C_4  and  C_5
REMARK    2  A    between atoms: C_9  and  N_10
REMARK    3  A    between atoms: N_17  and  C_18
REMARK                            x       y       z     vdW  Elec       q    Type
REMARK                         _______ _______ _______ _____ _____    ______ ____
ROOT
ATOM      1  C   UNL     1       0.542   9.413  21.073  0.00  0.00    +0.000 A 
ATOM      2  N   UNL     1       0.668   8.893  22.312  0.00  0.00    +0.000 NA
ATOM      3  C   UNL     1       0.030   9.532  23.297  0.00  0.00    +0.000 A 
ATOM      4  C   UNL     1      -0.740  10.646  23.085  0.00  0.00    +0.000 A 
ATOM      5  C   UNL     1      -0.848  11.117  21.784  0.00  0.00    +0.000 A 
ATOM      6  N   UNL     1      -0.186  10.518  20.775  0.00  0.00    +0.000 NA
ENDROOT
BRANCH   5   7
ATOM      7  N   UNL     1      -1.623  12.254  21.556  0.00  0.00    +0.000 N 
ATOM      8  C   UNL     1      -1.729  12.795  20.186  0.00  0.00    +0.000 C 
ATOM      9  C   UNL     1      -3.022  12.392  19.420  0.00  0.00    +0.000 C 
ATOM     10  C   UNL     1      -4.209  12.519  20.314  0.00  0.00    +0.000 A 
ATOM     11  C   UNL     1      -4.110  12.528  21.694  0.00  0.00    +0.000 A 
ATOM     12  N   UNL     1      -5.338  12.640  22.285  0.00  0.00    +0.000 NA
ATOM     13  C   UNL     1      -6.184  12.679  21.278  0.00  0.00    +0.000 A 
ATOM     14  N   UNL     1      -5.550  12.597  20.063  0.00  0.00    +0.000 N 
ATOM     15  C   UNL     1      -2.814  12.417  22.430  0.00  0.00    +0.000 C 
BRANCH  14  16
ATOM     16  C   UNL     1      -6.293  12.566  18.823  0.00  0.00    +0.000 C 
ATOM     17  C   UNL     1      -5.788  11.972  17.524  0.00  0.00    +0.000 C 
ATOM     18  C   UNL     1      -6.885  11.288  18.263  0.00  0.00    +0.000 C 
ENDBRANCH  14  16
ENDBRANCH   5   7
BRANCH   1  22
ATOM     19  C   UNL     1       2.802   7.421  17.984  0.00  0.00    +0.000 A 
ATOM     20  C   UNL     1       2.635   6.821  19.227  0.00  0.00    +0.000 A 
ATOM     21  C   UNL     1       1.887   7.467  20.215  0.00  0.00    +0.000 A 
ATOM     22  C   UNL     1       1.288   8.728  19.995  0.00  0.00    +0.000 A 
ATOM     23  C   UNL     1       1.457   9.298  18.722  0.00  0.00    +0.000 A 
ATOM     24  C   UNL     1       2.208   8.655  17.730  0.00  0.00    +0.000 A 
ENDBRANCH   1  22
TORSDOF 3
ENDMDL
MODEL 6
REMARK VINA RESULT:      -7.1      5.665     10.888
REMARK  Name = 
REMARK  3 active torsions:
REMARK  status: ('A' for Active; 'I' for Inactive)
REMARK    1  A    between atoms: C_4  and  C_5
REMARK    2  A    between atoms: C_9  and  N_10
REMARK    3  A    between atoms: N_17  and  C_18
REMARK                            x       y       z     vdW  Elec       q    Type
REMARK                         _______ _______ _______ _____ _____    ______ ____
ROOT
ATOM      1  C   UNL     1      -1.089  10.654  18.942  0.00  0.00    +0.000 A 
ATOM      2  N   UNL     1       0.065   9.985  18.732  0.00  0.00    +0.000 NA
ATOM      3  C   UNL     1       0.960  10.010  19.724  0.00  0.00    +0.000 A 
ATOM      4  C   UNL     1       0.734  10.651  20.914  0.00  0.00    +0.000 A 
ATOM      5  C   UNL     1      -0.482  11.299  21.077  0.00  0.00    +0.000 A 
ATOM      6  N   UNL     1      -1.389  11.326  20.081  0.00  0.00    +0.000 NA
ENDROOT
BRANCH   5   7
ATOM      7  N   UNL     1      -0.721  11.962  22.280  0.00  0.00    +0.000 N 
ATOM      8  C   UNL     1      -0.528  13.425  22.352  0.00  0.00    +0.000 C 
ATOM      9  C   UNL     1      -1.831  14.265  22.226  0.00  0.00    +0.000 C 
ATOM     10  C   UNL     1      -2.912  13.663  23.058  0.00  0.00    +0.000 A 
ATOM     11  C   UNL     1      -2.892  12.344  23.473  0.00  0.00    +0.000 A 
ATOM     12  N   UNL     1      -4.001  12.031  24.210  0.00  0.00    +0.000 NA
ATOM     13  C   UNL     1      -4.705  13.142  24.229  0.00  0.00    +0.000 A 
ATOM     14  N   UNL     1      -4.094  14.157  23.536  0.00  0.00    +0.000 N 
ATOM     15  C   UNL     1      -1.791  11.390  23.138  0.00  0.00    +0.000 C 
BRANCH  14  16
ATOM     16  C   UNL     1      -4.720  15.452  23.382  0.00  0.00    +0.000 C 
ATOM     17  C   UNL     1      -6.055  15.846  23.975  0.00  0.00    +0.000 C 
ATOM     18  C   UNL     1      -4.808  16.451  24.517  0.00  0.00    +0.000 C 
ENDBRANCH  14  16
ENDBRANCH   5   7
BRANCH   1  22
ATOM     19  C   UNL     1      -3.976  10.644  15.737  0.00  0.00    +0.000 A 
ATOM     20  C   UNL     1      -4.146  11.487  16.829  0.00  0.00    +0.000 A 
ATOM     21  C   UNL     1      -3.196  11.494  17.854  0.00  0.00    +0.000 A 
ATOM     22  C   UNL     1      -2.055  10.662  17.822  0.00  0.00    +0.000 A 
ATOM     23  C   UNL     1      -1.901   9.837  16.695  0.00  0.00    +0.000 A 
ATOM     24  C   UNL     1      -2.852   9.825  15.666  0.00  0.00    +0.000 A 
ENDBRANCH   1  22
TORSDOF 3
ENDMDL
MODEL 7
REMARK VINA RESULT:      -7.1      3.157      5.563
REMARK  Name = 
REMARK  3 active torsions:
REMARK  status: ('A' for Active; 'I' for Inactive)
REMARK    1  A    between atoms: C_4  and  C_5
REMARK    2  A    between atoms: C_9  and  N_10
REMARK    3  A    between atoms: N_17  and  C_18
REMARK                            x       y       z     vdW  Elec       q    Type
REMARK                         _______ _______ _______ _____ _____    ______ ____
ROOT
ATOM      1  C   UNL     1      -1.666  10.851  18.890  0.00  0.00    +0.000 A 
ATOM      2  N   UNL     1      -2.134  11.674  19.853  0.00  0.00    +0.000 NA
ATOM      3  C   UNL     1      -1.414  11.750  20.976  0.00  0.00    +0.000 A 
ATOM      4  C   UNL     1      -0.243  11.062  21.158  0.00  0.00    +0.000 A 
ATOM      5  C   UNL     1       0.196  10.252  20.120  0.00  0.00    +0.000 A 
ATOM      6  N   UNL     1      -0.528  10.122  18.991  0.00  0.00    +0.000 NA
ENDROOT
BRANCH   5   7
ATOM      7  N   UNL     1       1.382   9.539  20.295  0.00  0.00    +0.000 N 
ATOM      8  C   UNL     1       1.501   8.600  21.429  0.00  0.00    +0.000 C 
ATOM      9  C   UNL     1       1.261   7.105  21.071  0.00  0.00    +0.000 C 
ATOM     10  C   UNL     1       1.967   6.762  19.803  0.00  0.00    +0.000 A 
ATOM     11  C   UNL     1       2.356   7.715  18.880  0.00  0.00    +0.000 A 
ATOM     12  N   UNL     1       2.971   7.147  17.798  0.00  0.00    +0.000 NA
ATOM     13  C   UNL     1       2.941   5.855  18.046  0.00  0.00    +0.000 A 
ATOM     14  N   UNL     1       2.333   5.569  19.244  0.00  0.00    +0.000 N 
ATOM     15  C   UNL     1       2.116   9.180  19.054  0.00  0.00    +0.000 C 
BRANCH  14  16
ATOM     16  C   UNL     1       2.142   4.207  19.689  0.00  0.00    +0.000 C 
ATOM     17  C   UNL     1       0.963   3.718  20.504  0.00  0.00    +0.000 C 
ATOM     18  C   UNL     1       1.095   3.294  19.083  0.00  0.00    +0.000 C 
ENDBRANCH  14  16
ENDBRANCH   5   7
BRANCH   1  22
ATOM     19  C   UNL     1      -4.005  10.552  15.277  0.00  0.00    +0.000 A 
ATOM     20  C   UNL     1      -2.822   9.835  15.406  0.00  0.00    +0.000 A 
ATOM     21  C   UNL     1      -2.080   9.926  16.587  0.00  0.00    +0.000 A 
ATOM     22  C   UNL     1      -2.493  10.735  17.669  0.00  0.00    +0.000 A 
ATOM     23  C   UNL     1      -3.706  11.429  17.517  0.00  0.00    +0.000 A 
ATOM     24  C   UNL     1      -4.451  11.343  16.334  0.00  0.00    +0.000 A 
ENDBRANCH   1  22
TORSDOF 3
ENDMDL
MODEL 8
REMARK VINA RESULT:      -7.0      3.193      9.201
REMARK  Name = 
REMARK  3 active torsions:
REMARK  status: ('A' for Active; 'I' for Inactive)
REMARK    1  A    between atoms: C_4  and  C_5
REMARK    2  A    between atoms: C_9  and  N_10
REMARK    3  A    between atoms: N_17  and  C_18
REMARK                            x       y       z     vdW  Elec       q    Type
REMARK                         _______ _______ _______ _____ _____    ______ ____
ROOT
ATOM      1  C   UNL     1       2.030   7.802  19.147  0.00  0.00    +0.000 A 
ATOM      2  N   UNL     1       1.927   7.482  20.454  0.00  0.00    +0.000 NA
ATOM      3  C   UNL     1       1.211   8.312  21.218  0.00  0.00    +0.000 A 
ATOM      4  C   UNL     1       0.581   9.423  20.723  0.00  0.00    +0.000 A 
ATOM      5  C   UNL     1       0.705   9.683  19.365  0.00  0.00    +0.000 A 
ATOM      6  N   UNL     1       1.452   8.888  18.575  0.00  0.00    +0.000 NA
ENDROOT
BRANCH   5   7
ATOM      7  N   UNL     1       0.075  10.815  18.849  0.00  0.00    +0.000 N 
ATOM      8  C   UNL     1      -0.804  10.680  17.670  0.00  0.00    +0.000 C 
ATOM      9  C   UNL     1      -2.325  10.613  17.990  0.00  0.00    +0.000 C 
ATOM     10  C   UNL     1      -2.681  11.639  19.011  0.00  0.00    +0.000 A 
ATOM     11  C   UNL     1      -1.747  12.209  19.858  0.00  0.00    +0.000 A 
ATOM     12  N   UNL     1      -2.324  13.110  20.710  0.00  0.00    +0.000 NA
ATOM     13  C   UNL     1      -3.603  13.078  20.403  0.00  0.00    +0.000 A 
ATOM     14  N   UNL     1      -3.872  12.194  19.387  0.00  0.00    +0.000 N 
ATOM     15  C   UNL     1      -0.293  11.863  19.837  0.00  0.00    +0.000 C 
BRANCH  14  16
ATOM     16  C   UNL     1      -5.223  11.959  18.927  0.00  0.00    +0.000 C 
ATOM     17  C   UNL     1      -6.229  13.041  18.599  0.00  0.00    +0.000 C 
ATOM     18  C   UNL     1      -5.652  12.224  17.498  0.00  0.00    +0.000 C 
ENDBRANCH  14  16
ENDBRANCH   5   7
BRANCH   1  22
ATOM     19  C   UNL     1       4.491   5.141  16.807  0.00  0.00    +0.000 A 
ATOM     20  C   UNL     1       3.427   4.640  17.547  0.00  0.00    +0.000 A 
ATOM     21  C   UNL     1       2.626   5.512  18.288  0.00  0.00    +0.000 A 
ATOM     22  C   UNL     1       2.863   6.905  18.316  0.00  0.00    +0.000 A 
ATOM     23  C   UNL     1       3.933   7.383  17.540  0.00  0.00    +0.000 A 
ATOM     24  C   UNL     1       4.740   6.512  16.798  0.00  0.00    +0.000 A 
ENDBRANCH   1  22
TORSDOF 3
ENDMDL
MODEL 9
REMARK VINA RESULT:      -7.0      4.203     10.534
REMARK  Name = 
REMARK  3 active torsions:
REMARK  status: ('A' for Active; 'I' for Inactive)
REMARK    1  A    between atoms: C_4  and  C_5
REMARK    2  A    between atoms: C_9  and  N_10
REMARK    3  A    between atoms: N_17  and  C_18
REMARK                            x       y       z     vdW  Elec       q    Type
REMARK                         _______ _______ _______ _____ _____    ______ ____
ROOT
ATOM      1  C   UNL     1       0.360   9.661  21.066  0.00  0.00    +0.000 A 
ATOM      2  N   UNL     1       0.518   9.069  22.269  0.00  0.00    +0.000 NA
ATOM      3  C   UNL     1      -0.119   9.631  23.300  0.00  0.00    +0.000 A 
ATOM      4  C   UNL     1      -0.919  10.736  23.169  0.00  0.00    +0.000 A 
ATOM      5  C   UNL     1      -1.060  11.282  21.901  0.00  0.00    +0.000 A 
ATOM      6  N   UNL     1      -0.400  10.763  20.848  0.00  0.00    +0.000 NA
ENDROOT
BRANCH   5   7
ATOM      7  N   UNL     1      -1.865  12.412  21.755  0.00  0.00    +0.000 N 
ATOM      8  C   UNL     1      -2.481  12.697  20.443  0.00  0.00    +0.000 C 
ATOM      9  C   UNL     1      -3.966  12.256  20.306  0.00  0.00    +0.000 C 
ATOM     10  C   UNL     1      -4.728  12.631  21.531  0.00  0.00    +0.000 A 
ATOM     11  C   UNL     1      -4.118  12.887  22.745  0.00  0.00    +0.000 A 
ATOM     12  N   UNL     1      -5.032  13.197  23.713  0.00  0.00    +0.000 NA
ATOM     13  C   UNL     1      -6.195  13.111  23.104  0.00  0.00    +0.000 A 
ATOM     14  N   UNL     1      -6.066  12.761  21.783  0.00  0.00    +0.000 N 
ATOM     15  C   UNL     1      -2.639  12.820  22.956  0.00  0.00    +0.000 C 
BRANCH  14  16
ATOM     16  C   UNL     1      -7.221  12.555  20.938  0.00  0.00    +0.000 C 
ATOM     17  C   UNL     1      -7.218  11.779  19.638  0.00  0.00    +0.000 C 
ATOM     18  C   UNL     1      -7.916  11.214  20.825  0.00  0.00    +0.000 C 
ENDBRANCH  14  16
ENDBRANCH   5   7
BRANCH   1  22
ATOM     19  C   UNL     1       2.619   7.928  17.825  0.00  0.00    +0.000 A 
ATOM     20  C   UNL     1       2.581   7.302  19.065  0.00  0.00    +0.000 A 
ATOM     21  C   UNL     1       1.833   7.862  20.103  0.00  0.00    +0.000 A 
ATOM     22  C   UNL     1       1.105   9.062  19.937  0.00  0.00    +0.000 A 
ATOM     23  C   UNL     1       1.146   9.659  18.666  0.00  0.00    +0.000 A 
ATOM     24  C   UNL     1       1.897   9.101  17.623  0.00  0.00    +0.000 A 
ENDBRANCH   1  22
TORSDOF 3
ENDMDL
