MODEL 1
REMARK VINA RESULT:      -7.2      0.000      0.000
REMARK  Name = 
REMARK  11 active torsions:
REMARK  status: ('A' for Active; 'I' for Inactive)
REMARK    1  A    between atoms: C_1  and  O_2
REMARK    2  A    between atoms: O_2  and  C_3
REMARK    3  A    between atoms: C_6  and  C_7
REMARK    4  A    between atoms: C_7  and  N_8
REMARK    5  A    between atoms: C_10  and  C_11
REMARK    6  A    between atoms: C_11  and  N_12
REMARK    7  A    between atoms: N_12  and  C_13
REMARK    8  A    between atoms: N_12  and  C_14
REMARK    9  A    between atoms: N_12  and  C_15
REMARK   10  A    between atoms: C_23  and  O_24
REMARK   11  A    between atoms: O_24  and  C_25
REMARK                            x       y       z     vdW  Elec       q    Type
REMARK                         _______ _______ _______ _____ _____    ______ ____
ROOT
ATOM      1  N   UNL     1       2.847   6.647  18.027  0.00  0.00    +0.000 N 
ATOM      2  C   UNL     1       4.179   6.682  17.966  0.00  0.00    +0.000 A 
ATOM      3  C   UNL     1       4.701   5.441  17.823  0.00  0.00    +0.000 A 
ATOM      4  C   UNL     1       3.745   4.564  18.094  0.00  0.00    +0.000 A 
ATOM      5  C   UNL     1       3.903   3.178  18.146  0.00  0.00    +0.000 A 
ATOM      6  C   UNL     1       2.774   2.396  18.236  0.00  0.00    +0.000 A 
ATOM      7  C   UNL     1       1.510   3.015  18.186  0.00  0.00    +0.000 A 
ATOM      8  C   UNL     1       1.375   4.456  18.116  0.00  0.00    +0.000 A 
ATOM      9  C   UNL     1       2.557   5.265  18.113  0.00  0.00    +0.000 A 
ENDROOT
BRANCH   1  10
ATOM     10  C   UNL     1       2.146   7.976  17.781  0.00  0.00    +0.000 C 
BRANCH  10  14
ATOM     11  C   UNL     1       0.594   9.930  21.585  0.00  0.00    +0.000 A 
ATOM     12  C   UNL     1       1.106   8.634  21.546  0.00  0.00    +0.000 A 
ATOM     13  C   UNL     1       1.569   8.040  20.344  0.00  0.00    +0.000 A 
ATOM     14  C   UNL     1       1.552   8.716  19.104  0.00  0.00    +0.000 A 
ATOM     15  C   UNL     1       0.998  10.030  19.146  0.00  0.00    +0.000 A 
ATOM     16  C   UNL     1       0.528  10.624  20.355  0.00  0.00    +0.000 A 
BRANCH  11  18
ATOM     17  C   UNL     1      -1.091  10.702  23.241  0.00  0.00    +0.000 C 
ATOM     18  O   UNL     1       0.192  10.552  22.745  0.00  0.00    +0.000 OA
ENDBRANCH  11  18
BRANCH  16  19
ATOM     19  O   UNL     1      -0.013  11.899  20.303  0.00  0.00    +0.000 OA
ATOM     20  C   UNL     1      -1.231  12.372  19.764  0.00  0.00    +0.000 C 
ENDBRANCH  16  19
ENDBRANCH  10  14
ENDBRANCH   1  10
BRANCH   3  21
ATOM     21  C   UNL     1       5.435   5.182  16.531  0.00  0.00    +0.000 C 
BRANCH  21  22
ATOM     22  N   UNL     1       6.886   5.366  16.525  0.00  0.00    +0.000 N 
ATOM     23  C   UNL     1       7.286   6.766  16.789  0.00  0.00    +0.000 C 
ATOM     24  C   UNL     1       7.436   4.448  17.538  0.00  0.00    +0.000 C 
ATOM     25  C   UNL     1       7.360   4.997  15.173  0.00  0.00    +0.000 C 
ENDBRANCH  21  22
ENDBRANCH   3  21
TORSDOF 6
ENDMDL
MODEL 2
REMARK VINA RESULT:      -6.9      1.435      3.641
REMARK  Name = 
REMARK  11 active torsions:
REMARK  status: ('A' for Active; 'I' for Inactive)
REMARK    1  A    between atoms: C_1  and  O_2
REMARK    2  A    between atoms: O_2  and  C_3
REMARK    3  A    between atoms: C_6  and  C_7
REMARK    4  A    between atoms: C_7  and  N_8
REMARK    5  A    between atoms: C_10  and  C_11
REMARK    6  A    between atoms: C_11  and  N_12
REMARK    7  A    between atoms: N_12  and  C_13
REMARK    8  A    between atoms: N_12  and  C_14
REMARK    9  A    between atoms: N_12  and  C_15
REMARK   10  A    between atoms: C_23  and  O_24
REMARK   11  A    between atoms: O_24  and  C_25
REMARK                            x       y       z     vdW  Elec       q    Type
REMARK                         _______ _______ _______ _____ _____    ______ ____
ROOT
ATOM      1  N   UNL     1       3.183   6.931  17.643  0.00  0.00    +0.000 N 
ATOM      2  C   UNL     1       2.465   5.865  17.998  0.00  0.00    +0.000 A 
ATOM      3  C   UNL     1       3.257   4.852  18.423  0.00  0.00    +0.000 A 
ATOM      4  C   UNL     1       4.502   5.133  18.064  0.00  0.00    +0.000 A 
ATOM      5  C   UNL     1       5.606   4.298  18.238  0.00  0.00    +0.000 A 
ATOM      6  C   UNL     1       6.859   4.816  18.002  0.00  0.00    +0.000 A 
ATOM      7  C   UNL     1       6.983   6.182  17.681  0.00  0.00    +0.000 A 
ATOM      8  C   UNL     1       5.820   7.030  17.523  0.00  0.00    +0.000 A 
ATOM      9  C   UNL     1       4.516   6.459  17.682  0.00  0.00    +0.000 A 
ENDROOT
BRANCH   1  10
ATOM     10  C   UNL     1       2.408   8.238  17.541  0.00  0.00    +0.000 C 
BRANCH  10  14
ATOM     11  C   UNL     1       0.787   9.689  21.536  0.00  0.00    +0.000 A 
ATOM     12  C   UNL     1       1.336   8.421  21.349  0.00  0.00    +0.000 A 
ATOM     13  C   UNL     1       1.820   7.985  20.090  0.00  0.00    +0.000 A 
ATOM     14  C   UNL     1       1.788   8.801  18.937  0.00  0.00    +0.000 A 
ATOM     15  C   UNL     1       1.198  10.085  19.128  0.00  0.00    +0.000 A 
ATOM     16  C   UNL     1       0.706  10.521  20.396  0.00  0.00    +0.000 A 
BRANCH  11  18
ATOM     17  C   UNL     1      -0.933  10.353  23.204  0.00  0.00    +0.000 C 
ATOM     18  O   UNL     1       0.364  10.160  22.758  0.00  0.00    +0.000 OA
ENDBRANCH  11  18
BRANCH  16  19
ATOM     19  O   UNL     1       0.130  11.778  20.489  0.00  0.00    +0.000 OA
ATOM     20  C   UNL     1       0.696  13.041  20.772  0.00  0.00    +0.000 C 
ENDBRANCH  16  19
ENDBRANCH  10  14
ENDBRANCH   1  10
BRANCH   3  21
ATOM     21  C   UNL     1       3.100   4.458  19.870  0.00  0.00    +0.000 C 
BRANCH  21  22
ATOM     22  N   UNL     1       2.217   3.333  20.175  0.00  0.00    +0.000 N 
ATOM     23  C   UNL     1       2.171   2.331  19.088  0.00  0.00    +0.000 C 
ATOM     24  C   UNL     1       2.701   2.740  21.435  0.00  0.00    +0.000 C 
ATOM     25  C   UNL     1       0.857   3.890  20.348  0.00  0.00    +0.000 C 
ENDBRANCH  21  22
ENDBRANCH   3  21
TORSDOF 6
ENDMDL
MODEL 3
REMARK VINA RESULT:      -6.9      1.199      1.375
REMARK  Name = 
REMARK  11 active torsions:
REMARK  status: ('A' for Active; 'I' for Inactive)
REMARK    1  A    between atoms: C_1  and  O_2
REMARK    2  A    between atoms: O_2  and  C_3
REMARK    3  A    between atoms: C_6  and  C_7
REMARK    4  A    between atoms: C_7  and  N_8
REMARK    5  A    between atoms: C_10  and  C_11
REMARK    6  A    between atoms: C_11  and  N_12
REMARK    7  A    between atoms: N_12  and  C_13
REMARK    8  A    between atoms: N_12  and  C_14
REMARK    9  A    between atoms: N_12  and  C_15
REMARK   10  A    between atoms: C_23  and  O_24
REMARK   11  A    between atoms: O_24  and  C_25
REMARK                            x       y       z     vdW  Elec       q    Type
REMARK                         _______ _______ _______ _____ _____    ______ ____
ROOT
ATOM      1  N   UNL     1       2.809   6.490  18.884  0.00  0.00    +0.000 N 
ATOM      2  C   UNL     1       4.044   6.295  18.420  0.00  0.00    +0.000 A 
ATOM      3  C   UNL     1       4.428   5.003  18.560  0.00  0.00    +0.000 A 
ATOM      4  C   UNL     1       3.574   4.414  19.386  0.00  0.00    +0.000 A 
ATOM      5  C   UNL     1       3.673   3.104  19.857  0.00  0.00    +0.000 A 
ATOM      6  C   UNL     1       2.602   2.575  20.541  0.00  0.00    +0.000 A 
ATOM      7  C   UNL     1       1.425   3.340  20.661  0.00  0.00    +0.000 A 
ATOM      8  C   UNL     1       1.345   4.692  20.148  0.00  0.00    +0.000 A 
ATOM      9  C   UNL     1       2.497   5.265  19.518  0.00  0.00    +0.000 A 
ENDROOT
BRANCH   1  10
ATOM     10  C   UNL     1       2.132   7.773  18.420  0.00  0.00    +0.000 C 
BRANCH  10  14
ATOM     11  C   UNL     1       0.318  10.194  21.818  0.00  0.00    +0.000 A 
ATOM     12  C   UNL     1       0.937   8.959  22.005  0.00  0.00    +0.000 A 
ATOM     13  C   UNL     1       1.481   8.215  20.927  0.00  0.00    +0.000 A 
ATOM     14  C   UNL     1       1.442   8.670  19.591  0.00  0.00    +0.000 A 
ATOM     15  C   UNL     1       0.780   9.919  19.403  0.00  0.00    +0.000 A 
ATOM     16  C   UNL     1       0.229  10.664  20.488  0.00  0.00    +0.000 A 
BRANCH  11  18
ATOM     17  C   UNL     1      -1.483  11.204  23.201  0.00  0.00    +0.000 C 
ATOM     18  O   UNL     1      -0.166  10.964  22.851  0.00  0.00    +0.000 OA
ENDBRANCH  11  18
BRANCH  16  19
ATOM     19  O   UNL     1      -0.414  11.861  20.214  0.00  0.00    +0.000 OA
ATOM     20  C   UNL     1      -1.335  12.212  19.201  0.00  0.00    +0.000 C 
ENDBRANCH  16  19
ENDBRANCH  10  14
ENDBRANCH   1  10
BRANCH   3  21
ATOM     21  C   UNL     1       4.674   4.249  17.277  0.00  0.00    +0.000 C 
BRANCH  21  22
ATOM     22  N   UNL     1       5.883   4.573  16.521  0.00  0.00    +0.000 N 
ATOM     23  C   UNL     1       7.089   4.652  17.376  0.00  0.00    +0.000 C 
ATOM     24  C   UNL     1       6.026   3.539  15.481  0.00  0.00    +0.000 C 
ATOM     25  C   UNL     1       5.664   5.903  15.910  0.00  0.00    +0.000 C 
ENDBRANCH  21  22
ENDBRANCH   3  21
TORSDOF 6
ENDMDL
MODEL 4
REMARK VINA RESULT:      -6.9      1.411      3.505
REMARK  Name = 
REMARK  11 active torsions:
REMARK  status: ('A' for Active; 'I' for Inactive)
REMARK    1  A    between atoms: C_1  and  O_2
REMARK    2  A    between atoms: O_2  and  C_3
REMARK    3  A    between atoms: C_6  and  C_7
REMARK    4  A    between atoms: C_7  and  N_8
REMARK    5  A    between atoms: C_10  and  C_11
REMARK    6  A    between atoms: C_11  and  N_12
REMARK    7  A    between atoms: N_12  and  C_13
REMARK    8  A    between atoms: N_12  and  C_14
REMARK    9  A    between atoms: N_12  and  C_15
REMARK   10  A    between atoms: C_23  and  O_24
REMARK   11  A    between atoms: O_24  and  C_25
REMARK                            x       y       z     vdW  Elec       q    Type
REMARK                         _______ _______ _______ _____ _____    ______ ____
ROOT
ATOM      1  N   UNL     1       3.290   6.808  17.584  0.00  0.00    +0.000 N 
ATOM      2  C   UNL     1       2.664   5.704  17.993  0.00  0.00    +0.000 A 
ATOM      3  C   UNL     1       3.542   4.769  18.430  0.00  0.00    +0.000 A 
ATOM      4  C   UNL     1       4.752   5.132  18.031  0.00  0.00    +0.000 A 
ATOM      5  C   UNL     1       5.922   4.389  18.203  0.00  0.00    +0.000 A 
ATOM      6  C   UNL     1       7.125   4.992  17.918  0.00  0.00    +0.000 A 
ATOM      7  C   UNL     1       7.136   6.351  17.549  0.00  0.00    +0.000 A 
ATOM      8  C   UNL     1       5.907   7.103  17.392  0.00  0.00    +0.000 A 
ATOM      9  C   UNL     1       4.655   6.440  17.604  0.00  0.00    +0.000 A 
ENDROOT
BRANCH   1  10
ATOM     10  C   UNL     1       2.414   8.047  17.459  0.00  0.00    +0.000 C 
BRANCH  10  14
ATOM     11  C   UNL     1       0.882   9.581  21.458  0.00  0.00    +0.000 A 
ATOM     12  C   UNL     1       1.449   8.319  21.290  0.00  0.00    +0.000 A 
ATOM     13  C   UNL     1       1.905   7.856  20.030  0.00  0.00    +0.000 A 
ATOM     14  C   UNL     1       1.824   8.639  18.857  0.00  0.00    +0.000 A 
ATOM     15  C   UNL     1       1.215   9.917  19.029  0.00  0.00    +0.000 A 
ATOM     16  C   UNL     1       0.752  10.379  20.298  0.00  0.00    +0.000 A 
BRANCH  11  18
ATOM     17  C   UNL     1      -0.779  10.064  23.244  0.00  0.00    +0.000 C 
ATOM     18  O   UNL     1       0.485  10.079  22.679  0.00  0.00    +0.000 OA
ENDBRANCH  11  18
BRANCH  16  19
ATOM     19  O   UNL     1       0.155  11.627  20.373  0.00  0.00    +0.000 OA
ATOM     20  C   UNL     1      -1.152  12.055  20.046  0.00  0.00    +0.000 C 
ENDBRANCH  16  19
ENDBRANCH  10  14
ENDBRANCH   1  10
BRANCH   3  21
ATOM     21  C   UNL     1       3.449   4.416  19.894  0.00  0.00    +0.000 C 
BRANCH  21  22
ATOM     22  N   UNL     1       3.043   3.054  20.239  0.00  0.00    +0.000 N 
ATOM     23  C   UNL     1       2.164   3.004  21.428  0.00  0.00    +0.000 C 
ATOM     24  C   UNL     1       2.375   2.494  19.051  0.00  0.00    +0.000 C 
ATOM     25  C   UNL     1       4.280   2.302  20.546  0.00  0.00    +0.000 C 
ENDBRANCH  21  22
ENDBRANCH   3  21
TORSDOF 6
ENDMDL
MODEL 5
REMARK VINA RESULT:      -6.9      1.100      1.137
REMARK  Name = 
REMARK  11 active torsions:
REMARK  status: ('A' for Active; 'I' for Inactive)
REMARK    1  A    between atoms: C_1  and  O_2
REMARK    2  A    between atoms: O_2  and  C_3
REMARK    3  A    between atoms: C_6  and  C_7
REMARK    4  A    between atoms: C_7  and  N_8
REMARK    5  A    between atoms: C_10  and  C_11
REMARK    6  A    between atoms: C_11  and  N_12
REMARK    7  A    between atoms: N_12  and  C_13
REMARK    8  A    between atoms: N_12  and  C_14
REMARK    9  A    between atoms: N_12  and  C_15
REMARK   10  A    between atoms: C_23  and  O_24
REMARK   11  A    between atoms: O_24  and  C_25
REMARK                            x       y       z     vdW  Elec       q    Type
REMARK                         _______ _______ _______ _____ _____    ______ ____
ROOT
ATOM      1  N   UNL     1       2.875   6.317  18.650  0.00  0.00    +0.000 N 
ATOM      2  C   UNL     1       4.142   6.113  18.290  0.00  0.00    +0.000 A 
ATOM      3  C   UNL     1       4.485   4.807  18.398  0.00  0.00    +0.000 A 
ATOM      4  C   UNL     1       3.548   4.200  19.111  0.00  0.00    +0.000 A 
ATOM      5  C   UNL     1       3.575   2.866  19.522  0.00  0.00    +0.000 A 
ATOM      6  C   UNL     1       2.436   2.331  20.078  0.00  0.00    +0.000 A 
ATOM      7  C   UNL     1       1.269   3.119  20.131  0.00  0.00    +0.000 A 
ATOM      8  C   UNL     1       1.265   4.496  19.683  0.00  0.00    +0.000 A 
ATOM      9  C   UNL     1       2.481   5.070  19.189  0.00  0.00    +0.000 A 
ENDROOT
BRANCH   1  10
ATOM     10  C   UNL     1       2.270   7.638  18.194  0.00  0.00    +0.000 C 
BRANCH  10  14
ATOM     11  C   UNL     1       0.539  10.104  21.602  0.00  0.00    +0.000 A 
ATOM     12  C   UNL     1       0.997   8.797  21.760  0.00  0.00    +0.000 A 
ATOM     13  C   UNL     1       1.517   8.042  20.679  0.00  0.00    +0.000 A 
ATOM     14  C   UNL     1       1.616   8.558  19.367  0.00  0.00    +0.000 A 
ATOM     15  C   UNL     1       1.118   9.884  19.206  0.00  0.00    +0.000 A 
ATOM     16  C   UNL     1       0.589  10.641  20.295  0.00  0.00    +0.000 A 
BRANCH  11  18
ATOM     17  C   UNL     1      -1.203  10.979  23.144  0.00  0.00    +0.000 C 
ATOM     18  O   UNL     1       0.083  10.880  22.643  0.00  0.00    +0.000 OA
ENDBRANCH  11  18
BRANCH  16  19
ATOM     19  O   UNL     1       0.109  11.917  20.046  0.00  0.00    +0.000 OA
ATOM     20  C   UNL     1       0.777  13.157  19.935  0.00  0.00    +0.000 C 
ENDBRANCH  16  19
ENDBRANCH  10  14
ENDBRANCH   1  10
BRANCH   3  21
ATOM     21  C   UNL     1       4.833   4.112  17.105  0.00  0.00    +0.000 C 
BRANCH  21  22
ATOM     22  N   UNL     1       5.969   4.625  16.342  0.00  0.00    +0.000 N 
ATOM     23  C   UNL     1       5.724   5.975  15.789  0.00  0.00    +0.000 C 
ATOM     24  C   UNL     1       7.131   4.617  17.249  0.00  0.00    +0.000 C 
ATOM     25  C   UNL     1       6.183   3.694  15.211  0.00  0.00    +0.000 C 
ENDBRANCH  21  22
ENDBRANCH   3  21
TORSDOF 6
ENDMDL
MODEL 6
REMARK VINA RESULT:      -6.9      1.096      1.980
REMARK  Name = 
REMARK  11 active torsions:
REMARK  status: ('A' for Active; 'I' for Inactive)
REMARK    1  A    between atoms: C_1  and  O_2
REMARK    2  A    between atoms: O_2  and  C_3
REMARK    3  A    between atoms: C_6  and  C_7
REMARK    4  A    between atoms: C_7  and  N_8
REMARK    5  A    between atoms: C_10  and  C_11
REMARK    6  A    between atoms: C_11  and  N_12
REMARK    7  A    between atoms: N_12  and  C_13
REMARK    8  A    between atoms: N_12  and  C_14
REMARK    9  A    between atoms: N_12  and  C_15
REMARK   10  A    between atoms: C_23  and  O_24
REMARK   11  A    between atoms: O_24  and  C_25
REMARK                            x       y       z     vdW  Elec       q    Type
REMARK                         _______ _______ _______ _____ _____    ______ ____
ROOT
ATOM      1  N   UNL     1       2.443   6.650  18.219  0.00  0.00    +0.000 N 
ATOM      2  C   UNL     1       3.726   6.892  18.493  0.00  0.00    +0.000 A 
ATOM      3  C   UNL     1       4.448   5.748  18.537  0.00  0.00    +0.000 A 
ATOM      4  C   UNL     1       3.598   4.733  18.595  0.00  0.00    +0.000 A 
ATOM      5  C   UNL     1       3.944   3.389  18.743  0.00  0.00    +0.000 A 
ATOM      6  C   UNL     1       2.961   2.441  18.579  0.00  0.00    +0.000 A 
ATOM      7  C   UNL     1       1.673   2.855  18.187  0.00  0.00    +0.000 A 
ATOM      8  C   UNL     1       1.345   4.256  18.026  0.00  0.00    +0.000 A 
ATOM      9  C   UNL     1       2.352   5.240  18.287  0.00  0.00    +0.000 A 
ENDROOT
BRANCH   1  10
ATOM     10  C   UNL     1       1.636   7.853  17.750  0.00  0.00    +0.000 C 
BRANCH  10  14
ATOM     11  C   UNL     1       0.971  11.261  20.689  0.00  0.00    +0.000 A 
ATOM     12  C   UNL     1       1.159  11.456  19.321  0.00  0.00    +0.000 A 
ATOM     13  C   UNL     1       1.381  10.379  18.427  0.00  0.00    +0.000 A 
ATOM     14  C   UNL     1       1.422   9.033  18.852  0.00  0.00    +0.000 A 
ATOM     15  C   UNL     1       1.260   8.842  20.256  0.00  0.00    +0.000 A 
ATOM     16  C   UNL     1       1.042   9.928  21.156  0.00  0.00    +0.000 A 
BRANCH  11  18
ATOM     17  C   UNL     1       0.765  13.647  21.356  0.00  0.00    +0.000 C 
ATOM     18  O   UNL     1       0.695  12.281  21.571  0.00  0.00    +0.000 OA
ENDBRANCH  11  18
BRANCH  16  19
ATOM     19  O   UNL     1       0.913   9.655  22.508  0.00  0.00    +0.000 OA
ATOM     20  C   UNL     1      -0.233   9.500  23.321  0.00  0.00    +0.000 C 
ENDBRANCH  16  19
ENDBRANCH  10  14
ENDBRANCH   1  10
BRANCH   3  21
ATOM     21  C   UNL     1       5.517   5.605  17.483  0.00  0.00    +0.000 C 
BRANCH  21  22
ATOM     22  N   UNL     1       6.912   5.705  17.911  0.00  0.00    +0.000 N 
ATOM     23  C   UNL     1       7.551   6.970  17.485  0.00  0.00    +0.000 C 
ATOM     24  C   UNL     1       6.919   5.566  19.378  0.00  0.00    +0.000 C 
ATOM     25  C   UNL     1       7.638   4.583  17.275  0.00  0.00    +0.000 C 
ENDBRANCH  21  22
ENDBRANCH   3  21
TORSDOF 6
ENDMDL
MODEL 7
REMARK VINA RESULT:      -6.9      0.864      1.083
REMARK  Name = 
REMARK  11 active torsions:
REMARK  status: ('A' for Active; 'I' for Inactive)
REMARK    1  A    between atoms: C_1  and  O_2
REMARK    2  A    between atoms: O_2  and  C_3
REMARK    3  A    between atoms: C_6  and  C_7
REMARK    4  A    between atoms: C_7  and  N_8
REMARK    5  A    between atoms: C_10  and  C_11
REMARK    6  A    between atoms: C_11  and  N_12
REMARK    7  A    between atoms: N_12  and  C_13
REMARK    8  A    between atoms: N_12  and  C_14
REMARK    9  A    between atoms: N_12  and  C_15
REMARK   10  A    between atoms: C_23  and  O_24
REMARK   11  A    between atoms: O_24  and  C_25
REMARK                            x       y       z     vdW  Elec       q    Type
REMARK                         _______ _______ _______ _____ _____    ______ ____
ROOT
ATOM      1  N   UNL     1       2.771   6.602  18.320  0.00  0.00    +0.000 N 
ATOM      2  C   UNL     1       4.064   6.702  18.631  0.00  0.00    +0.000 A 
ATOM      3  C   UNL     1       4.662   5.488  18.663  0.00  0.00    +0.000 A 
ATOM      4  C   UNL     1       3.709   4.567  18.675  0.00  0.00    +0.000 A 
ATOM      5  C   UNL     1       3.910   3.191  18.796  0.00  0.00    +0.000 A 
ATOM      6  C   UNL     1       2.838   2.355  18.584  0.00  0.00    +0.000 A 
ATOM      7  C   UNL     1       1.611   2.910  18.172  0.00  0.00    +0.000 A 
ATOM      8  C   UNL     1       1.435   4.341  18.039  0.00  0.00    +0.000 A 
ATOM      9  C   UNL     1       2.532   5.209  18.349  0.00  0.00    +0.000 A 
ENDROOT
BRANCH   1  10
ATOM     10  C   UNL     1       2.106   7.893  17.862  0.00  0.00    +0.000 C 
BRANCH  10  14
ATOM     11  C   UNL     1       0.444  10.379  21.291  0.00  0.00    +0.000 A 
ATOM     12  C   UNL     1       0.879   9.063  21.441  0.00  0.00    +0.000 A 
ATOM     13  C   UNL     1       1.379   8.302  20.354  0.00  0.00    +0.000 A 
ATOM     14  C   UNL     1       1.477   8.821  19.044  0.00  0.00    +0.000 A 
ATOM     15  C   UNL     1       1.001  10.156  18.890  0.00  0.00    +0.000 A 
ATOM     16  C   UNL     1       0.494  10.918  19.985  0.00  0.00    +0.000 A 
BRANCH  11  18
ATOM     17  C   UNL     1      -1.134  11.012  23.104  0.00  0.00    +0.000 C 
ATOM     18  O   UNL     1       0.009  11.159  22.338  0.00  0.00    +0.000 OA
ENDBRANCH  11  18
BRANCH  16  19
ATOM     19  O   UNL     1       0.034  12.204  19.744  0.00  0.00    +0.000 OA
ATOM     20  C   UNL     1       0.306  13.106  18.691  0.00  0.00    +0.000 C 
ENDBRANCH  16  19
ENDBRANCH  10  14
ENDBRANCH   1  10
BRANCH   3  21
ATOM     21  C   UNL     1       5.738   5.258  17.631  0.00  0.00    +0.000 C 
BRANCH  21  22
ATOM     22  N   UNL     1       7.123   5.508  18.027  0.00  0.00    +0.000 N 
ATOM     23  C   UNL     1       7.290   5.609  19.494  0.00  0.00    +0.000 C 
ATOM     24  C   UNL     1       7.932   4.411  17.467  0.00  0.00    +0.000 C 
ATOM     25  C   UNL     1       7.513   6.804  17.429  0.00  0.00    +0.000 C 
ENDBRANCH  21  22
ENDBRANCH   3  21
TORSDOF 6
ENDMDL
MODEL 8
REMARK VINA RESULT:      -6.8      0.904      1.235
REMARK  Name = 
REMARK  11 active torsions:
REMARK  status: ('A' for Active; 'I' for Inactive)
REMARK    1  A    between atoms: C_1  and  O_2
REMARK    2  A    between atoms: O_2  and  C_3
REMARK    3  A    between atoms: C_6  and  C_7
REMARK    4  A    between atoms: C_7  and  N_8
REMARK    5  A    between atoms: C_10  and  C_11
REMARK    6  A    between atoms: C_11  and  N_12
REMARK    7  A    between atoms: N_12  and  C_13
REMARK    8  A    between atoms: N_12  and  C_14
REMARK    9  A    between atoms: N_12  and  C_15
REMARK   10  A    between atoms: C_23  and  O_24
REMARK   11  A    between atoms: O_24  and  C_25
REMARK                            x       y       z     vdW  Elec       q    Type
REMARK                         _______ _______ _______ _____ _____    ______ ____
ROOT
ATOM      1  N   UNL     1       2.896   6.927  18.353  0.00  0.00    +0.000 N 
ATOM      2  C   UNL     1       4.179   7.049  18.012  0.00  0.00    +0.000 A 
ATOM      3  C   UNL     1       4.841   5.874  18.137  0.00  0.00    +0.000 A 
ATOM      4  C   UNL     1       4.078   5.053  18.846  0.00  0.00    +0.000 A 
ATOM      5  C   UNL     1       4.438   3.774  19.272  0.00  0.00    +0.000 A 
ATOM      6  C   UNL     1       3.464   2.971  19.820  0.00  0.00    +0.000 A 
ATOM      7  C   UNL     1       2.135   3.437  19.850  0.00  0.00    +0.000 A 
ATOM      8  C   UNL     1       1.787   4.764  19.387  0.00  0.00    +0.000 A 
ATOM      9  C   UNL     1       2.824   5.625  18.902  0.00  0.00    +0.000 A 
ENDROOT
BRANCH   1  10
ATOM     10  C   UNL     1       1.983   8.047  17.876  0.00  0.00    +0.000 C 
BRANCH  10  14
ATOM     11  C   UNL     1       0.404  10.647  21.258  0.00  0.00    +0.000 A 
ATOM     12  C   UNL     1       0.868   9.346  21.447  0.00  0.00    +0.000 A 
ATOM     13  C   UNL     1       1.341   8.549  20.374  0.00  0.00    +0.000 A 
ATOM     14  C   UNL     1       1.381   9.013  19.040  0.00  0.00    +0.000 A 
ATOM     15  C   UNL     1       0.876  10.333  18.849  0.00  0.00    +0.000 A 
ATOM     16  C   UNL     1       0.396  11.132  19.930  0.00  0.00    +0.000 A 
BRANCH  11  18
ATOM     17  C   UNL     1      -1.218  11.464  22.956  0.00  0.00    +0.000 C 
ATOM     18  O   UNL     1      -0.005  11.464  22.287  0.00  0.00    +0.000 OA
ENDBRANCH  11  18
BRANCH  16  19
ATOM     19  O   UNL     1      -0.095  12.398  19.653  0.00  0.00    +0.000 OA
ATOM     20  C   UNL     1      -0.446  13.013  18.430  0.00  0.00    +0.000 C 
ENDBRANCH  16  19
ENDBRANCH  10  14
ENDBRANCH   1  10
BRANCH   3  21
ATOM     21  C   UNL     1       5.372   5.279  16.857  0.00  0.00    +0.000 C 
BRANCH  21  22
ATOM     22  N   UNL     1       6.817   5.328  16.634  0.00  0.00    +0.000 N 
ATOM     23  C   UNL     1       7.569   4.458  17.565  0.00  0.00    +0.000 C 
ATOM     24  C   UNL     1       7.045   4.941  15.231  0.00  0.00    +0.000 C 
ATOM     25  C   UNL     1       7.240   6.727  16.866  0.00  0.00    +0.000 C 
ENDBRANCH  21  22
ENDBRANCH   3  21
TORSDOF 6
ENDMDL
MODEL 9
REMARK VINA RESULT:      -6.8      1.419      3.587
REMARK  Name = 
REMARK  11 active torsions:
REMARK  status: ('A' for Active; 'I' for Inactive)
REMARK    1  A    between atoms: C_1  and  O_2
REMARK    2  A    between atoms: O_2  and  C_3
REMARK    3  A    between atoms: C_6  and  C_7
REMARK    4  A    between atoms: C_7  and  N_8
REMARK    5  A    between atoms: C_10  and  C_11
REMARK    6  A    between atoms: C_11  and  N_12
REMARK    7  A    between atoms: N_12  and  C_13
REMARK    8  A    between atoms: N_12  and  C_14
REMARK    9  A    between atoms: N_12  and  C_15
REMARK   10  A    between atoms: C_23  and  O_24
REMARK   11  A    between atoms: O_24  and  C_25
REMARK                            x       y       z     vdW  Elec       q    Type
REMARK                         _______ _______ _______ _____ _____    ______ ____
ROOT
ATOM      1  N   UNL     1       3.457   7.158  17.623  0.00  0.00    +0.000 N 
ATOM      2  C   UNL     1       2.668   6.149  17.993  0.00  0.00    +0.000 A 
ATOM      3  C   UNL     1       3.389   5.056  18.338  0.00  0.00    +0.000 A 
ATOM      4  C   UNL     1       4.631   5.237  17.910  0.00  0.00    +0.000 A 
ATOM      5  C   UNL     1       5.663   4.302  17.990  0.00  0.00    +0.000 A 
ATOM      6  C   UNL     1       6.941   4.714  17.690  0.00  0.00    +0.000 A 
ATOM      7  C   UNL     1       7.169   6.073  17.400  0.00  0.00    +0.000 A 
ATOM      8  C   UNL     1       6.080   7.026  17.339  0.00  0.00    +0.000 A 
ATOM      9  C   UNL     1       4.741   6.568  17.565  0.00  0.00    +0.000 A 
ENDROOT
BRANCH   1  10
ATOM     10  C   UNL     1       2.799   8.531  17.607  0.00  0.00    +0.000 C 
BRANCH  10  14
ATOM     11  C   UNL     1      -0.044   9.270  21.080  0.00  0.00    +0.000 A 
ATOM     12  C   UNL     1       0.997   8.343  21.128  0.00  0.00    +0.000 A 
ATOM     13  C   UNL     1       1.860   8.119  20.026  0.00  0.00    +0.000 A 
ATOM     14  C   UNL     1       1.735   8.818  18.805  0.00  0.00    +0.000 A 
ATOM     15  C   UNL     1       0.649   9.741  18.752  0.00  0.00    +0.000 A 
ATOM     16  C   UNL     1      -0.222   9.962  19.861  0.00  0.00    +0.000 A 
BRANCH  11  18
ATOM     17  C   UNL     1      -0.621  10.404  23.216  0.00  0.00    +0.000 C 
ATOM     18  O   UNL     1      -0.860   9.550  22.152  0.00  0.00    +0.000 OA
ENDBRANCH  11  18
BRANCH  16  19
ATOM     19  O   UNL     1      -1.264  10.865  19.718  0.00  0.00    +0.000 OA
ATOM     20  C   UNL     1      -1.264  12.272  19.592  0.00  0.00    +0.000 C 
ENDBRANCH  16  19
ENDBRANCH  10  14
ENDBRANCH   1  10
BRANCH   3  21
ATOM     21  C   UNL     1       3.285   4.629  19.781  0.00  0.00    +0.000 C 
BRANCH  21  22
ATOM     22  N   UNL     1       2.425   3.489  20.092  0.00  0.00    +0.000 N 
ATOM     23  C   UNL     1       2.998   2.606  21.131  0.00  0.00    +0.000 C 
ATOM     24  C   UNL     1       1.122   4.037  20.509  0.00  0.00    +0.000 C 
ATOM     25  C   UNL     1       2.286   2.703  18.845  0.00  0.00    +0.000 C 
ENDBRANCH  21  22
ENDBRANCH   3  21
TORSDOF 6
ENDMDL
