MODEL 1
REMARK VINA RESULT:      -8.0      0.000      0.000
REMARK  Name = 
REMARK  4 active torsions:
REMARK  status: ('A' for Active; 'I' for Inactive)
REMARK    1  A    between atoms: C_1  and  C_2
REMARK    2  A    between atoms: C_2  and  C_3
REMARK    3  A    between atoms: C_2  and  N_14
REMARK    4  A    between atoms: N_5  and  C_6
REMARK                            x       y       z     vdW  Elec       q    Type
REMARK                         _______ _______ _______ _____ _____    ______ ____
ROOT
ATOM      1  C   UNL     1       7.424   5.554  19.478  0.00  0.00    +0.000 C 
ATOM      2  C   UNL     1       6.359   5.615  18.379  0.00  0.00    +0.000 C 
ENDROOT
BRANCH   2   3
ATOM      3  N   UNL     1       5.116   4.951  18.773  0.00  0.00    +0.000 N 
ATOM      4  C   UNL     1       5.076   3.686  19.493  0.00  0.00    +0.000 C 
ATOM      5  C   UNL     1       3.612   3.465  19.677  0.00  0.00    +0.000 A 
ATOM      6  C   UNL     1       2.956   2.463  20.370  0.00  0.00    +0.000 A 
ATOM      7  C   UNL     1       1.559   2.503  20.419  0.00  0.00    +0.000 A 
ATOM      8  C   UNL     1       0.842   3.530  19.777  0.00  0.00    +0.000 A 
ATOM      9  C   UNL     1       1.511   4.536  19.073  0.00  0.00    +0.000 A 
ATOM     10  C   UNL     1       2.892   4.476  19.041  0.00  0.00    +0.000 A 
ATOM     11  C   UNL     1       3.855   5.393  18.413  0.00  0.00    +0.000 C 
ATOM     12  O   UNL     1       3.591   6.338  17.692  0.00  0.00    +0.000 OA
ENDBRANCH   2   3
BRANCH   2  13
ATOM     13  C   UNL     1       6.934   5.030  17.071  0.00  0.00    +0.000 C 
ATOM     14  O   UNL     1       7.990   4.395  17.086  0.00  0.00    +0.000 OA
ATOM     15  N   UNL     1       6.242   5.381  15.918  0.00  0.00    +0.000 N 
ATOM     16  H   UNL     1       5.502   6.074  16.023  0.00  0.00    +0.000 HD
BRANCH  15  17
ATOM     17  C   UNL     1       6.600   4.979  14.607  0.00  0.00    +0.000 A 
ATOM     18  C   UNL     1       7.682   5.543  13.917  0.00  0.00    +0.000 A 
ATOM     19  C   UNL     1       7.986   5.163  12.609  0.00  0.00    +0.000 A 
ATOM     20  C   UNL     1       7.211   4.199  11.982  0.00  0.00    +0.000 A 
ATOM     21  F   UNL     1       7.505   3.861  10.719  0.00  0.00    +0.000 F 
ATOM     22  C   UNL     1       6.147   3.605  12.659  0.00  0.00    +0.000 A 
ATOM     23 CL   UNL     1       5.184   2.411  11.873  0.00  0.00    +0.000 Cl
ATOM     24  C   UNL     1       5.846   3.982  13.975  0.00  0.00    +0.000 A 
ENDBRANCH  15  17
ENDBRANCH   2  13
TORSDOF 3
ENDMDL
MODEL 2
REMARK VINA RESULT:      -7.8      1.300      1.546
REMARK  Name = 
REMARK  4 active torsions:
REMARK  status: ('A' for Active; 'I' for Inactive)
REMARK    1  A    between atoms: C_1  and  C_2
REMARK    2  A    between atoms: C_2  and  C_3
REMARK    3  A    between atoms: C_2  and  N_14
REMARK    4  A    between atoms: N_5  and  C_6
REMARK                            x       y       z     vdW  Elec       q    Type
REMARK                         _______ _______ _______ _____ _____    ______ ____
ROOT
ATOM      1  C   UNL     1       7.023   5.285  18.695  0.00  0.00    +0.000 C 
ATOM      2  C   UNL     1       5.749   5.898  18.104  0.00  0.00    +0.000 C 
ENDROOT
BRANCH   2   3
ATOM      3  N   UNL     1       4.542   5.193  18.535  0.00  0.00    +0.000 N 
ATOM      4  C   UNL     1       3.739   5.604  19.679  0.00  0.00    +0.000 C 
ATOM      5  C   UNL     1       2.632   4.604  19.672  0.00  0.00    +0.000 A 
ATOM      6  C   UNL     1       1.509   4.533  20.477  0.00  0.00    +0.000 A 
ATOM      7  C   UNL     1       0.595   3.501  20.241  0.00  0.00    +0.000 A 
ATOM      8  C   UNL     1       0.815   2.560  19.217  0.00  0.00    +0.000 A 
ATOM      9  C   UNL     1       1.956   2.634  18.413  0.00  0.00    +0.000 A 
ATOM     10  C   UNL     1       2.843   3.663  18.664  0.00  0.00    +0.000 A 
ATOM     11  C   UNL     1       4.096   4.009  17.976  0.00  0.00    +0.000 C 
ATOM     12  O   UNL     1       4.647   3.360  17.106  0.00  0.00    +0.000 OA
ENDBRANCH   2   3
BRANCH   2  13
ATOM     13  C   UNL     1       5.868   5.948  16.565  0.00  0.00    +0.000 C 
ATOM     14  O   UNL     1       5.204   6.758  15.917  0.00  0.00    +0.000 OA
ATOM     15  N   UNL     1       6.663   4.953  16.007  0.00  0.00    +0.000 N 
ATOM     16  H   UNL     1       6.993   4.226  16.638  0.00  0.00    +0.000 HD
BRANCH  15  17
ATOM     17  C   UNL     1       6.896   4.791  14.619  0.00  0.00    +0.000 A 
ATOM     18  C   UNL     1       7.829   5.566  13.916  0.00  0.00    +0.000 A 
ATOM     19  C   UNL     1       8.006   5.419  12.540  0.00  0.00    +0.000 A 
ATOM     20  C   UNL     1       7.254   4.478  11.854  0.00  0.00    +0.000 A 
ATOM     21  F   UNL     1       7.423   4.364  10.529  0.00  0.00    +0.000 F 
ATOM     22  C   UNL     1       6.340   3.677  12.535  0.00  0.00    +0.000 A 
ATOM     23 CL   UNL     1       5.404   2.512  11.676  0.00  0.00    +0.000 Cl
ATOM     24  C   UNL     1       6.166   3.821  13.919  0.00  0.00    +0.000 A 
ENDBRANCH  15  17
ENDBRANCH   2  13
TORSDOF 3
ENDMDL
MODEL 3
REMARK VINA RESULT:      -7.3      4.921      7.639
REMARK  Name = 
REMARK  4 active torsions:
REMARK  status: ('A' for Active; 'I' for Inactive)
REMARK    1  A    between atoms: C_1  and  C_2
REMARK    2  A    between atoms: C_2  and  C_3
REMARK    3  A    between atoms: C_2  and  N_14
REMARK    4  A    between atoms: N_5  and  C_6
REMARK                            x       y       z     vdW  Elec       q    Type
REMARK                         _______ _______ _______ _____ _____    ______ ____
ROOT
ATOM      1  C   UNL     1       3.304   2.880  20.822  0.00  0.00    +0.000 C 
ATOM      2  C   UNL     1       2.738   3.526  19.553  0.00  0.00    +0.000 C 
ENDROOT
BRANCH   2   3
ATOM      3  N   UNL     1       3.777   3.811  18.563  0.00  0.00    +0.000 N 
ATOM      4  C   UNL     1       5.111   4.279  18.914  0.00  0.00    +0.000 C 
ATOM      5  C   UNL     1       5.778   4.382  17.584  0.00  0.00    +0.000 A 
ATOM      6  C   UNL     1       7.091   4.697  17.281  0.00  0.00    +0.000 A 
ATOM      7  C   UNL     1       7.476   4.692  15.937  0.00  0.00    +0.000 A 
ATOM      8  C   UNL     1       6.552   4.380  14.921  0.00  0.00    +0.000 A 
ATOM      9  C   UNL     1       5.226   4.069  15.233  0.00  0.00    +0.000 A 
ATOM     10  C   UNL     1       4.869   4.079  16.568  0.00  0.00    +0.000 A 
ATOM     11  C   UNL     1       3.575   3.771  17.196  0.00  0.00    +0.000 C 
ATOM     12  O   UNL     1       2.525   3.555  16.619  0.00  0.00    +0.000 OA
ENDBRANCH   2   3
BRANCH   2  13
ATOM     13  C   UNL     1       1.941   4.793  19.931  0.00  0.00    +0.000 C 
ATOM     14  O   UNL     1       0.833   4.695  20.461  0.00  0.00    +0.000 OA
ATOM     15  N   UNL     1       2.514   5.990  19.519  0.00  0.00    +0.000 N 
ATOM     16  H   UNL     1       3.332   5.920  18.915  0.00  0.00    +0.000 HD
BRANCH  15  17
ATOM     17  C   UNL     1       1.951   7.272  19.735  0.00  0.00    +0.000 A 
ATOM     18  C   UNL     1       1.811   8.217  18.709  0.00  0.00    +0.000 A 
ATOM     19  C   UNL     1       1.296   9.489  18.959  0.00  0.00    +0.000 A 
ATOM     20  C   UNL     1       0.901   9.823  20.245  0.00  0.00    +0.000 A 
ATOM     21  F   UNL     1       0.426  11.057  20.470  0.00  0.00    +0.000 F 
ATOM     22  C   UNL     1       1.004   8.892  21.276  0.00  0.00    +0.000 A 
ATOM     23 CL   UNL     1       0.516   9.315  22.873  0.00  0.00    +0.000 Cl
ATOM     24  C   UNL     1       1.516   7.611  21.024  0.00  0.00    +0.000 A 
ENDBRANCH  15  17
ENDBRANCH   2  13
TORSDOF 3
ENDMDL
MODEL 4
REMARK VINA RESULT:      -7.3      4.658      7.590
REMARK  Name = 
REMARK  4 active torsions:
REMARK  status: ('A' for Active; 'I' for Inactive)
REMARK    1  A    between atoms: C_1  and  C_2
REMARK    2  A    between atoms: C_2  and  C_3
REMARK    3  A    between atoms: C_2  and  N_14
REMARK    4  A    between atoms: N_5  and  C_6
REMARK                            x       y       z     vdW  Elec       q    Type
REMARK                         _______ _______ _______ _____ _____    ______ ____
ROOT
ATOM      1  C   UNL     1       3.143   2.827  21.084  0.00  0.00    +0.000 C 
ATOM      2  C   UNL     1       2.601   3.430  19.783  0.00  0.00    +0.000 C 
ENDROOT
BRANCH   2   3
ATOM      3  N   UNL     1       3.664   3.729  18.824  0.00  0.00    +0.000 N 
ATOM      4  C   UNL     1       4.985   4.203  19.214  0.00  0.00    +0.000 C 
ATOM      5  C   UNL     1       5.686   4.321  17.902  0.00  0.00    +0.000 A 
ATOM      6  C   UNL     1       7.005   4.646  17.638  0.00  0.00    +0.000 A 
ATOM      7  C   UNL     1       7.425   4.655  16.304  0.00  0.00    +0.000 A 
ATOM      8  C   UNL     1       6.531   4.346  15.262  0.00  0.00    +0.000 A 
ATOM      9  C   UNL     1       5.198   4.025  15.536  0.00  0.00    +0.000 A 
ATOM     10  C   UNL     1       4.806   4.021  16.861  0.00  0.00    +0.000 A 
ATOM     11  C   UNL     1       3.498   3.700  17.451  0.00  0.00    +0.000 C 
ATOM     12  O   UNL     1       2.465   3.484  16.845  0.00  0.00    +0.000 OA
ENDBRANCH   2   3
BRANCH   2  13
ATOM     13  C   UNL     1       1.752   4.677  20.109  0.00  0.00    +0.000 C 
ATOM     14  O   UNL     1       0.549   4.564  20.354  0.00  0.00    +0.000 OA
ATOM     15  N   UNL     1       2.419   5.890  19.980  0.00  0.00    +0.000 N 
ATOM     16  H   UNL     1       3.354   5.855  19.577  0.00  0.00    +0.000 HD
BRANCH  15  17
ATOM     17  C   UNL     1       1.835   7.161  20.205  0.00  0.00    +0.000 A 
ATOM     18  C   UNL     1       1.161   7.481  21.392  0.00  0.00    +0.000 A 
ATOM     19  C   UNL     1       0.554   8.724  21.570  0.00  0.00    +0.000 A 
ATOM     20  C   UNL     1       0.628   9.669  20.559  0.00  0.00    +0.000 A 
ATOM     21  F   UNL     1       0.021  10.851  20.739  0.00  0.00    +0.000 F 
ATOM     22  C   UNL     1       1.315   9.384  19.380  0.00  0.00    +0.000 A 
ATOM     23 CL   UNL     1       1.400  10.561  18.124  0.00  0.00    +0.000 Cl
ATOM     24  C   UNL     1       1.931   8.136  19.204  0.00  0.00    +0.000 A 
ENDBRANCH  15  17
ENDBRANCH   2  13
TORSDOF 3
ENDMDL
MODEL 5
REMARK VINA RESULT:      -7.1      4.434      7.572
REMARK  Name = 
REMARK  4 active torsions:
REMARK  status: ('A' for Active; 'I' for Inactive)
REMARK    1  A    between atoms: C_1  and  C_2
REMARK    2  A    between atoms: C_2  and  C_3
REMARK    3  A    between atoms: C_2  and  N_14
REMARK    4  A    between atoms: N_5  and  C_6
REMARK                            x       y       z     vdW  Elec       q    Type
REMARK                         _______ _______ _______ _____ _____    ______ ____
ROOT
ATOM      1  C   UNL     1       6.756   4.969  18.665  0.00  0.00    +0.000 C 
ATOM      2  C   UNL     1       5.546   4.984  17.725  0.00  0.00    +0.000 C 
ENDROOT
BRANCH   2   3
ATOM      3  N   UNL     1       5.923   4.746  16.331  0.00  0.00    +0.000 N 
ATOM      4  C   UNL     1       5.346   3.686  15.515  0.00  0.00    +0.000 C 
ATOM      5  C   UNL     1       6.023   3.887  14.200  0.00  0.00    +0.000 A 
ATOM      6  C   UNL     1       5.819   3.231  12.999  0.00  0.00    +0.000 A 
ATOM      7  C   UNL     1       6.571   3.637  11.892  0.00  0.00    +0.000 A 
ATOM      8  C   UNL     1       7.510   4.680  11.999  0.00  0.00    +0.000 A 
ATOM      9  C   UNL     1       7.715   5.334  13.218  0.00  0.00    +0.000 A 
ATOM     10  C   UNL     1       6.960   4.916  14.297  0.00  0.00    +0.000 A 
ATOM     11  C   UNL     1       6.935   5.424  15.677  0.00  0.00    +0.000 C 
ATOM     12  O   UNL     1       7.683   6.257  16.154  0.00  0.00    +0.000 OA
ENDBRANCH   2   3
BRANCH   2  13
ATOM     13  C   UNL     1       4.779   6.312  17.894  0.00  0.00    +0.000 C 
ATOM     14  O   UNL     1       5.338   7.387  17.667  0.00  0.00    +0.000 OA
ATOM     15  N   UNL     1       3.499   6.187  18.424  0.00  0.00    +0.000 N 
ATOM     16  H   UNL     1       3.232   5.261  18.756  0.00  0.00    +0.000 HD
BRANCH  15  17
ATOM     17  C   UNL     1       2.624   7.269  18.687  0.00  0.00    +0.000 A 
ATOM     18  C   UNL     1       2.223   8.172  17.693  0.00  0.00    +0.000 A 
ATOM     19  C   UNL     1       1.398   9.258  17.987  0.00  0.00    +0.000 A 
ATOM     20  C   UNL     1       0.954   9.442  19.288  0.00  0.00    +0.000 A 
ATOM     21  F   UNL     1       0.178  10.501  19.557  0.00  0.00    +0.000 F 
ATOM     22  C   UNL     1       1.317   8.542  20.288  0.00  0.00    +0.000 A 
ATOM     23 CL   UNL     1       0.766   8.779  21.904  0.00  0.00    +0.000 Cl
ATOM     24  C   UNL     1       2.141   7.447  19.990  0.00  0.00    +0.000 A 
ENDBRANCH  15  17
ENDBRANCH   2  13
TORSDOF 3
ENDMDL
MODEL 6
REMARK VINA RESULT:      -7.0      5.869      7.501
REMARK  Name = 
REMARK  4 active torsions:
REMARK  status: ('A' for Active; 'I' for Inactive)
REMARK    1  A    between atoms: C_1  and  C_2
REMARK    2  A    between atoms: C_2  and  C_3
REMARK    3  A    between atoms: C_2  and  N_14
REMARK    4  A    between atoms: N_5  and  C_6
REMARK                            x       y       z     vdW  Elec       q    Type
REMARK                         _______ _______ _______ _____ _____    ______ ____
ROOT
ATOM      1  C   UNL     1       0.853   8.985  20.819  0.00  0.00    +0.000 C 
ATOM      2  C   UNL     1       1.014   9.744  19.497  0.00  0.00    +0.000 C 
ENDROOT
BRANCH   2   3
ATOM      3  N   UNL     1      -0.272  10.135  18.920  0.00  0.00    +0.000 N 
ATOM      4  C   UNL     1      -0.784   9.600  17.666  0.00  0.00    +0.000 C 
ATOM      5  C   UNL     1      -2.109  10.275  17.544  0.00  0.00    +0.000 A 
ATOM      6  C   UNL     1      -3.099  10.101  16.594  0.00  0.00    +0.000 A 
ATOM      7  C   UNL     1      -4.277  10.843  16.727  0.00  0.00    +0.000 A 
ATOM      8  C   UNL     1      -4.447  11.744  17.795  0.00  0.00    +0.000 A 
ATOM      9  C   UNL     1      -3.440  11.921  18.747  0.00  0.00    +0.000 A 
ATOM     10  C   UNL     1      -2.286  11.175  18.596  0.00  0.00    +0.000 A 
ATOM     11  C   UNL     1      -1.084  11.126  19.442  0.00  0.00    +0.000 C 
ATOM     12  O   UNL     1      -0.841  11.842  20.396  0.00  0.00    +0.000 OA
ENDBRANCH   2   3
BRANCH   2  13
ATOM     13  C   UNL     1       1.851   8.895  18.515  0.00  0.00    +0.000 C 
ATOM     14  O   UNL     1       2.080   9.308  17.377  0.00  0.00    +0.000 OA
ATOM     15  N   UNL     1       2.193   7.630  18.979  0.00  0.00    +0.000 N 
ATOM     16  H   UNL     1       1.772   7.338  19.859  0.00  0.00    +0.000 HD
BRANCH  15  17
ATOM     17  C   UNL     1       2.936   6.674  18.243  0.00  0.00    +0.000 A 
ATOM     18  C   UNL     1       4.078   7.014  17.505  0.00  0.00    +0.000 A 
ATOM     19  C   UNL     1       4.765   6.062  16.751  0.00  0.00    +0.000 A 
ATOM     20  C   UNL     1       4.317   4.750  16.739  0.00  0.00    +0.000 A 
ATOM     21  F   UNL     1       4.977   3.853  15.993  0.00  0.00    +0.000 F 
ATOM     22  C   UNL     1       3.200   4.383  17.487  0.00  0.00    +0.000 A 
ATOM     23 CL   UNL     1       2.644   2.751  17.465  0.00  0.00    +0.000 Cl
ATOM     24  C   UNL     1       2.513   5.338  18.250  0.00  0.00    +0.000 A 
ENDBRANCH  15  17
ENDBRANCH   2  13
TORSDOF 3
ENDMDL
MODEL 7
REMARK VINA RESULT:      -7.0      2.595      3.622
REMARK  Name = 
REMARK  4 active torsions:
REMARK  status: ('A' for Active; 'I' for Inactive)
REMARK    1  A    between atoms: C_1  and  C_2
REMARK    2  A    between atoms: C_2  and  C_3
REMARK    3  A    between atoms: C_2  and  N_14
REMARK    4  A    between atoms: N_5  and  C_6
REMARK                            x       y       z     vdW  Elec       q    Type
REMARK                         _______ _______ _______ _____ _____    ______ ____
ROOT
ATOM      1  C   UNL     1       2.255   3.177  17.932  0.00  0.00    +0.000 C 
ATOM      2  C   UNL     1       3.308   4.047  18.627  0.00  0.00    +0.000 C 
ENDROOT
BRANCH   2   3
ATOM      3  N   UNL     1       2.792   5.370  18.978  0.00  0.00    +0.000 N 
ATOM      4  C   UNL     1       2.842   6.515  18.078  0.00  0.00    +0.000 C 
ATOM      5  C   UNL     1       2.174   7.583  18.877  0.00  0.00    +0.000 A 
ATOM      6  C   UNL     1       1.850   8.878  18.513  0.00  0.00    +0.000 A 
ATOM      7  C   UNL     1       1.188   9.678  19.450  0.00  0.00    +0.000 A 
ATOM      8  C   UNL     1       0.866   9.181  20.727  0.00  0.00    +0.000 A 
ATOM      9  C   UNL     1       1.203   7.874  21.090  0.00  0.00    +0.000 A 
ATOM     10  C   UNL     1       1.855   7.102  20.148  0.00  0.00    +0.000 A 
ATOM     11  C   UNL     1       2.304   5.704  20.229  0.00  0.00    +0.000 C 
ATOM     12  O   UNL     1       2.279   4.993  21.216  0.00  0.00    +0.000 OA
ENDBRANCH   2   3
BRANCH   2  13
ATOM     13  C   UNL     1       4.568   4.137  17.740  0.00  0.00    +0.000 C 
ATOM     14  O   UNL     1       5.687   4.185  18.253  0.00  0.00    +0.000 OA
ATOM     15  N   UNL     1       4.318   4.281  16.380  0.00  0.00    +0.000 N 
ATOM     16  H   UNL     1       3.347   4.428  16.108  0.00  0.00    +0.000 HD
BRANCH  15  17
ATOM     17  C   UNL     1       5.318   4.405  15.384  0.00  0.00    +0.000 A 
ATOM     18  C   UNL     1       6.389   5.302  15.500  0.00  0.00    +0.000 A 
ATOM     19  C   UNL     1       7.335   5.439  14.484  0.00  0.00    +0.000 A 
ATOM     20  C   UNL     1       7.222   4.664  13.340  0.00  0.00    +0.000 A 
ATOM     21  F   UNL     1       8.128   4.823  12.365  0.00  0.00    +0.000 F 
ATOM     22  C   UNL     1       6.181   3.746  13.213  0.00  0.00    +0.000 A 
ATOM     23 CL   UNL     1       6.043   2.789  11.787  0.00  0.00    +0.000 Cl
ATOM     24  C   UNL     1       5.234   3.604  14.238  0.00  0.00    +0.000 A 
ENDBRANCH  15  17
ENDBRANCH   2  13
TORSDOF 3
ENDMDL
MODEL 8
REMARK VINA RESULT:      -6.9      5.808      7.530
REMARK  Name = 
REMARK  4 active torsions:
REMARK  status: ('A' for Active; 'I' for Inactive)
REMARK    1  A    between atoms: C_1  and  C_2
REMARK    2  A    between atoms: C_2  and  C_3
REMARK    3  A    between atoms: C_2  and  N_14
REMARK    4  A    between atoms: N_5  and  C_6
REMARK                            x       y       z     vdW  Elec       q    Type
REMARK                         _______ _______ _______ _____ _____    ______ ____
ROOT
ATOM      1  C   UNL     1       0.913   8.958  20.812  0.00  0.00    +0.000 C 
ATOM      2  C   UNL     1       1.083   9.660  19.460  0.00  0.00    +0.000 C 
ENDROOT
BRANCH   2   3
ATOM      3  N   UNL     1      -0.197  10.066  18.880  0.00  0.00    +0.000 N 
ATOM      4  C   UNL     1      -0.685   9.582  17.596  0.00  0.00    +0.000 C 
ATOM      5  C   UNL     1      -2.013  10.251  17.481  0.00  0.00    +0.000 A 
ATOM      6  C   UNL     1      -2.986  10.110  16.508  0.00  0.00    +0.000 A 
ATOM      7  C   UNL     1      -4.173  10.836  16.654  0.00  0.00    +0.000 A 
ATOM      8  C   UNL     1      -4.368  11.689  17.756  0.00  0.00    +0.000 A 
ATOM      9  C   UNL     1      -3.377  11.832  18.732  0.00  0.00    +0.000 A 
ATOM     10  C   UNL     1      -2.215  11.103  18.568  0.00  0.00    +0.000 A 
ATOM     11  C   UNL     1      -1.026  11.027  19.431  0.00  0.00    +0.000 C 
ATOM     12  O   UNL     1      -0.805  11.703  20.418  0.00  0.00    +0.000 OA
ENDBRANCH   2   3
BRANCH   2  13
ATOM     13  C   UNL     1       1.885   8.751  18.505  0.00  0.00    +0.000 C 
ATOM     14  O   UNL     1       2.169   9.138  17.370  0.00  0.00    +0.000 OA
ATOM     15  N   UNL     1       2.132   7.469  18.985  0.00  0.00    +0.000 N 
ATOM     16  H   UNL     1       1.670   7.212  19.856  0.00  0.00    +0.000 HD
BRANCH  15  17
ATOM     17  C   UNL     1       2.827   6.460  18.274  0.00  0.00    +0.000 A 
ATOM     18  C   UNL     1       2.293   5.181  18.067  0.00  0.00    +0.000 A 
ATOM     19  C   UNL     1       3.018   4.190  17.404  0.00  0.00    +0.000 A 
ATOM     20  C   UNL     1       4.287   4.479  16.927  0.00  0.00    +0.000 A 
ATOM     21  F   UNL     1       4.977   3.510  16.309  0.00  0.00    +0.000 F 
ATOM     22  C   UNL     1       4.828   5.753  17.096  0.00  0.00    +0.000 A 
ATOM     23 CL   UNL     1       6.408   6.105  16.505  0.00  0.00    +0.000 Cl
ATOM     24  C   UNL     1       4.097   6.750  17.757  0.00  0.00    +0.000 A 
ENDBRANCH  15  17
ENDBRANCH   2  13
TORSDOF 3
ENDMDL
MODEL 9
REMARK VINA RESULT:      -6.9      4.519      7.501
REMARK  Name = 
REMARK  4 active torsions:
REMARK  status: ('A' for Active; 'I' for Inactive)
REMARK    1  A    between atoms: C_1  and  C_2
REMARK    2  A    between atoms: C_2  and  C_3
REMARK    3  A    between atoms: C_2  and  N_14
REMARK    4  A    between atoms: N_5  and  C_6
REMARK                            x       y       z     vdW  Elec       q    Type
REMARK                         _______ _______ _______ _____ _____    ______ ____
ROOT
ATOM      1  C   UNL     1       3.503   2.646  20.506  0.00  0.00    +0.000 C 
ATOM      2  C   UNL     1       2.887   3.321  19.276  0.00  0.00    +0.000 C 
ENDROOT
BRANCH   2   3
ATOM      3  N   UNL     1       3.893   3.679  18.275  0.00  0.00    +0.000 N 
ATOM      4  C   UNL     1       3.701   3.492  16.844  0.00  0.00    +0.000 C 
ATOM      5  C   UNL     1       4.971   4.030  16.275  0.00  0.00    +0.000 A 
ATOM      6  C   UNL     1       5.338   4.198  14.952  0.00  0.00    +0.000 A 
ATOM      7  C   UNL     1       6.589   4.763  14.683  0.00  0.00    +0.000 A 
ATOM      8  C   UNL     1       7.450   5.145  15.729  0.00  0.00    +0.000 A 
ATOM      9  C   UNL     1       7.075   4.966  17.063  0.00  0.00    +0.000 A 
ATOM     10  C   UNL     1       5.834   4.407  17.304  0.00  0.00    +0.000 A 
ATOM     11  C   UNL     1       5.164   4.127  18.584  0.00  0.00    +0.000 C 
ATOM     12  O   UNL     1       5.651   4.238  19.694  0.00  0.00    +0.000 OA
ENDBRANCH   2   3
BRANCH   2  13
ATOM     13  C   UNL     1       2.059   4.546  19.722  0.00  0.00    +0.000 C 
ATOM     14  O   UNL     1       0.902   4.402  20.120  0.00  0.00    +0.000 OA
ATOM     15  N   UNL     1       2.676   5.775  19.519  0.00  0.00    +0.000 N 
ATOM     16  H   UNL     1       3.551   5.766  18.998  0.00  0.00    +0.000 HD
BRANCH  15  17
ATOM     17  C   UNL     1       2.097   7.030  19.831  0.00  0.00    +0.000 A 
ATOM     18  C   UNL     1       1.529   7.307  21.082  0.00  0.00    +0.000 A 
ATOM     19  C   UNL     1       0.923   8.536  21.348  0.00  0.00    +0.000 A 
ATOM     20  C   UNL     1       0.892   9.508  20.361  0.00  0.00    +0.000 A 
ATOM     21  F   UNL     1       0.289  10.675  20.627  0.00  0.00    +0.000 F 
ATOM     22  C   UNL     1       1.475   9.266  19.118  0.00  0.00    +0.000 A 
ATOM     23 CL   UNL     1       1.429  10.476  17.892  0.00  0.00    +0.000 Cl
ATOM     24  C   UNL     1       2.089   8.033  18.852  0.00  0.00    +0.000 A 
ENDBRANCH  15  17
ENDBRANCH   2  13
TORSDOF 3
ENDMDL
