MODEL 1
REMARK VINA RESULT:      -7.1      0.000      0.000
REMARK  Name = 
REMARK  7 active torsions:
REMARK  status: ('A' for Active; 'I' for Inactive)
REMARK    1  A    between atoms: C_1  and  C_2
REMARK    2  A    between atoms: C_2  and  C_3
REMARK    3  A    between atoms: C_8  and  C_9
REMARK    4  A    between atoms: C_12  and  N_13
REMARK    5  A    between atoms: C_15  and  C_16
REMARK    6  A    between atoms: C_25  and  C_26
REMARK    7  A    between atoms: C_25  and  C_27
REMARK                            x       y       z     vdW  Elec       q    Type
REMARK                         _______ _______ _______ _____ _____    ______ ____
ROOT
ATOM      1  C   UNL     1       6.934  11.939  23.557  0.00  0.00    +0.000 C 
ATOM      2  C   UNL     1       7.622  12.960  24.477  0.00  0.00    +0.000 C 
ATOM      3  C   UNL     1       8.615  12.201  25.370  0.00  0.00    +0.000 C 
ATOM      4  C   UNL     1       8.400  14.049  23.686  0.00  0.00    +0.000 C 
ATOM      5  N   UNL     1       7.483  15.001  23.046  0.00  0.00    +0.000 N 
ATOM      6  C   UNL     1       7.301  14.926  21.685  0.00  0.00    +0.000 A 
ATOM      7  N   UNL     1       8.323  14.500  20.961  0.00  0.00    +0.000 NA
ATOM      8  C   UNL     1       8.145  14.469  19.651  0.00  0.00    +0.000 A 
ATOM      9  N   UNL     1       7.023  14.809  19.034  0.00  0.00    +0.000 NA
ATOM     10  C   UNL     1       6.038  15.233  19.816  0.00  0.00    +0.000 A 
ATOM     11  N   UNL     1       4.853  15.585  19.228  0.00  0.00    +0.000 N 
ATOM     12  C   UNL     1       4.626  15.472  17.789  0.00  0.00    +0.000 C 
ATOM     13  C   UNL     1       3.361  14.641  17.531  0.00  0.00    +0.000 C 
ATOM     14  O   UNL     1       2.226  15.121  18.270  0.00  0.00    +0.000 OA
ATOM     15  C   UNL     1       2.460  15.207  19.696  0.00  0.00    +0.000 C 
ATOM     16  C   UNL     1       2.571  13.804  20.313  0.00  0.00    +0.000 C 
ATOM     17  C   UNL     1       1.223  15.901  20.282  0.00  0.00    +0.000 C 
ATOM     18  C   UNL     1       3.715  16.067  20.004  0.00  0.00    +0.000 C 
ATOM     19  N   UNL     1       6.153  15.311  21.140  0.00  0.00    +0.000 NA
ATOM     20  C   UNL     1       6.454  15.553  23.923  0.00  0.00    +0.000 C 
ATOM     21  C   UNL     1       5.738  14.441  24.700  0.00  0.00    +0.000 C 
ATOM     22  O   UNL     1       6.656  13.560  25.369  0.00  0.00    +0.000 OA
ENDROOT
BRANCH   8  23
ATOM     23  C   UNL     1       9.265  13.986  18.838  0.00  0.00    +0.000 A 
ATOM     24  C   UNL     1       9.871  14.847  17.920  0.00  0.00    +0.000 A 
ATOM     25  N   UNL     1      10.868  14.513  17.067  0.00  0.00    +0.000 NA
ATOM     26  C   UNL     1      11.311  13.253  17.106  0.00  0.00    +0.000 A 
ATOM     27  C   UNL     1      10.814  12.319  18.001  0.00  0.00    +0.000 A 
ATOM     28  C   UNL     1       9.784  12.676  18.887  0.00  0.00    +0.000 A 
BRANCH  26  29
ATOM     29  N   UNL     1      12.333  12.918  16.227  0.00  0.00    +0.000 N 
ATOM     30  H   UNL     1      12.617  13.776  15.762  0.00  0.00    +0.000 HD
ATOM     31  H   UNL     1      12.044  12.208  15.563  0.00  0.00    +0.000 HD
ENDBRANCH  26  29
BRANCH  28  32
ATOM     32  C   UNL     1       9.263  11.622  19.834  0.00  0.00    +0.000 C 
ATOM     33  F   UNL     1       9.448  10.360  19.355  0.00  0.00    +0.000 F 
ATOM     34  F   UNL     1       9.914  11.642  21.037  0.00  0.00    +0.000 F 
ENDBRANCH  28  32
ENDBRANCH   8  23
TORSDOF 3
ENDMDL
MODEL 2
REMARK VINA RESULT:      -7.1      3.008      7.135
REMARK  Name = 
REMARK  7 active torsions:
REMARK  status: ('A' for Active; 'I' for Inactive)
REMARK    1  A    between atoms: C_1  and  C_2
REMARK    2  A    between atoms: C_2  and  C_3
REMARK    3  A    between atoms: C_8  and  C_9
REMARK    4  A    between atoms: C_12  and  N_13
REMARK    5  A    between atoms: C_15  and  C_16
REMARK    6  A    between atoms: C_25  and  C_26
REMARK    7  A    between atoms: C_25  and  C_27
REMARK                            x       y       z     vdW  Elec       q    Type
REMARK                         _______ _______ _______ _____ _____    ______ ____
ROOT
ATOM      1  C   UNL     1       4.150  14.951  19.767  0.00  0.00    +0.000 C 
ATOM      2  C   UNL     1       4.212  16.377  20.335  0.00  0.00    +0.000 C 
ATOM      3  C   UNL     1       2.785  16.799  20.716  0.00  0.00    +0.000 C 
ATOM      4  C   UNL     1       5.113  16.480  21.599  0.00  0.00    +0.000 C 
ATOM      5  N   UNL     1       6.535  16.384  21.249  0.00  0.00    +0.000 N 
ATOM      6  C   UNL     1       7.207  15.221  21.540  0.00  0.00    +0.000 A 
ATOM      7  N   UNL     1       6.803  14.537  22.599  0.00  0.00    +0.000 NA
ATOM      8  C   UNL     1       7.483  13.441  22.887  0.00  0.00    +0.000 A 
ATOM      9  N   UNL     1       8.508  12.980  22.183  0.00  0.00    +0.000 NA
ATOM     10  C   UNL     1       8.867  13.714  21.137  0.00  0.00    +0.000 A 
ATOM     11  N   UNL     1       9.912  13.276  20.370  0.00  0.00    +0.000 N 
ATOM     12  C   UNL     1      10.611  12.022  20.637  0.00  0.00    +0.000 C 
ATOM     13  C   UNL     1      10.617  11.155  19.369  0.00  0.00    +0.000 C 
ATOM     14  O   UNL     1      11.102  11.865  18.219  0.00  0.00    +0.000 OA
ATOM     15  C   UNL     1      10.385  13.095  17.955  0.00  0.00    +0.000 C 
ATOM     16  C   UNL     1       8.958  12.799  17.468  0.00  0.00    +0.000 C 
ATOM     17  C   UNL     1      11.152  13.792  16.822  0.00  0.00    +0.000 C 
ATOM     18  C   UNL     1      10.382  14.017  19.204  0.00  0.00    +0.000 C 
ATOM     19  N   UNL     1       8.242  14.841  20.800  0.00  0.00    +0.000 NA
ATOM     20  C   UNL     1       6.966  17.262  20.165  0.00  0.00    +0.000 C 
ATOM     21  C   UNL     1       6.029  17.144  18.956  0.00  0.00    +0.000 C 
ATOM     22  O   UNL     1       4.647  17.305  19.315  0.00  0.00    +0.000 OA
ENDROOT
BRANCH   8  23
ATOM     23  C   UNL     1       7.038  12.666  24.049  0.00  0.00    +0.000 A 
ATOM     24  C   UNL     1       6.052  11.690  23.889  0.00  0.00    +0.000 A 
ATOM     25  N   UNL     1       5.509  10.949  24.885  0.00  0.00    +0.000 NA
ATOM     26  C   UNL     1       5.954  11.170  26.125  0.00  0.00    +0.000 A 
ATOM     27  C   UNL     1       6.957  12.086  26.402  0.00  0.00    +0.000 A 
ATOM     28  C   UNL     1       7.520  12.845  25.363  0.00  0.00    +0.000 A 
BRANCH  26  29
ATOM     29  N   UNL     1       5.391  10.408  27.141  0.00  0.00    +0.000 N 
ATOM     30  H   UNL     1       6.066  10.382  27.901  0.00  0.00    +0.000 HD
ATOM     31  H   UNL     1       5.145   9.477  26.823  0.00  0.00    +0.000 HD
ENDBRANCH  26  29
BRANCH  28  32
ATOM     32  C   UNL     1       8.599  13.840  25.712  0.00  0.00    +0.000 C 
ATOM     33  F   UNL     1       8.144  15.124  25.692  0.00  0.00    +0.000 F 
ATOM     34  F   UNL     1       9.080  13.656  26.980  0.00  0.00    +0.000 F 
ENDBRANCH  28  32
ENDBRANCH   8  23
TORSDOF 3
ENDMDL
MODEL 3
REMARK VINA RESULT:      -6.8      7.002      9.195
REMARK  Name = 
REMARK  7 active torsions:
REMARK  status: ('A' for Active; 'I' for Inactive)
REMARK    1  A    between atoms: C_1  and  C_2
REMARK    2  A    between atoms: C_2  and  C_3
REMARK    3  A    between atoms: C_8  and  C_9
REMARK    4  A    between atoms: C_12  and  N_13
REMARK    5  A    between atoms: C_15  and  C_16
REMARK    6  A    between atoms: C_25  and  C_26
REMARK    7  A    between atoms: C_25  and  C_27
REMARK                            x       y       z     vdW  Elec       q    Type
REMARK                         _______ _______ _______ _____ _____    ______ ____
ROOT
ATOM      1  C   UNL     1      -0.023  13.957  22.063  0.00  0.00    +0.000 C 
ATOM      2  C   UNL     1       0.909  14.819  21.197  0.00  0.00    +0.000 C 
ATOM      3  C   UNL     1       2.080  15.283  22.076  0.00  0.00    +0.000 C 
ATOM      4  C   UNL     1       1.482  14.043  19.978  0.00  0.00    +0.000 C 
ATOM      5  N   UNL     1       0.456  13.831  18.950  0.00  0.00    +0.000 N 
ATOM      6  C   UNL     1      -0.077  12.572  18.801  0.00  0.00    +0.000 A 
ATOM      7  N   UNL     1       0.709  11.546  19.084  0.00  0.00    +0.000 NA
ATOM      8  C   UNL     1       0.194  10.342  18.900  0.00  0.00    +0.000 A 
ATOM      9  N   UNL     1      -1.042  10.105  18.482  0.00  0.00    +0.000 NA
ATOM     10  C   UNL     1      -1.776  11.176  18.211  0.00  0.00    +0.000 A 
ATOM     11  N   UNL     1      -3.063  10.986  17.787  0.00  0.00    +0.000 N 
ATOM     12  C   UNL     1      -3.662   9.658  17.664  0.00  0.00    +0.000 C 
ATOM     13  C   UNL     1      -4.972   9.608  18.462  0.00  0.00    +0.000 C 
ATOM     14  O   UNL     1      -5.861  10.687  18.131  0.00  0.00    +0.000 OA
ATOM     15  C   UNL     1      -5.260  11.996  18.279  0.00  0.00    +0.000 C 
ATOM     16  C   UNL     1      -5.029  12.323  19.762  0.00  0.00    +0.000 C 
ATOM     17  C   UNL     1      -6.282  12.992  17.713  0.00  0.00    +0.000 C 
ATOM     18  C   UNL     1      -3.946  12.101  17.460  0.00  0.00    +0.000 C 
ATOM     19  N   UNL     1      -1.317  12.418  18.352  0.00  0.00    +0.000 NA
ATOM     20  C   UNL     1      -0.293  15.025  18.569  0.00  0.00    +0.000 C 
ATOM     21  C   UNL     1      -0.810  15.769  19.807  0.00  0.00    +0.000 C 
ATOM     22  O   UNL     1       0.227  16.019  20.770  0.00  0.00    +0.000 OA
ENDROOT
BRANCH   8  23
ATOM     23  C   UNL     1       1.048   9.195  19.222  0.00  0.00    +0.000 A 
ATOM     24  C   UNL     1       1.888   8.666  18.240  0.00  0.00    +0.000 A 
ATOM     25  N   UNL     1       2.680   7.576  18.385  0.00  0.00    +0.000 NA
ATOM     26  C   UNL     1       2.655   6.954  19.567  0.00  0.00    +0.000 A 
ATOM     27  C   UNL     1       1.890   7.409  20.630  0.00  0.00    +0.000 A 
ATOM     28  C   UNL     1       1.078   8.544  20.473  0.00  0.00    +0.000 A 
BRANCH  26  29
ATOM     29  N   UNL     1       3.468   5.836  19.707  0.00  0.00    +0.000 N 
ATOM     30  H   UNL     1       2.852   5.034  19.809  0.00  0.00    +0.000 HD
ATOM     31  H   UNL     1       4.103   5.927  20.492  0.00  0.00    +0.000 HD
ENDBRANCH  26  29
BRANCH  28  32
ATOM     32  C   UNL     1       0.251   8.996  21.652  0.00  0.00    +0.000 C 
ATOM     33  F   UNL     1      -0.807   8.170  21.888  0.00  0.00    +0.000 F 
ATOM     34  F   UNL     1       0.967   8.993  22.817  0.00  0.00    +0.000 F 
ENDBRANCH  28  32
ENDBRANCH   8  23
TORSDOF 3
ENDMDL
MODEL 4
REMARK VINA RESULT:      -6.7      6.619      9.173
REMARK  Name = 
REMARK  7 active torsions:
REMARK  status: ('A' for Active; 'I' for Inactive)
REMARK    1  A    between atoms: C_1  and  C_2
REMARK    2  A    between atoms: C_2  and  C_3
REMARK    3  A    between atoms: C_8  and  C_9
REMARK    4  A    between atoms: C_12  and  N_13
REMARK    5  A    between atoms: C_15  and  C_16
REMARK    6  A    between atoms: C_25  and  C_26
REMARK    7  A    between atoms: C_25  and  C_27
REMARK                            x       y       z     vdW  Elec       q    Type
REMARK                         _______ _______ _______ _____ _____    ______ ____
ROOT
ATOM      1  C   UNL     1       2.447  15.713  21.046  0.00  0.00    +0.000 C 
ATOM      2  C   UNL     1       2.440  15.982  19.533  0.00  0.00    +0.000 C 
ATOM      3  C   UNL     1       3.897  16.111  19.066  0.00  0.00    +0.000 C 
ATOM      4  C   UNL     1       1.759  14.841  18.725  0.00  0.00    +0.000 C 
ATOM      5  N   UNL     1       0.301  14.860  18.899  0.00  0.00    +0.000 N 
ATOM      6  C   UNL     1      -0.279  13.897  19.692  0.00  0.00    +0.000 A 
ATOM      7  N   UNL     1       0.316  12.716  19.741  0.00  0.00    +0.000 NA
ATOM      8  C   UNL     1      -0.275  11.790  20.477  0.00  0.00    +0.000 A 
ATOM      9  N   UNL     1      -1.388  11.974  21.172  0.00  0.00    +0.000 NA
ATOM     10  C   UNL     1      -1.937  13.178  21.076  0.00  0.00    +0.000 A 
ATOM     11  N   UNL     1      -3.082  13.424  21.784  0.00  0.00    +0.000 N 
ATOM     12  C   UNL     1      -3.690  12.429  22.664  0.00  0.00    +0.000 C 
ATOM     13  C   UNL     1      -3.882  13.028  24.065  0.00  0.00    +0.000 C 
ATOM     14  O   UNL     1      -4.572  14.288  24.036  0.00  0.00    +0.000 OA
ATOM     15  C   UNL     1      -3.945  15.270  23.176  0.00  0.00    +0.000 C 
ATOM     16  C   UNL     1      -2.611  15.742  23.774  0.00  0.00    +0.000 C 
ATOM     17  C   UNL     1      -4.909  16.463  23.131  0.00  0.00    +0.000 C 
ATOM     18  C   UNL     1      -3.761  14.715  21.738  0.00  0.00    +0.000 C 
ATOM     19  N   UNL     1      -1.411  14.153  20.337  0.00  0.00    +0.000 NA
ATOM     20  C   UNL     1      -0.329  16.161  18.697  0.00  0.00    +0.000 C 
ATOM     21  C   UNL     1       0.397  17.254  19.491  0.00  0.00    +0.000 C 
ATOM     22  O   UNL     1       1.815  17.255  19.254  0.00  0.00    +0.000 OA
ENDROOT
BRANCH   8  23
ATOM     23  C   UNL     1       0.380  10.480  20.552  0.00  0.00    +0.000 A 
ATOM     24  C   UNL     1       0.976   9.942  19.410  0.00  0.00    +0.000 A 
ATOM     25  N   UNL     1       1.558   8.722  19.325  0.00  0.00    +0.000 NA
ATOM     26  C   UNL     1       1.562   7.969  20.428  0.00  0.00    +0.000 A 
ATOM     27  C   UNL     1       1.036   8.411  21.632  0.00  0.00    +0.000 A 
ATOM     28  C   UNL     1       0.441   9.680  21.712  0.00  0.00    +0.000 A 
BRANCH  26  29
ATOM     29  N   UNL     1       2.160   6.717  20.334  0.00  0.00    +0.000 N 
ATOM     30  H   UNL     1       3.089   6.802  20.737  0.00  0.00    +0.000 HD
ATOM     31  H   UNL     1       2.192   6.386  19.376  0.00  0.00    +0.000 HD
ENDBRANCH  26  29
BRANCH  28  32
ATOM     32  C   UNL     1      -0.133  10.115  23.038  0.00  0.00    +0.000 C 
ATOM     33  F   UNL     1      -1.478   9.909  23.112  0.00  0.00    +0.000 F 
ATOM     34  F   UNL     1       0.389   9.405  24.085  0.00  0.00    +0.000 F 
ENDBRANCH  28  32
ENDBRANCH   8  23
TORSDOF 3
ENDMDL
MODEL 5
REMARK VINA RESULT:      -6.6      2.835      7.012
REMARK  Name = 
REMARK  7 active torsions:
REMARK  status: ('A' for Active; 'I' for Inactive)
REMARK    1  A    between atoms: C_1  and  C_2
REMARK    2  A    between atoms: C_2  and  C_3
REMARK    3  A    between atoms: C_8  and  C_9
REMARK    4  A    between atoms: C_12  and  N_13
REMARK    5  A    between atoms: C_15  and  C_16
REMARK    6  A    between atoms: C_25  and  C_26
REMARK    7  A    between atoms: C_25  and  C_27
REMARK                            x       y       z     vdW  Elec       q    Type
REMARK                         _______ _______ _______ _____ _____    ______ ____
ROOT
ATOM      1  C   UNL     1       4.614  15.172  20.080  0.00  0.00    +0.000 C 
ATOM      2  C   UNL     1       4.724  16.679  20.359  0.00  0.00    +0.000 C 
ATOM      3  C   UNL     1       3.350  17.176  20.833  0.00  0.00    +0.000 C 
ATOM      4  C   UNL     1       5.775  17.010  21.457  0.00  0.00    +0.000 C 
ATOM      5  N   UNL     1       7.144  16.839  20.953  0.00  0.00    +0.000 N 
ATOM      6  C   UNL     1       7.866  15.745  21.368  0.00  0.00    +0.000 A 
ATOM      7  N   UNL     1       7.609  15.275  22.579  0.00  0.00    +0.000 NA
ATOM      8  C   UNL     1       8.338  14.247  22.978  0.00  0.00    +0.000 A 
ATOM      9  N   UNL     1       9.273  13.655  22.248  0.00  0.00    +0.000 NA
ATOM     10  C   UNL     1       9.485  14.176  21.046  0.00  0.00    +0.000 A 
ATOM     11  N   UNL     1      10.432  13.594  20.248  0.00  0.00    +0.000 N 
ATOM     12  C   UNL     1      11.179  12.406  20.654  0.00  0.00    +0.000 C 
ATOM     13  C   UNL     1      11.038  11.317  19.580  0.00  0.00    +0.000 C 
ATOM     14  O   UNL     1      11.363  11.795  18.265  0.00  0.00    +0.000 OA
ATOM     15  C   UNL     1      10.599  12.960  17.869  0.00  0.00    +0.000 C 
ATOM     16  C   UNL     1       9.127  12.589  17.632  0.00  0.00    +0.000 C 
ATOM     17  C   UNL     1      11.205  13.425  16.538  0.00  0.00    +0.000 C 
ATOM     18  C   UNL     1      10.739  14.100  18.914  0.00  0.00    +0.000 C 
ATOM     19  N   UNL     1       8.805  15.225  20.587  0.00  0.00    +0.000 NA
ATOM     20  C   UNL     1       7.420  17.494  19.678  0.00  0.00    +0.000 C 
ATOM     21  C   UNL     1       6.340  17.159  18.642  0.00  0.00    +0.000 C 
ATOM     22  O   UNL     1       5.012  17.395  19.137  0.00  0.00    +0.000 OA
ENDROOT
BRANCH   8  23
ATOM     23  C   UNL     1       8.056  13.707  24.312  0.00  0.00    +0.000 A 
ATOM     24  C   UNL     1       8.699  14.253  25.425  0.00  0.00    +0.000 A 
ATOM     25  N   UNL     1       8.577  13.811  26.700  0.00  0.00    +0.000 NA
ATOM     26  C   UNL     1       7.773  12.765  26.911  0.00  0.00    +0.000 A 
ATOM     27  C   UNL     1       7.052  12.165  25.890  0.00  0.00    +0.000 A 
ATOM     28  C   UNL     1       7.179  12.634  24.573  0.00  0.00    +0.000 A 
BRANCH  26  29
ATOM     29  N   UNL     1       7.654  12.317  28.221  0.00  0.00    +0.000 N 
ATOM     30  H   UNL     1       7.256  13.082  28.760  0.00  0.00    +0.000 HD
ATOM     31  H   UNL     1       8.544  12.012  28.598  0.00  0.00    +0.000 HD
ENDBRANCH  26  29
BRANCH  28  32
ATOM     32  C   UNL     1       6.386  11.941  23.491  0.00  0.00    +0.000 C 
ATOM     33  F   UNL     1       5.574  10.968  23.989  0.00  0.00    +0.000 F 
ATOM     34  F   UNL     1       5.547  12.799  22.835  0.00  0.00    +0.000 F 
ENDBRANCH  28  32
ENDBRANCH   8  23
TORSDOF 3
ENDMDL
MODEL 6
REMARK VINA RESULT:      -6.6      1.797      2.126
REMARK  Name = 
REMARK  7 active torsions:
REMARK  status: ('A' for Active; 'I' for Inactive)
REMARK    1  A    between atoms: C_1  and  C_2
REMARK    2  A    between atoms: C_2  and  C_3
REMARK    3  A    between atoms: C_8  and  C_9
REMARK    4  A    between atoms: C_12  and  N_13
REMARK    5  A    between atoms: C_15  and  C_16
REMARK    6  A    between atoms: C_25  and  C_26
REMARK    7  A    between atoms: C_25  and  C_27
REMARK                            x       y       z     vdW  Elec       q    Type
REMARK                         _______ _______ _______ _____ _____    ______ ____
ROOT
ATOM      1  C   UNL     1       6.863  12.008  23.591  0.00  0.00    +0.000 C 
ATOM      2  C   UNL     1       7.528  13.048  24.506  0.00  0.00    +0.000 C 
ATOM      3  C   UNL     1       8.577  12.326  25.363  0.00  0.00    +0.000 C 
ATOM      4  C   UNL     1       8.234  14.182  23.709  0.00  0.00    +0.000 C 
ATOM      5  N   UNL     1       7.258  15.098  23.106  0.00  0.00    +0.000 N 
ATOM      6  C   UNL     1       7.044  15.031  21.749  0.00  0.00    +0.000 A 
ATOM      7  N   UNL     1       8.066  14.661  20.994  0.00  0.00    +0.000 NA
ATOM      8  C   UNL     1       7.855  14.637  19.688  0.00  0.00    +0.000 A 
ATOM      9  N   UNL     1       6.702  14.932  19.104  0.00  0.00    +0.000 NA
ATOM     10  C   UNL     1       5.720  15.301  19.917  0.00  0.00    +0.000 A 
ATOM     11  N   UNL     1       4.506  15.605  19.364  0.00  0.00    +0.000 N 
ATOM     12  C   UNL     1       4.246  15.499  17.930  0.00  0.00    +0.000 C 
ATOM     13  C   UNL     1       3.014  14.614  17.694  0.00  0.00    +0.000 C 
ATOM     14  O   UNL     1       1.878  15.033  18.467  0.00  0.00    +0.000 OA
ATOM     15  C   UNL     1       2.145  15.112  19.888  0.00  0.00    +0.000 C 
ATOM     16  C   UNL     1       2.337  13.708  20.484  0.00  0.00    +0.000 C 
ATOM     17  C   UNL     1       0.893  15.741  20.515  0.00  0.00    +0.000 C 
ATOM     18  C   UNL     1       3.367  16.025  20.175  0.00  0.00    +0.000 C 
ATOM     19  N   UNL     1       5.866  15.369  21.238  0.00  0.00    +0.000 NA
ATOM     20  C   UNL     1       6.229  15.591  24.016  0.00  0.00    +0.000 C 
ATOM     21  C   UNL     1       5.585  14.439  24.797  0.00  0.00    +0.000 C 
ATOM     22  O   UNL     1       6.560  13.594  25.430  0.00  0.00    +0.000 OA
ENDROOT
BRANCH   8  23
ATOM     23  C   UNL     1       8.974  14.216  18.840  0.00  0.00    +0.000 A 
ATOM     24  C   UNL     1       9.143  12.862  18.546  0.00  0.00    +0.000 A 
ATOM     25  N   UNL     1      10.164  12.332  17.829  0.00  0.00    +0.000 NA
ATOM     26  C   UNL     1      11.087  13.178  17.363  0.00  0.00    +0.000 A 
ATOM     27  C   UNL     1      11.005  14.548  17.558  0.00  0.00    +0.000 A 
ATOM     28  C   UNL     1       9.939  15.089  18.296  0.00  0.00    +0.000 A 
BRANCH  26  29
ATOM     29  N   UNL     1      12.131  12.628  16.630  0.00  0.00    +0.000 N 
ATOM     30  H   UNL     1      12.754  13.393  16.383  0.00  0.00    +0.000 HD
ATOM     31  H   UNL     1      11.798  12.133  15.811  0.00  0.00    +0.000 HD
ENDBRANCH  26  29
BRANCH  28  32
ATOM     32  C   UNL     1       9.898  16.584  18.496  0.00  0.00    +0.000 C 
ATOM     33  F   UNL     1      11.040  17.193  18.070  0.00  0.00    +0.000 F 
ATOM     34  F   UNL     1       8.895  17.174  17.777  0.00  0.00    +0.000 F 
ENDBRANCH  28  32
ENDBRANCH   8  23
TORSDOF 3
ENDMDL
MODEL 7
REMARK VINA RESULT:      -6.5      8.901     11.874
REMARK  Name = 
REMARK  7 active torsions:
REMARK  status: ('A' for Active; 'I' for Inactive)
REMARK    1  A    between atoms: C_1  and  C_2
REMARK    2  A    between atoms: C_2  and  C_3
REMARK    3  A    between atoms: C_8  and  C_9
REMARK    4  A    between atoms: C_12  and  N_13
REMARK    5  A    between atoms: C_15  and  C_16
REMARK    6  A    between atoms: C_25  and  C_26
REMARK    7  A    between atoms: C_25  and  C_27
REMARK                            x       y       z     vdW  Elec       q    Type
REMARK                         _______ _______ _______ _____ _____    ______ ____
ROOT
ATOM      1  C   UNL     1      -5.691  14.112  19.624  0.00  0.00    +0.000 C 
ATOM      2  C   UNL     1      -6.782  13.153  20.125  0.00  0.00    +0.000 C 
ATOM      3  C   UNL     1      -7.328  12.381  18.914  0.00  0.00    +0.000 C 
ATOM      4  C   UNL     1      -6.247  12.128  21.165  0.00  0.00    +0.000 C 
ATOM      5  N   UNL     1      -5.989  12.768  22.461  0.00  0.00    +0.000 N 
ATOM      6  C   UNL     1      -4.685  12.995  22.834  0.00  0.00    +0.000 A 
ATOM      7  N   UNL     1      -3.773  12.142  22.394  0.00  0.00    +0.000 NA
ATOM      8  C   UNL     1      -2.530  12.353  22.792  0.00  0.00    +0.000 A 
ATOM      9  N   UNL     1      -2.145  13.355  23.569  0.00  0.00    +0.000 NA
ATOM     10  C   UNL     1      -3.108  14.171  23.980  0.00  0.00    +0.000 A 
ATOM     11  N   UNL     1      -2.761  15.229  24.775  0.00  0.00    +0.000 N 
ATOM     12  C   UNL     1      -1.377  15.512  25.147  0.00  0.00    +0.000 C 
ATOM     13  C   UNL     1      -1.028  16.960  24.775  0.00  0.00    +0.000 C 
ATOM     14  O   UNL     1      -1.980  17.906  25.289  0.00  0.00    +0.000 OA
ATOM     15  C   UNL     1      -3.344  17.624  24.893  0.00  0.00    +0.000 C 
ATOM     16  C   UNL     1      -3.538  17.882  23.390  0.00  0.00    +0.000 C 
ATOM     17  C   UNL     1      -4.220  18.614  25.674  0.00  0.00    +0.000 C 
ATOM     18  C   UNL     1      -3.750  16.177  25.280  0.00  0.00    +0.000 C 
ATOM     19  N   UNL     1      -4.384  14.008  23.637  0.00  0.00    +0.000 NA
ATOM     20  C   UNL     1      -7.082  13.589  22.973  0.00  0.00    +0.000 C 
ATOM     21  C   UNL     1      -7.591  14.560  21.901  0.00  0.00    +0.000 C 
ATOM     22  O   UNL     1      -7.897  13.899  20.662  0.00  0.00    +0.000 OA
ENDROOT
BRANCH   8  23
ATOM     23  C   UNL     1      -1.507  11.424  22.302  0.00  0.00    +0.000 A 
ATOM     24  C   UNL     1      -1.082  10.374  23.118  0.00  0.00    +0.000 A 
ATOM     25  N   UNL     1      -0.105   9.486  22.815  0.00  0.00    +0.000 NA
ATOM     26  C   UNL     1       0.503   9.625  21.634  0.00  0.00    +0.000 A 
ATOM     27  C   UNL     1       0.140  10.605  20.722  0.00  0.00    +0.000 A 
ATOM     28  C   UNL     1      -0.878  11.518  21.043  0.00  0.00    +0.000 A 
BRANCH  26  29
ATOM     29  N   UNL     1       1.504   8.711  21.330  0.00  0.00    +0.000 N 
ATOM     30  H   UNL     1       2.291   9.244  20.969  0.00  0.00    +0.000 HD
ATOM     31  H   UNL     1       1.189   8.010  20.669  0.00  0.00    +0.000 HD
ENDBRANCH  26  29
BRANCH  28  32
ATOM     32  C   UNL     1      -1.229  12.577  20.027  0.00  0.00    +0.000 C 
ATOM     33  F   UNL     1      -2.511  12.461  19.582  0.00  0.00    +0.000 F 
ATOM     34  F   UNL     1      -1.151  13.839  20.549  0.00  0.00    +0.000 F 
ENDBRANCH  28  32
ENDBRANCH   8  23
TORSDOF 3
ENDMDL
MODEL 8
REMARK VINA RESULT:      -6.5      5.650      8.158
REMARK  Name = 
REMARK  7 active torsions:
REMARK  status: ('A' for Active; 'I' for Inactive)
REMARK    1  A    between atoms: C_1  and  C_2
REMARK    2  A    between atoms: C_2  and  C_3
REMARK    3  A    between atoms: C_8  and  C_9
REMARK    4  A    between atoms: C_12  and  N_13
REMARK    5  A    between atoms: C_15  and  C_16
REMARK    6  A    between atoms: C_25  and  C_26
REMARK    7  A    between atoms: C_25  and  C_27
REMARK                            x       y       z     vdW  Elec       q    Type
REMARK                         _______ _______ _______ _____ _____    ______ ____
ROOT
ATOM      1  C   UNL     1       3.802  15.180  20.762  0.00  0.00    +0.000 C 
ATOM      2  C   UNL     1       3.796  15.779  19.347  0.00  0.00    +0.000 C 
ATOM      3  C   UNL     1       5.252  15.879  18.867  0.00  0.00    +0.000 C 
ATOM      4  C   UNL     1       2.998  14.912  18.332  0.00  0.00    +0.000 C 
ATOM      5  N   UNL     1       1.552  15.020  18.559  0.00  0.00    +0.000 N 
ATOM      6  C   UNL     1       0.896  13.960  19.140  0.00  0.00    +0.000 A 
ATOM      7  N   UNL     1       1.378  12.750  18.906  0.00  0.00    +0.000 NA
ATOM      8  C   UNL     1       0.714  11.739  19.441  0.00  0.00    +0.000 A 
ATOM      9  N   UNL     1      -0.367  11.861  20.199  0.00  0.00    +0.000 NA
ATOM     10  C   UNL     1      -0.801  13.100  20.391  0.00  0.00    +0.000 A 
ATOM     11  N   UNL     1      -1.907  13.282  21.176  0.00  0.00    +0.000 N 
ATOM     12  C   UNL     1      -2.592  12.174  21.837  0.00  0.00    +0.000 C 
ATOM     13  C   UNL     1      -2.704  12.461  23.341  0.00  0.00    +0.000 C 
ATOM     14  O   UNL     1      -3.274  13.751  23.615  0.00  0.00    +0.000 OA
ATOM     15  C   UNL     1      -2.570  14.840  22.971  0.00  0.00    +0.000 C 
ATOM     16  C   UNL     1      -1.188  15.048  23.610  0.00  0.00    +0.000 C 
ATOM     17  C   UNL     1      -3.418  16.094  23.226  0.00  0.00    +0.000 C 
ATOM     18  C   UNL     1      -2.462  14.606  21.441  0.00  0.00    +0.000 C 
ATOM     19  N   UNL     1      -0.197  14.164  19.866  0.00  0.00    +0.000 NA
ATOM     20  C   UNL     1       1.044  16.384  18.671  0.00  0.00    +0.000 C 
ATOM     21  C   UNL     1       1.882  17.204  19.660  0.00  0.00    +0.000 C 
ATOM     22  O   UNL     1       3.289  17.132  19.378  0.00  0.00    +0.000 OA
ENDROOT
BRANCH   8  23
ATOM     23  C   UNL     1       1.243  10.393  19.202  0.00  0.00    +0.000 A 
ATOM     24  C   UNL     1       1.773  10.074  17.950  0.00  0.00    +0.000 A 
ATOM     25  N   UNL     1       2.236   8.856  17.578  0.00  0.00    +0.000 NA
ATOM     26  C   UNL     1       2.182   7.878  18.485  0.00  0.00    +0.000 A 
ATOM     27  C   UNL     1       1.714   8.084  19.773  0.00  0.00    +0.000 A 
ATOM     28  C   UNL     1       1.242   9.351  20.153  0.00  0.00    +0.000 A 
BRANCH  26  29
ATOM     29  N   UNL     1       2.658   6.631  18.096  0.00  0.00    +0.000 N 
ATOM     30  H   UNL     1       2.675   6.048  18.928  0.00  0.00    +0.000 HD
ATOM     31  H   UNL     1       3.572   6.695  17.661  0.00  0.00    +0.000 HD
ENDBRANCH  26  29
BRANCH  28  32
ATOM     32  C   UNL     1       0.727   9.526  21.561  0.00  0.00    +0.000 C 
ATOM     33  F   UNL     1      -0.359   8.744  21.815  0.00  0.00    +0.000 F 
ATOM     34  F   UNL     1       1.653   9.160  22.499  0.00  0.00    +0.000 F 
ENDBRANCH  28  32
ENDBRANCH   8  23
TORSDOF 3
ENDMDL
MODEL 9
REMARK VINA RESULT:      -6.4      7.160     10.755
REMARK  Name = 
REMARK  7 active torsions:
REMARK  status: ('A' for Active; 'I' for Inactive)
REMARK    1  A    between atoms: C_1  and  C_2
REMARK    2  A    between atoms: C_2  and  C_3
REMARK    3  A    between atoms: C_8  and  C_9
REMARK    4  A    between atoms: C_12  and  N_13
REMARK    5  A    between atoms: C_15  and  C_16
REMARK    6  A    between atoms: C_25  and  C_26
REMARK    7  A    between atoms: C_25  and  C_27
REMARK                            x       y       z     vdW  Elec       q    Type
REMARK                         _______ _______ _______ _____ _____    ______ ____
ROOT
ATOM      1  C   UNL     1      -3.774  15.228  21.497  0.00  0.00    +0.000 C 
ATOM      2  C   UNL     1      -4.193  14.221  22.580  0.00  0.00    +0.000 C 
ATOM      3  C   UNL     1      -5.698  14.395  22.832  0.00  0.00    +0.000 C 
ATOM      4  C   UNL     1      -3.927  12.747  22.162  0.00  0.00    +0.000 C 
ATOM      5  N   UNL     1      -2.494  12.433  22.196  0.00  0.00    +0.000 N 
ATOM      6  C   UNL     1      -1.818  12.313  21.005  0.00  0.00    +0.000 A 
ATOM      7  N   UNL     1      -2.503  11.872  19.963  0.00  0.00    +0.000 NA
ATOM      8  C   UNL     1      -1.830  11.727  18.834  0.00  0.00    +0.000 A 
ATOM      9  N   UNL     1      -0.545  12.012  18.679  0.00  0.00    +0.000 NA
ATOM     10  C   UNL     1       0.086  12.445  19.763  0.00  0.00    +0.000 A 
ATOM     11  N   UNL     1       1.412  12.764  19.653  0.00  0.00    +0.000 N 
ATOM     12  C   UNL     1       2.137  12.685  18.387  0.00  0.00    +0.000 C 
ATOM     13  C   UNL     1       2.813  14.033  18.095  0.00  0.00    +0.000 C 
ATOM     14  O   UNL     1       3.605  14.503  19.198  0.00  0.00    +0.000 OA
ATOM     15  C   UNL     1       2.866  14.597  20.440  0.00  0.00    +0.000 C 
ATOM     16  C   UNL     1       1.840  15.739  20.377  0.00  0.00    +0.000 C 
ATOM     17  C   UNL     1       3.904  14.932  21.520  0.00  0.00    +0.000 C 
ATOM     18  C   UNL     1       2.192  13.243  20.791  0.00  0.00    +0.000 C 
ATOM     19  N   UNL     1      -0.522  12.594  20.938  0.00  0.00    +0.000 NA
ATOM     20  C   UNL     1      -1.807  12.813  23.427  0.00  0.00    +0.000 C 
ATOM     21  C   UNL     1      -2.125  14.264  23.810  0.00  0.00    +0.000 C 
ATOM     22  O   UNL     1      -3.537  14.529  23.830  0.00  0.00    +0.000 OA
ENDROOT
BRANCH   8  23
ATOM     23  C   UNL     1      -2.580  11.252  17.667  0.00  0.00    +0.000 A 
ATOM     24  C   UNL     1      -1.919  10.528  16.672  0.00  0.00    +0.000 A 
ATOM     25  N   UNL     1      -2.475  10.086  15.519  0.00  0.00    +0.000 NA
ATOM     26  C   UNL     1      -3.766  10.365  15.316  0.00  0.00    +0.000 A 
ATOM     27  C   UNL     1      -4.535  11.043  16.248  0.00  0.00    +0.000 A 
ATOM     28  C   UNL     1      -3.952  11.492  17.445  0.00  0.00    +0.000 A 
BRANCH  26  29
ATOM     29  N   UNL     1      -4.329   9.909  14.130  0.00  0.00    +0.000 N 
ATOM     30  H   UNL     1      -5.187  10.436  13.989  0.00  0.00    +0.000 HD
ATOM     31  H   UNL     1      -4.499   8.910  14.152  0.00  0.00    +0.000 HD
ENDBRANCH  26  29
BRANCH  28  32
ATOM     32  C   UNL     1      -4.823  12.238  18.425  0.00  0.00    +0.000 C 
ATOM     33  F   UNL     1      -5.791  12.969  17.804  0.00  0.00    +0.000 F 
ATOM     34  F   UNL     1      -5.501  11.394  19.261  0.00  0.00    +0.000 F 
ENDBRANCH  28  32
ENDBRANCH   8  23
TORSDOF 3
ENDMDL
