MODEL 1
REMARK VINA RESULT:      -7.7      0.000      0.000
REMARK  Name = 
REMARK  8 active torsions:
REMARK  status: ('A' for Active; 'I' for Inactive)
REMARK    1  A    between atoms: C_1  and  C_2
REMARK    2  A    between atoms: N_4  and  C_5
REMARK    3  A    between atoms: C_8  and  N_9
REMARK    4  A    between atoms: C_10  and  C_12
REMARK    5  A    between atoms: C_15  and  C_16
REMARK    6  A    between atoms: C_16  and  C_17
REMARK    7  A    between atoms: C_16  and  C_18
REMARK    8  A    between atoms: C_16  and  O_19
REMARK                            x       y       z     vdW  Elec       q    Type
REMARK                         _______ _______ _______ _____ _____    ______ ____
ROOT
ATOM      1  N   UNL     1       1.633   8.872  18.345  0.00  0.00    +0.000 N 
ATOM      2  C   UNL     1       2.125   7.748  19.004  0.00  0.00    +0.000 C 
ATOM      3  O   UNL     1       1.900   7.406  20.157  0.00  0.00    +0.000 OA
ATOM      4  H   UNL     1       1.849   9.014  17.374  0.00  0.00    +0.000 HD
ENDROOT
BRANCH   1  12
ATOM      5  C   UNL     1      -1.895  13.359  21.809  0.00  0.00    +0.000 C 
ATOM      6  C   UNL     1      -1.923  12.509  20.590  0.00  0.00    +0.000 A 
ATOM      7  C   UNL     1      -2.923  12.424  19.648  0.00  0.00    +0.000 A 
ATOM      8  N   UNL     1      -2.541  11.521  18.686  0.00  0.00    +0.000 N 
ATOM      9  C   UNL     1      -3.351  11.183  17.536  0.00  0.00    +0.000 C 
ATOM     10  C   UNL     1      -1.294  11.005  18.982  0.00  0.00    +0.000 A 
ATOM     11  C   UNL     1      -0.469  10.067  18.335  0.00  0.00    +0.000 A 
ATOM     12  C   UNL     1       0.761   9.800  18.946  0.00  0.00    +0.000 A 
ATOM     13  N   UNL     1       1.145  10.387  20.089  0.00  0.00    +0.000 NA
ATOM     14  C   UNL     1       0.348  11.276  20.712  0.00  0.00    +0.000 A 
ATOM     15  C   UNL     1      -0.891  11.614  20.174  0.00  0.00    +0.000 A 
ENDBRANCH   1  12
BRANCH   2  16
ATOM     16  C   UNL     1       2.995   6.843  18.207  0.00  0.00    +0.000 A 
ATOM     17  C   UNL     1       2.844   5.460  18.202  0.00  0.00    +0.000 A 
ATOM     18  C   UNL     1       3.727   4.661  17.467  0.00  0.00    +0.000 A 
ATOM     19  C   UNL     1       4.766   5.226  16.704  0.00  0.00    +0.000 A 
ATOM     20  C   UNL     1       4.855   6.626  16.654  0.00  0.00    +0.000 A 
ATOM     21  C   UNL     1       3.984   7.426  17.399  0.00  0.00    +0.000 A 
BRANCH  19  22
ATOM     22  C   UNL     1       5.785   4.353  15.972  0.00  0.00    +0.000 C 
ATOM     23  C   UNL     1       5.658   4.498  14.452  0.00  0.00    +0.000 C 
ATOM     24  C   UNL     1       7.215   4.676  16.422  0.00  0.00    +0.000 C 
BRANCH  22  25
ATOM     25  O   UNL     1       5.578   2.968  16.282  0.00  0.00    +0.000 OA
ATOM     26  H   UNL     1       4.849   2.656  15.720  0.00  0.00    +0.000 HD
ENDBRANCH  22  25
ENDBRANCH  19  22
ENDBRANCH   2  16
TORSDOF 4
ENDMDL
MODEL 2
REMARK VINA RESULT:      -7.6      0.551      1.124
REMARK  Name = 
REMARK  8 active torsions:
REMARK  status: ('A' for Active; 'I' for Inactive)
REMARK    1  A    between atoms: C_1  and  C_2
REMARK    2  A    between atoms: N_4  and  C_5
REMARK    3  A    between atoms: C_8  and  N_9
REMARK    4  A    between atoms: C_10  and  C_12
REMARK    5  A    between atoms: C_15  and  C_16
REMARK    6  A    between atoms: C_16  and  C_17
REMARK    7  A    between atoms: C_16  and  C_18
REMARK    8  A    between atoms: C_16  and  O_19
REMARK                            x       y       z     vdW  Elec       q    Type
REMARK                         _______ _______ _______ _____ _____    ______ ____
ROOT
ATOM      1  N   UNL     1       1.724   8.990  17.976  0.00  0.00    +0.000 N 
ATOM      2  C   UNL     1       2.206   7.904  18.702  0.00  0.00    +0.000 C 
ATOM      3  O   UNL     1       1.894   7.575  19.839  0.00  0.00    +0.000 OA
ATOM      4  H   UNL     1       2.020   9.123  17.025  0.00  0.00    +0.000 HD
ENDROOT
BRANCH   1  12
ATOM      5  C   UNL     1      -2.223  13.544  20.851  0.00  0.00    +0.000 C 
ATOM      6  C   UNL     1      -2.203  12.458  19.838  0.00  0.00    +0.000 A 
ATOM      7  C   UNL     1      -3.247  12.024  19.050  0.00  0.00    +0.000 A 
ATOM      8  N   UNL     1      -2.796  11.003  18.251  0.00  0.00    +0.000 N 
ATOM      9  C   UNL     1      -3.626  10.310  17.290  0.00  0.00    +0.000 C 
ATOM     10  C   UNL     1      -1.460  10.753  18.501  0.00  0.00    +0.000 A 
ATOM     11  C   UNL     1      -0.543   9.831  17.965  0.00  0.00    +0.000 A 
ATOM     12  C   UNL     1       0.758   9.886  18.475  0.00  0.00    +0.000 A 
ATOM     13  N   UNL     1       1.128  10.755  19.426  0.00  0.00    +0.000 NA
ATOM     14  C   UNL     1       0.245  11.629  19.946  0.00  0.00    +0.000 A 
ATOM     15  C   UNL     1      -1.072  11.657  19.495  0.00  0.00    +0.000 A 
ENDBRANCH   1  12
BRANCH   2  16
ATOM     16  C   UNL     1       3.186   7.027  18.009  0.00  0.00    +0.000 A 
ATOM     17  C   UNL     1       4.170   7.520  17.156  0.00  0.00    +0.000 A 
ATOM     18  C   UNL     1       5.032   6.635  16.497  0.00  0.00    +0.000 A 
ATOM     19  C   UNL     1       4.945   5.245  16.691  0.00  0.00    +0.000 A 
ATOM     20  C   UNL     1       4.002   4.769  17.615  0.00  0.00    +0.000 A 
ATOM     21  C   UNL     1       3.130   5.647  18.264  0.00  0.00    +0.000 A 
BRANCH  19  22
ATOM     22  C   UNL     1       5.826   4.272  15.906  0.00  0.00    +0.000 C 
ATOM     23  C   UNL     1       5.586   4.392  14.397  0.00  0.00    +0.000 C 
ATOM     24  C   UNL     1       7.310   4.486  16.230  0.00  0.00    +0.000 C 
BRANCH  22  25
ATOM     25  O   UNL     1       5.534   2.917  16.274  0.00  0.00    +0.000 OA
ATOM     26  H   UNL     1       4.866   2.591  15.648  0.00  0.00    +0.000 HD
ENDBRANCH  22  25
ENDBRANCH  19  22
ENDBRANCH   2  16
TORSDOF 4
ENDMDL
MODEL 3
REMARK VINA RESULT:      -7.6      1.032      1.286
REMARK  Name = 
REMARK  8 active torsions:
REMARK  status: ('A' for Active; 'I' for Inactive)
REMARK    1  A    between atoms: C_1  and  C_2
REMARK    2  A    between atoms: N_4  and  C_5
REMARK    3  A    between atoms: C_8  and  N_9
REMARK    4  A    between atoms: C_10  and  C_12
REMARK    5  A    between atoms: C_15  and  C_16
REMARK    6  A    between atoms: C_16  and  C_17
REMARK    7  A    between atoms: C_16  and  C_18
REMARK    8  A    between atoms: C_16  and  O_19
REMARK                            x       y       z     vdW  Elec       q    Type
REMARK                         _______ _______ _______ _____ _____    ______ ____
ROOT
ATOM      1  N   UNL     1       1.828   8.944  18.115  0.00  0.00    +0.000 N 
ATOM      2  C   UNL     1       2.276   7.838  18.834  0.00  0.00    +0.000 C 
ATOM      3  O   UNL     1       1.875   7.448  19.921  0.00  0.00    +0.000 OA
ATOM      4  H   UNL     1       2.203   9.129  17.202  0.00  0.00    +0.000 HD
ENDROOT
BRANCH   1  12
ATOM      5  C   UNL     1      -2.516  13.211  20.855  0.00  0.00    +0.000 C 
ATOM      6  C   UNL     1      -2.352  12.222  19.758  0.00  0.00    +0.000 A 
ATOM      7  C   UNL     1      -3.279  11.863  18.806  0.00  0.00    +0.000 A 
ATOM      8  N   UNL     1      -2.715  10.919  17.982  0.00  0.00    +0.000 N 
ATOM      9  C   UNL     1      -3.405  10.317  16.862  0.00  0.00    +0.000 C 
ATOM     10  C   UNL     1      -1.420  10.648  18.380  0.00  0.00    +0.000 A 
ATOM     11  C   UNL     1      -0.430   9.780  17.886  0.00  0.00    +0.000 A 
ATOM     12  C   UNL     1       0.794   9.790  18.564  0.00  0.00    +0.000 A 
ATOM     13  N   UNL     1       1.027  10.568  19.630  0.00  0.00    +0.000 NA
ATOM     14  C   UNL     1       0.072  11.389  20.108  0.00  0.00    +0.000 A 
ATOM     15  C   UNL     1      -1.176  11.457  19.494  0.00  0.00    +0.000 A 
ENDBRANCH   1  12
BRANCH   2  16
ATOM     16  C   UNL     1       3.341   7.021  18.193  0.00  0.00    +0.000 A 
ATOM     17  C   UNL     1       3.711   5.763  18.659  0.00  0.00    +0.000 A 
ATOM     18  C   UNL     1       4.754   5.066  18.038  0.00  0.00    +0.000 A 
ATOM     19  C   UNL     1       5.435   5.599  16.929  0.00  0.00    +0.000 A 
ATOM     20  C   UNL     1       4.996   6.832  16.421  0.00  0.00    +0.000 A 
ATOM     21  C   UNL     1       3.965   7.537  17.046  0.00  0.00    +0.000 A 
BRANCH  19  22
ATOM     22  C   UNL     1       6.632   4.880  16.305  0.00  0.00    +0.000 C 
ATOM     23  C   UNL     1       7.641   4.443  17.372  0.00  0.00    +0.000 C 
ATOM     24  C   UNL     1       6.179   3.675  15.470  0.00  0.00    +0.000 C 
BRANCH  22  25
ATOM     25  O   UNL     1       7.325   5.749  15.398  0.00  0.00    +0.000 OA
ATOM     26  H   UNL     1       6.701   6.449  15.142  0.00  0.00    +0.000 HD
ENDBRANCH  22  25
ENDBRANCH  19  22
ENDBRANCH   2  16
TORSDOF 4
ENDMDL
MODEL 4
REMARK VINA RESULT:      -7.5      1.035      1.091
REMARK  Name = 
REMARK  8 active torsions:
REMARK  status: ('A' for Active; 'I' for Inactive)
REMARK    1  A    between atoms: C_1  and  C_2
REMARK    2  A    between atoms: N_4  and  C_5
REMARK    3  A    between atoms: C_8  and  N_9
REMARK    4  A    between atoms: C_10  and  C_12
REMARK    5  A    between atoms: C_15  and  C_16
REMARK    6  A    between atoms: C_16  and  C_17
REMARK    7  A    between atoms: C_16  and  C_18
REMARK    8  A    between atoms: C_16  and  O_19
REMARK                            x       y       z     vdW  Elec       q    Type
REMARK                         _______ _______ _______ _____ _____    ______ ____
ROOT
ATOM      1  N   UNL     1       1.478   9.177  19.222  0.00  0.00    +0.000 N 
ATOM      2  C   UNL     1       1.762   7.960  19.836  0.00  0.00    +0.000 C 
ATOM      3  O   UNL     1       1.254   7.505  20.852  0.00  0.00    +0.000 OA
ATOM      4  H   UNL     1       1.927   9.414  18.355  0.00  0.00    +0.000 HD
ENDROOT
BRANCH   1  12
ATOM      5  C   UNL     1      -2.582  13.554  22.212  0.00  0.00    +0.000 C 
ATOM      6  C   UNL     1      -2.427  12.716  20.995  0.00  0.00    +0.000 A 
ATOM      7  C   UNL     1      -3.290  12.618  19.926  0.00  0.00    +0.000 A 
ATOM      8  N   UNL     1      -2.763  11.733  19.018  0.00  0.00    +0.000 N 
ATOM      9  C   UNL     1      -3.403  11.390  17.767  0.00  0.00    +0.000 C 
ATOM     10  C   UNL     1      -1.555  11.241  19.475  0.00  0.00    +0.000 A 
ATOM     11  C   UNL     1      -0.630  10.328  18.937  0.00  0.00    +0.000 A 
ATOM     12  C   UNL     1       0.512  10.081  19.707  0.00  0.00    +0.000 A 
ATOM     13  N   UNL     1       0.727  10.664  20.894  0.00  0.00    +0.000 NA
ATOM     14  C   UNL     1      -0.167  11.529  21.411  0.00  0.00    +0.000 A 
ATOM     15  C   UNL     1      -1.330  11.847  20.715  0.00  0.00    +0.000 A 
ENDBRANCH   1  12
BRANCH   2  16
ATOM     16  C   UNL     1       2.774   7.102  19.165  0.00  0.00    +0.000 A 
ATOM     17  C   UNL     1       3.205   5.888  19.692  0.00  0.00    +0.000 A 
ATOM     18  C   UNL     1       4.196   5.150  19.034  0.00  0.00    +0.000 A 
ATOM     19  C   UNL     1       4.761   5.597  17.825  0.00  0.00    +0.000 A 
ATOM     20  C   UNL     1       4.258   6.781  17.264  0.00  0.00    +0.000 A 
ATOM     21  C   UNL     1       3.280   7.527  17.926  0.00  0.00    +0.000 A 
BRANCH  19  22
ATOM     22  C   UNL     1       5.905   4.838  17.150  0.00  0.00    +0.000 C 
ATOM     23  C   UNL     1       5.394   3.962  16.001  0.00  0.00    +0.000 C 
ATOM     24  C   UNL     1       6.987   5.802  16.648  0.00  0.00    +0.000 C 
BRANCH  22  25
ATOM     25  O   UNL     1       6.555   3.969  18.087  0.00  0.00    +0.000 OA
ATOM     26  H   UNL     1       7.495   3.940  17.842  0.00  0.00    +0.000 HD
ENDBRANCH  22  25
ENDBRANCH  19  22
ENDBRANCH   2  16
TORSDOF 4
ENDMDL
MODEL 5
REMARK VINA RESULT:      -7.5      1.348      1.907
REMARK  Name = 
REMARK  8 active torsions:
REMARK  status: ('A' for Active; 'I' for Inactive)
REMARK    1  A    between atoms: C_1  and  C_2
REMARK    2  A    between atoms: N_4  and  C_5
REMARK    3  A    between atoms: C_8  and  N_9
REMARK    4  A    between atoms: C_10  and  C_12
REMARK    5  A    between atoms: C_15  and  C_16
REMARK    6  A    between atoms: C_16  and  C_17
REMARK    7  A    between atoms: C_16  and  C_18
REMARK    8  A    between atoms: C_16  and  O_19
REMARK                            x       y       z     vdW  Elec       q    Type
REMARK                         _______ _______ _______ _____ _____    ______ ____
ROOT
ATOM      1  N   UNL     1       1.231   8.991  19.726  0.00  0.00    +0.000 N 
ATOM      2  C   UNL     1       1.872   8.887  18.494  0.00  0.00    +0.000 C 
ATOM      3  O   UNL     1       1.870   9.706  17.586  0.00  0.00    +0.000 OA
ATOM      4  H   UNL     1       1.355   8.269  20.414  0.00  0.00    +0.000 HD
ENDROOT
BRANCH   1  12
ATOM      5  C   UNL     1      -1.742  14.469  22.123  0.00  0.00    +0.000 C 
ATOM      6  C   UNL     1      -1.886  13.379  21.123  0.00  0.00    +0.000 A 
ATOM      7  C   UNL     1      -2.915  13.190  20.227  0.00  0.00    +0.000 A 
ATOM      8  N   UNL     1      -2.650  12.064  19.488  0.00  0.00    +0.000 N 
ATOM      9  C   UNL     1      -3.519  11.566  18.444  0.00  0.00    +0.000 C 
ATOM     10  C   UNL     1      -1.452  11.501  19.886  0.00  0.00    +0.000 A 
ATOM     11  C   UNL     1      -0.742  10.364  19.459  0.00  0.00    +0.000 A 
ATOM     12  C   UNL     1       0.471  10.114  20.110  0.00  0.00    +0.000 A 
ATOM     13  N   UNL     1       0.942  10.895  21.092  0.00  0.00    +0.000 NA
ATOM     14  C   UNL     1       0.254  11.976  21.506  0.00  0.00    +0.000 A 
ATOM     15  C   UNL     1      -0.960  12.313  20.912  0.00  0.00    +0.000 A 
ENDBRANCH   1  12
BRANCH   2  16
ATOM     16  C   UNL     1       2.674   7.655  18.269  0.00  0.00    +0.000 A 
ATOM     17  C   UNL     1       3.728   7.596  17.362  0.00  0.00    +0.000 A 
ATOM     18  C   UNL     1       4.414   6.392  17.163  0.00  0.00    +0.000 A 
ATOM     19  C   UNL     1       4.076   5.229  17.879  0.00  0.00    +0.000 A 
ATOM     20  C   UNL     1       3.065   5.325  18.847  0.00  0.00    +0.000 A 
ATOM     21  C   UNL     1       2.369   6.522  19.039  0.00  0.00    +0.000 A 
BRANCH  19  22
ATOM     22  C   UNL     1       4.764   3.891  17.599  0.00  0.00    +0.000 C 
ATOM     23  C   UNL     1       3.785   2.720  17.732  0.00  0.00    +0.000 C 
ATOM     24  C   UNL     1       5.421   3.886  16.213  0.00  0.00    +0.000 C 
BRANCH  22  25
ATOM     25  O   UNL     1       5.824   3.664  18.538  0.00  0.00    +0.000 OA
ATOM     26  H   UNL     1       6.578   4.205  18.252  0.00  0.00    +0.000 HD
ENDBRANCH  22  25
ENDBRANCH  19  22
ENDBRANCH   2  16
TORSDOF 4
ENDMDL
MODEL 6
REMARK VINA RESULT:      -7.4      1.202      1.663
REMARK  Name = 
REMARK  8 active torsions:
REMARK  status: ('A' for Active; 'I' for Inactive)
REMARK    1  A    between atoms: C_1  and  C_2
REMARK    2  A    between atoms: N_4  and  C_5
REMARK    3  A    between atoms: C_8  and  N_9
REMARK    4  A    between atoms: C_10  and  C_12
REMARK    5  A    between atoms: C_15  and  C_16
REMARK    6  A    between atoms: C_16  and  C_17
REMARK    7  A    between atoms: C_16  and  C_18
REMARK    8  A    between atoms: C_16  and  O_19
REMARK                            x       y       z     vdW  Elec       q    Type
REMARK                         _______ _______ _______ _____ _____    ______ ____
ROOT
ATOM      1  N   UNL     1       2.289   8.293  18.636  0.00  0.00    +0.000 N 
ATOM      2  C   UNL     1       2.560   6.948  18.872  0.00  0.00    +0.000 C 
ATOM      3  O   UNL     1       2.105   6.246  19.764  0.00  0.00    +0.000 OA
ATOM      4  H   UNL     1       2.687   8.747  17.832  0.00  0.00    +0.000 HD
ENDROOT
BRANCH   1  12
ATOM      5  C   UNL     1      -1.601  11.456  23.045  0.00  0.00    +0.000 C 
ATOM      6  C   UNL     1      -1.268  11.372  21.600  0.00  0.00    +0.000 A 
ATOM      7  C   UNL     1      -1.807  12.109  20.569  0.00  0.00    +0.000 A 
ATOM      8  N   UNL     1      -1.215  11.715  19.394  0.00  0.00    +0.000 N 
ATOM      9  C   UNL     1      -1.537  12.283  18.103  0.00  0.00    +0.000 C 
ATOM     10  C   UNL     1      -0.285  10.722  19.636  0.00  0.00    +0.000 A 
ATOM     11  C   UNL     1       0.576   9.993  18.796  0.00  0.00    +0.000 A 
ATOM     12  C   UNL     1       1.402   9.053  19.423  0.00  0.00    +0.000 A 
ATOM     13  N   UNL     1       1.381   8.838  20.746  0.00  0.00    +0.000 NA
ATOM     14  C   UNL     1       0.547   9.529  21.546  0.00  0.00    +0.000 A 
ATOM     15  C   UNL     1      -0.306  10.494  21.015  0.00  0.00    +0.000 A 
ENDBRANCH   1  12
BRANCH   2  16
ATOM     16  C   UNL     1       3.483   6.282  17.915  0.00  0.00    +0.000 A 
ATOM     17  C   UNL     1       4.431   6.977  17.171  0.00  0.00    +0.000 A 
ATOM     18  C   UNL     1       5.237   6.295  16.252  0.00  0.00    +0.000 A 
ATOM     19  C   UNL     1       5.130   4.904  16.073  0.00  0.00    +0.000 A 
ATOM     20  C   UNL     1       4.227   4.205  16.889  0.00  0.00    +0.000 A 
ATOM     21  C   UNL     1       3.410   4.885  17.797  0.00  0.00    +0.000 A 
BRANCH  19  22
ATOM     22  C   UNL     1       5.946   4.170  15.008  0.00  0.00    +0.000 C 
ATOM     23  C   UNL     1       5.168   4.043  13.694  0.00  0.00    +0.000 C 
ATOM     24  C   UNL     1       7.293   4.865  14.768  0.00  0.00    +0.000 C 
BRANCH  22  25
ATOM     25  O   UNL     1       6.261   2.840  15.442  0.00  0.00    +0.000 OA
ATOM     26  H   UNL     1       7.041   2.906  16.018  0.00  0.00    +0.000 HD
ENDBRANCH  22  25
ENDBRANCH  19  22
ENDBRANCH   2  16
TORSDOF 4
ENDMDL
MODEL 7
REMARK VINA RESULT:      -7.4      1.150      1.989
REMARK  Name = 
REMARK  8 active torsions:
REMARK  status: ('A' for Active; 'I' for Inactive)
REMARK    1  A    between atoms: C_1  and  C_2
REMARK    2  A    between atoms: N_4  and  C_5
REMARK    3  A    between atoms: C_8  and  N_9
REMARK    4  A    between atoms: C_10  and  C_12
REMARK    5  A    between atoms: C_15  and  C_16
REMARK    6  A    between atoms: C_16  and  C_17
REMARK    7  A    between atoms: C_16  and  C_18
REMARK    8  A    between atoms: C_16  and  O_19
REMARK                            x       y       z     vdW  Elec       q    Type
REMARK                         _______ _______ _______ _____ _____    ______ ____
ROOT
ATOM      1  N   UNL     1       1.534   9.035  18.067  0.00  0.00    +0.000 N 
ATOM      2  C   UNL     1       2.097   8.015  18.830  0.00  0.00    +0.000 C 
ATOM      3  O   UNL     1       1.946   7.814  20.027  0.00  0.00    +0.000 OA
ATOM      4  H   UNL     1       1.693   9.060  17.075  0.00  0.00    +0.000 HD
ENDROOT
BRANCH   1  12
ATOM      5  C   UNL     1      -3.227  13.171  20.261  0.00  0.00    +0.000 C 
ATOM      6  C   UNL     1      -1.756  12.964  20.225  0.00  0.00    +0.000 A 
ATOM      7  C   UNL     1      -0.781  13.767  20.773  0.00  0.00    +0.000 A 
ATOM      8  N   UNL     1       0.445  13.207  20.510  0.00  0.00    +0.000 N 
ATOM      9  C   UNL     1       1.700  13.782  20.944  0.00  0.00    +0.000 C 
ATOM     10  C   UNL     1       0.293  12.037  19.791  0.00  0.00    +0.000 A 
ATOM     11  C   UNL     1       1.211  11.101  19.282  0.00  0.00    +0.000 A 
ATOM     12  C   UNL     1       0.666  10.009  18.599  0.00  0.00    +0.000 A 
ATOM     13  N   UNL     1      -0.653   9.850  18.421  0.00  0.00    +0.000 NA
ATOM     14  C   UNL     1      -1.530  10.754  18.900  0.00  0.00    +0.000 A 
ATOM     15  C   UNL     1      -1.082  11.870  19.603  0.00  0.00    +0.000 A 
ENDBRANCH   1  12
BRANCH   2  16
ATOM     16  C   UNL     1       2.952   7.040  18.102  0.00  0.00    +0.000 A 
ATOM     17  C   UNL     1       2.716   5.669  18.116  0.00  0.00    +0.000 A 
ATOM     18  C   UNL     1       3.587   4.801  17.447  0.00  0.00    +0.000 A 
ATOM     19  C   UNL     1       4.699   5.285  16.734  0.00  0.00    +0.000 A 
ATOM     20  C   UNL     1       4.878   6.675  16.661  0.00  0.00    +0.000 A 
ATOM     21  C   UNL     1       4.018   7.543  17.339  0.00  0.00    +0.000 A 
BRANCH  19  22
ATOM     22  C   UNL     1       5.702   4.334  16.078  0.00  0.00    +0.000 C 
ATOM     23  C   UNL     1       5.621   4.403  14.549  0.00  0.00    +0.000 C 
ATOM     24  C   UNL     1       7.131   4.625  16.552  0.00  0.00    +0.000 C 
BRANCH  22  25
ATOM     25  O   UNL     1       5.431   2.977  16.454  0.00  0.00    +0.000 OA
ATOM     26  H   UNL     1       6.283   2.570  16.682  0.00  0.00    +0.000 HD
ENDBRANCH  22  25
ENDBRANCH  19  22
ENDBRANCH   2  16
TORSDOF 4
ENDMDL
MODEL 8
REMARK VINA RESULT:      -7.3      2.393      9.093
REMARK  Name = 
REMARK  8 active torsions:
REMARK  status: ('A' for Active; 'I' for Inactive)
REMARK    1  A    between atoms: C_1  and  C_2
REMARK    2  A    between atoms: N_4  and  C_5
REMARK    3  A    between atoms: C_8  and  N_9
REMARK    4  A    between atoms: C_10  and  C_12
REMARK    5  A    between atoms: C_15  and  C_16
REMARK    6  A    between atoms: C_16  and  C_17
REMARK    7  A    between atoms: C_16  and  C_18
REMARK    8  A    between atoms: C_16  and  O_19
REMARK                            x       y       z     vdW  Elec       q    Type
REMARK                         _______ _______ _______ _____ _____    ______ ____
ROOT
ATOM      1  N   UNL     1       1.836   8.185  19.152  0.00  0.00    +0.000 N 
ATOM      2  C   UNL     1       1.428   8.021  20.473  0.00  0.00    +0.000 C 
ATOM      3  O   UNL     1       1.681   7.083  21.216  0.00  0.00    +0.000 OA
ATOM      4  H   UNL     1       1.608   9.032  18.661  0.00  0.00    +0.000 HD
ENDROOT
BRANCH   1  12
ATOM      5  C   UNL     1       6.142   4.443  15.681  0.00  0.00    +0.000 C 
ATOM      6  C   UNL     1       4.915   4.378  16.517  0.00  0.00    +0.000 A 
ATOM      7  C   UNL     1       4.197   3.256  16.869  0.00  0.00    +0.000 A 
ATOM      8  N   UNL     1       3.137   3.644  17.652  0.00  0.00    +0.000 N 
ATOM      9  C   UNL     1       2.171   2.723  18.207  0.00  0.00    +0.000 C 
ATOM     10  C   UNL     1       3.145   5.016  17.822  0.00  0.00    +0.000 A 
ATOM     11  C   UNL     1       2.299   5.897  18.521  0.00  0.00    +0.000 A 
ATOM     12  C   UNL     1       2.643   7.252  18.470  0.00  0.00    +0.000 A 
ATOM     13  N   UNL     1       3.708   7.706  17.794  0.00  0.00    +0.000 NA
ATOM     14  C   UNL     1       4.509   6.861  17.117  0.00  0.00    +0.000 A 
ATOM     15  C   UNL     1       4.254   5.492  17.116  0.00  0.00    +0.000 A 
ENDBRANCH   1  12
BRANCH   2  16
ATOM     16  C   UNL     1       0.621   9.125  21.057  0.00  0.00    +0.000 A 
ATOM     17  C   UNL     1       0.326   9.209  22.414  0.00  0.00    +0.000 A 
ATOM     18  C   UNL     1      -0.480  10.249  22.893  0.00  0.00    +0.000 A 
ATOM     19  C   UNL     1      -0.989  11.238  22.032  0.00  0.00    +0.000 A 
ATOM     20  C   UNL     1      -0.616  11.185  20.680  0.00  0.00    +0.000 A 
ATOM     21  C   UNL     1       0.176  10.141  20.196  0.00  0.00    +0.000 A 
BRANCH  19  22
ATOM     22  C   UNL     1      -1.941  12.324  22.536  0.00  0.00    +0.000 C 
ATOM     23  C   UNL     1      -1.174  13.491  23.167  0.00  0.00    +0.000 C 
ATOM     24  C   UNL     1      -2.851  12.828  21.410  0.00  0.00    +0.000 C 
BRANCH  22  25
ATOM     25  O   UNL     1      -2.815  11.799  23.545  0.00  0.00    +0.000 OA
ATOM     26  H   UNL     1      -3.444  11.208  23.096  0.00  0.00    +0.000 HD
ENDBRANCH  22  25
ENDBRANCH  19  22
ENDBRANCH   2  16
TORSDOF 4
ENDMDL
MODEL 9
REMARK VINA RESULT:      -7.3      2.411      9.131
REMARK  Name = 
REMARK  8 active torsions:
REMARK  status: ('A' for Active; 'I' for Inactive)
REMARK    1  A    between atoms: C_1  and  C_2
REMARK    2  A    between atoms: N_4  and  C_5
REMARK    3  A    between atoms: C_8  and  N_9
REMARK    4  A    between atoms: C_10  and  C_12
REMARK    5  A    between atoms: C_15  and  C_16
REMARK    6  A    between atoms: C_16  and  C_17
REMARK    7  A    between atoms: C_16  and  C_18
REMARK    8  A    between atoms: C_16  and  O_19
REMARK                            x       y       z     vdW  Elec       q    Type
REMARK                         _______ _______ _______ _____ _____    ______ ____
ROOT
ATOM      1  N   UNL     1       1.858   8.180  18.995  0.00  0.00    +0.000 N 
ATOM      2  C   UNL     1       1.434   8.092  20.318  0.00  0.00    +0.000 C 
ATOM      3  O   UNL     1       1.665   7.191  21.113  0.00  0.00    +0.000 OA
ATOM      4  H   UNL     1       1.646   9.002  18.458  0.00  0.00    +0.000 HD
ENDROOT
BRANCH   1  12
ATOM      5  C   UNL     1       6.153   4.200  15.786  0.00  0.00    +0.000 C 
ATOM      6  C   UNL     1       4.909   4.197  16.598  0.00  0.00    +0.000 A 
ATOM      7  C   UNL     1       4.160   3.107  16.985  0.00  0.00    +0.000 A 
ATOM      8  N   UNL     1       3.093   3.551  17.727  0.00  0.00    +0.000 N 
ATOM      9  C   UNL     1       2.097   2.675  18.303  0.00  0.00    +0.000 C 
ATOM     10  C   UNL     1       3.126   4.928  17.836  0.00  0.00    +0.000 A 
ATOM     11  C   UNL     1       2.285   5.857  18.477  0.00  0.00    +0.000 A 
ATOM     12  C   UNL     1       2.658   7.201  18.373  0.00  0.00    +0.000 A 
ATOM     13  N   UNL     1       3.746   7.603  17.700  0.00  0.00    +0.000 NA
ATOM     14  C   UNL     1       4.542   6.712  17.078  0.00  0.00    +0.000 A 
ATOM     15  C   UNL     1       4.259   5.350  17.133  0.00  0.00    +0.000 A 
ENDBRANCH   1  12
BRANCH   2  16
ATOM     16  C   UNL     1       0.636   9.236  20.834  0.00  0.00    +0.000 A 
ATOM     17  C   UNL     1       0.258  10.313  20.038  0.00  0.00    +0.000 A 
ATOM     18  C   UNL     1      -0.453  11.382  20.597  0.00  0.00    +0.000 A 
ATOM     19  C   UNL     1      -0.821  11.387  21.955  0.00  0.00    +0.000 A 
ATOM     20  C   UNL     1      -0.504  10.257  22.725  0.00  0.00    +0.000 A 
ATOM     21  C   UNL     1       0.219   9.196  22.174  0.00  0.00    +0.000 A 
BRANCH  19  22
ATOM     22  C   UNL     1      -1.520  12.591  22.589  0.00  0.00    +0.000 C 
ATOM     23  C   UNL     1      -1.929  13.621  21.531  0.00  0.00    +0.000 C 
ATOM     24  C   UNL     1      -2.739  12.153  23.411  0.00  0.00    +0.000 C 
BRANCH  22  25
ATOM     25  O   UNL     1      -0.643  13.256  23.508  0.00  0.00    +0.000 OA
ATOM     26  H   UNL     1      -1.178  13.510  24.279  0.00  0.00    +0.000 HD
ENDBRANCH  22  25
ENDBRANCH  19  22
ENDBRANCH   2  16
TORSDOF 4
ENDMDL
