MODEL 1
REMARK VINA RESULT:      -7.8      0.000      0.000
REMARK  Name = 
REMARK  9 active torsions:
REMARK  status: ('A' for Active; 'I' for Inactive)
REMARK    1  A    between atoms: C_1  and  O_2
REMARK    2  A    between atoms: O_2  and  C_3
REMARK    3  A    between atoms: C_5  and  O_6
REMARK    4  A    between atoms: O_6  and  C_7
REMARK    5  A    between atoms: C_7  and  C_8
REMARK    6  A    between atoms: C_11  and  C_12
REMARK    7  A    between atoms: C_21  and  C_22
REMARK    8  A    between atoms: C_26  and  O_27
REMARK    9  A    between atoms: O_27  and  C_28
REMARK                            x       y       z     vdW  Elec       q    Type
REMARK                         _______ _______ _______ _____ _____    ______ ____
ROOT
ATOM      1  C   UNL     1      -0.334  10.726  21.590  0.00  0.00    +0.000 A 
ATOM      2  C   UNL     1      -0.837  11.231  20.389  0.00  0.00    +0.000 A 
ATOM      3  C   UNL     1      -0.388  10.738  19.151  0.00  0.00    +0.000 A 
ATOM      4  C   UNL     1       0.543   9.678  19.134  0.00  0.00    +0.000 A 
ATOM      5  C   UNL     1       1.208   8.900  18.152  0.00  0.00    +0.000 A 
ATOM      6  C   UNL     1       2.008   8.005  18.810  0.00  0.00    +0.000 A 
ATOM      7  O   UNL     1       1.895   8.178  20.159  0.00  0.00    +0.000 OA
ATOM      8  C   UNL     1       1.009   9.199  20.352  0.00  0.00    +0.000 A 
ATOM      9  C   UNL     1       0.621   9.703  21.590  0.00  0.00    +0.000 A 
ENDROOT
BRANCH   6  10
ATOM     10  C   UNL     1       2.850   7.005  18.115  0.00  0.00    +0.000 A 
ATOM     11  C   UNL     1       3.799   7.320  17.168  0.00  0.00    +0.000 A 
ATOM     12  N   UNL     1       4.332   6.119  16.837  0.00  0.00    +0.000 N 
ATOM     13  N   UNL     1       5.317   5.787  15.985  0.00  0.00    +0.000 NA
ATOM     14  C   UNL     1       5.425   4.494  16.070  0.00  0.00    +0.000 A 
ATOM     15  S   UNL     1       4.332   3.628  17.182  0.00  0.00    +0.000 S 
ATOM     16  C   UNL     1       3.692   5.168  17.562  0.00  0.00    +0.000 A 
ATOM     17  N   UNL     1       2.784   5.642  18.366  0.00  0.00    +0.000 NA
BRANCH  14  18
ATOM     18  O   UNL     1       6.330   3.776  15.361  0.00  0.00    +0.000 OA
ATOM     19  C   UNL     1       7.057   4.526  14.382  0.00  0.00    +0.000 C 
ENDBRANCH  14  18
ENDBRANCH   6  10
BRANCH   1  21
ATOM     20  C   UNL     1      -1.103  12.551  22.895  0.00  0.00    +0.000 C 
ATOM     21  O   UNL     1      -0.666  11.197  22.834  0.00  0.00    +0.000 OA
ENDBRANCH   1  21
BRANCH   3  22
ATOM     22  O   UNL     1      -0.941  11.356  18.041  0.00  0.00    +0.000 OA
BRANCH  22  23
ATOM     23  C   UNL     1      -1.886  10.548  17.330  0.00  0.00    +0.000 C 
BRANCH  23  24
ATOM     24  C   UNL     1      -3.278  11.054  17.466  0.00  0.00    +0.000 A 
ATOM     25  C   UNL     1      -4.052  11.593  16.461  0.00  0.00    +0.000 A 
ATOM     26  S   UNL     1      -5.597  11.987  17.063  0.00  0.00    +0.000 S 
ATOM     27  C   UNL     1      -5.138  11.415  18.627  0.00  0.00    +0.000 A 
ATOM     28  N   UNL     1      -3.907  10.943  18.698  0.00  0.00    +0.000 NA
BRANCH  27  29
ATOM     29  C   UNL     1      -6.075  11.473  19.754  0.00  0.00    +0.000 A 
ATOM     30  C   UNL     1      -5.980  12.467  20.724  0.00  0.00    +0.000 A 
ATOM     31  N   UNL     1      -6.844  12.564  21.769  0.00  0.00    +0.000 NA
ATOM     32  C   UNL     1      -7.812  11.623  21.803  0.00  0.00    +0.000 A 
ATOM     33  C   UNL     1      -7.913  10.628  20.846  0.00  0.00    +0.000 A 
ATOM     34  N   UNL     1      -7.053  10.531  19.809  0.00  0.00    +0.000 NA
ENDBRANCH  27  29
ENDBRANCH  23  24
ENDBRANCH  22  23
ENDBRANCH   3  22
TORSDOF 7
ENDMDL
MODEL 2
REMARK VINA RESULT:      -7.7      5.605      9.552
REMARK  Name = 
REMARK  9 active torsions:
REMARK  status: ('A' for Active; 'I' for Inactive)
REMARK    1  A    between atoms: C_1  and  O_2
REMARK    2  A    between atoms: O_2  and  C_3
REMARK    3  A    between atoms: C_5  and  O_6
REMARK    4  A    between atoms: O_6  and  C_7
REMARK    5  A    between atoms: C_7  and  C_8
REMARK    6  A    between atoms: C_11  and  C_12
REMARK    7  A    between atoms: C_21  and  C_22
REMARK    8  A    between atoms: C_26  and  O_27
REMARK    9  A    between atoms: O_27  and  C_28
REMARK                            x       y       z     vdW  Elec       q    Type
REMARK                         _______ _______ _______ _____ _____    ______ ____
ROOT
ATOM      1  C   UNL     1       6.382   4.195  15.593  0.00  0.00    +0.000 A 
ATOM      2  C   UNL     1       6.036   3.794  16.886  0.00  0.00    +0.000 A 
ATOM      3  C   UNL     1       6.332   4.602  17.999  0.00  0.00    +0.000 A 
ATOM      4  C   UNL     1       6.938   5.858  17.789  0.00  0.00    +0.000 A 
ATOM      5  C   UNL     1       7.364   6.948  18.590  0.00  0.00    +0.000 A 
ATOM      6  C   UNL     1       7.891   7.894  17.751  0.00  0.00    +0.000 A 
ATOM      7  O   UNL     1       7.830   7.460  16.459  0.00  0.00    +0.000 OA
ATOM      8  C   UNL     1       7.256   6.221  16.486  0.00  0.00    +0.000 A 
ATOM      9  C   UNL     1       7.021   5.420  15.372  0.00  0.00    +0.000 A 
ENDROOT
BRANCH   6  10
ATOM     10  C   UNL     1       8.428   9.190  18.224  0.00  0.00    +0.000 A 
ATOM     11  C   UNL     1       9.123   9.354  19.401  0.00  0.00    +0.000 A 
ATOM     12  N   UNL     1       9.438  10.672  19.406  0.00  0.00    +0.000 N 
ATOM     13  N   UNL     1      10.134  11.418  20.281  0.00  0.00    +0.000 NA
ATOM     14  C   UNL     1      10.140  12.619  19.782  0.00  0.00    +0.000 A 
ATOM     15  S   UNL     1       9.298  12.893  18.234  0.00  0.00    +0.000 S 
ATOM     16  C   UNL     1       8.924  11.225  18.279  0.00  0.00    +0.000 A 
ATOM     17  N   UNL     1       8.304  10.374  17.512  0.00  0.00    +0.000 NA
BRANCH  14  18
ATOM     18  O   UNL     1      10.760  13.667  20.377  0.00  0.00    +0.000 OA
ATOM     19  C   UNL     1      11.663  14.389  19.532  0.00  0.00    +0.000 C 
ENDBRANCH  14  18
ENDBRANCH   6  10
BRANCH   1  21
ATOM     20  C   UNL     1       5.437   4.047  13.423  0.00  0.00    +0.000 C 
ATOM     21  O   UNL     1       6.192   3.438  14.465  0.00  0.00    +0.000 OA
ENDBRANCH   1  21
BRANCH   3  22
ATOM     22  O   UNL     1       5.967   4.066  19.223  0.00  0.00    +0.000 OA
BRANCH  22  23
ATOM     23  C   UNL     1       4.716   3.369  19.209  0.00  0.00    +0.000 C 
BRANCH  23  24
ATOM     24  C   UNL     1       3.586   4.228  19.654  0.00  0.00    +0.000 A 
ATOM     25  C   UNL     1       2.612   3.887  20.567  0.00  0.00    +0.000 A 
ATOM     26  S   UNL     1       1.553   5.200  20.807  0.00  0.00    +0.000 S 
ATOM     27  C   UNL     1       2.458   6.143  19.678  0.00  0.00    +0.000 A 
ATOM     28  N   UNL     1       3.501   5.522  19.158  0.00  0.00    +0.000 NA
BRANCH  27  29
ATOM     29  C   UNL     1       2.058   7.516  19.353  0.00  0.00    +0.000 A 
ATOM     30  C   UNL     1       1.460   8.340  20.301  0.00  0.00    +0.000 A 
ATOM     31  N   UNL     1       1.097   9.624  20.039  0.00  0.00    +0.000 NA
ATOM     32  C   UNL     1       1.360  10.051  18.786  0.00  0.00    +0.000 A 
ATOM     33  C   UNL     1       1.951   9.238  17.834  0.00  0.00    +0.000 A 
ATOM     34  N   UNL     1       2.310   7.962  18.093  0.00  0.00    +0.000 NA
ENDBRANCH  27  29
ENDBRANCH  23  24
ENDBRANCH  22  23
ENDBRANCH   3  22
TORSDOF 7
ENDMDL
MODEL 3
REMARK VINA RESULT:      -7.6      4.349      6.230
REMARK  Name = 
REMARK  9 active torsions:
REMARK  status: ('A' for Active; 'I' for Inactive)
REMARK    1  A    between atoms: C_1  and  O_2
REMARK    2  A    between atoms: O_2  and  C_3
REMARK    3  A    between atoms: C_5  and  O_6
REMARK    4  A    between atoms: O_6  and  C_7
REMARK    5  A    between atoms: C_7  and  C_8
REMARK    6  A    between atoms: C_11  and  C_12
REMARK    7  A    between atoms: C_21  and  C_22
REMARK    8  A    between atoms: C_26  and  O_27
REMARK    9  A    between atoms: O_27  and  C_28
REMARK                            x       y       z     vdW  Elec       q    Type
REMARK                         _______ _______ _______ _____ _____    ______ ____
ROOT
ATOM      1  C   UNL     1      -0.374  10.689  22.013  0.00  0.00    +0.000 A 
ATOM      2  C   UNL     1      -0.389  11.554  20.916  0.00  0.00    +0.000 A 
ATOM      3  C   UNL     1       0.270  11.218  19.720  0.00  0.00    +0.000 A 
ATOM      4  C   UNL     1       0.905   9.963  19.618  0.00  0.00    +0.000 A 
ATOM      5  C   UNL     1       1.629   9.247  18.631  0.00  0.00    +0.000 A 
ATOM      6  C   UNL     1       1.988   8.043  19.178  0.00  0.00    +0.000 A 
ATOM      7  O   UNL     1       1.539   7.960  20.463  0.00  0.00    +0.000 OA
ATOM      8  C   UNL     1       0.887   9.129  20.730  0.00  0.00    +0.000 A 
ATOM      9  C   UNL     1       0.286   9.457  21.942  0.00  0.00    +0.000 A 
ENDROOT
BRANCH   6  10
ATOM     10  C   UNL     1       2.746   7.009  18.437  0.00  0.00    +0.000 A 
ATOM     11  C   UNL     1       3.749   7.285  17.536  0.00  0.00    +0.000 A 
ATOM     12  N   UNL     1       4.169   6.060  17.138  0.00  0.00    +0.000 N 
ATOM     13  N   UNL     1       5.141   5.685  16.289  0.00  0.00    +0.000 NA
ATOM     14  C   UNL     1       5.116   4.384  16.291  0.00  0.00    +0.000 A 
ATOM     15  S   UNL     1       3.910   3.565  17.318  0.00  0.00    +0.000 S 
ATOM     16  C   UNL     1       3.416   5.135  17.784  0.00  0.00    +0.000 A 
ATOM     17  N   UNL     1       2.537   5.647  18.597  0.00  0.00    +0.000 NA
BRANCH  14  18
ATOM     18  O   UNL     1       5.966   3.624  15.557  0.00  0.00    +0.000 OA
ATOM     19  C   UNL     1       6.751   4.350  14.606  0.00  0.00    +0.000 C 
ENDBRANCH  14  18
ENDBRANCH   6  10
BRANCH   1  21
ATOM     20  C   UNL     1      -1.742  12.137  23.299  0.00  0.00    +0.000 C 
ATOM     21  O   UNL     1      -0.931  10.969  23.234  0.00  0.00    +0.000 OA
ENDBRANCH   1  21
BRANCH   3  22
ATOM     22  O   UNL     1       0.208  12.184  18.728  0.00  0.00    +0.000 OA
BRANCH  22  23
ATOM     23  C   UNL     1      -0.479  13.379  19.116  0.00  0.00    +0.000 C 
BRANCH  23  24
ATOM     24  C   UNL     1       0.384  14.587  19.013  0.00  0.00    +0.000 A 
ATOM     25  C   UNL     1      -0.038  15.870  18.743  0.00  0.00    +0.000 A 
ATOM     26  S   UNL     1       1.289  16.938  18.774  0.00  0.00    +0.000 S 
ATOM     27  C   UNL     1       2.345  15.623  19.147  0.00  0.00    +0.000 A 
ATOM     28  N   UNL     1       1.744  14.452  19.255  0.00  0.00    +0.000 NA
BRANCH  27  29
ATOM     29  C   UNL     1       3.786  15.839  19.315  0.00  0.00    +0.000 A 
ATOM     30  C   UNL     1       4.573  14.944  20.033  0.00  0.00    +0.000 A 
ATOM     31  N   UNL     1       5.915  15.102  20.189  0.00  0.00    +0.000 NA
ATOM     32  C   UNL     1       6.438  16.195  19.593  0.00  0.00    +0.000 A 
ATOM     33  C   UNL     1       5.663  17.093  18.879  0.00  0.00    +0.000 A 
ATOM     34  N   UNL     1       4.330  16.937  18.726  0.00  0.00    +0.000 NA
ENDBRANCH  27  29
ENDBRANCH  23  24
ENDBRANCH  22  23
ENDBRANCH   3  22
TORSDOF 7
ENDMDL
MODEL 4
REMARK VINA RESULT:      -7.4      4.713      6.923
REMARK  Name = 
REMARK  9 active torsions:
REMARK  status: ('A' for Active; 'I' for Inactive)
REMARK    1  A    between atoms: C_1  and  O_2
REMARK    2  A    between atoms: O_2  and  C_3
REMARK    3  A    between atoms: C_5  and  O_6
REMARK    4  A    between atoms: O_6  and  C_7
REMARK    5  A    between atoms: C_7  and  C_8
REMARK    6  A    between atoms: C_11  and  C_12
REMARK    7  A    between atoms: C_21  and  C_22
REMARK    8  A    between atoms: C_26  and  O_27
REMARK    9  A    between atoms: O_27  and  C_28
REMARK                            x       y       z     vdW  Elec       q    Type
REMARK                         _______ _______ _______ _____ _____    ______ ____
ROOT
ATOM      1  C   UNL     1      -0.421  10.292  21.912  0.00  0.00    +0.000 A 
ATOM      2  C   UNL     1      -0.398  11.227  20.874  0.00  0.00    +0.000 A 
ATOM      3  C   UNL     1       0.329  10.983  19.695  0.00  0.00    +0.000 A 
ATOM      4  C   UNL     1       0.994   9.748  19.545  0.00  0.00    +0.000 A 
ATOM      5  C   UNL     1       1.782   9.111  18.553  0.00  0.00    +0.000 A 
ATOM      6  C   UNL     1       2.137   7.881  19.038  0.00  0.00    +0.000 A 
ATOM      7  O   UNL     1       1.625   7.705  20.290  0.00  0.00    +0.000 OA
ATOM      8  C   UNL     1       0.936   8.843  20.598  0.00  0.00    +0.000 A 
ATOM      9  C   UNL     1       0.268   9.079  21.796  0.00  0.00    +0.000 A 
ENDROOT
BRANCH   6  10
ATOM     10  C   UNL     1       2.954   6.912  18.272  0.00  0.00    +0.000 A 
ATOM     11  C   UNL     1       3.984   7.265  17.430  0.00  0.00    +0.000 A 
ATOM     12  N   UNL     1       4.454   6.076  16.982  0.00  0.00    +0.000 N 
ATOM     13  N   UNL     1       5.469   5.776  16.154  0.00  0.00    +0.000 NA
ATOM     14  C   UNL     1       5.482   4.477  16.082  0.00  0.00    +0.000 A 
ATOM     15  S   UNL     1       4.259   3.569  17.009  0.00  0.00    +0.000 S 
ATOM     16  C   UNL     1       3.702   5.096  17.543  0.00  0.00    +0.000 A 
ATOM     17  N   UNL     1       2.777   5.537  18.346  0.00  0.00    +0.000 NA
BRANCH  14  18
ATOM     18  O   UNL     1       6.381   3.783  15.342  0.00  0.00    +0.000 OA
ATOM     19  C   UNL     1       6.188   3.869  13.926  0.00  0.00    +0.000 C 
ENDBRANCH  14  18
ENDBRANCH   6  10
BRANCH   1  21
ATOM     20  C   UNL     1      -1.838  11.657  23.235  0.00  0.00    +0.000 C 
ATOM     21  O   UNL     1      -1.045  10.481  23.118  0.00  0.00    +0.000 OA
ENDBRANCH   1  21
BRANCH   3  22
ATOM     22  O   UNL     1       0.296  12.011  18.766  0.00  0.00    +0.000 OA
BRANCH  22  23
ATOM     23  C   UNL     1       1.551  12.259  18.122  0.00  0.00    +0.000 C 
BRANCH  23  24
ATOM     24  C   UNL     1       2.178  13.530  18.573  0.00  0.00    +0.000 A 
ATOM     25  C   UNL     1       1.573  14.518  19.319  0.00  0.00    +0.000 A 
ATOM     26  S   UNL     1       2.687  15.766  19.645  0.00  0.00    +0.000 S 
ATOM     27  C   UNL     1       3.907  14.912  18.770  0.00  0.00    +0.000 A 
ATOM     28  N   UNL     1       3.514  13.754  18.272  0.00  0.00    +0.000 NA
BRANCH  27  29
ATOM     29  C   UNL     1       5.254  15.472  18.616  0.00  0.00    +0.000 A 
ATOM     30  C   UNL     1       6.269  14.754  17.992  0.00  0.00    +0.000 A 
ATOM     31  N   UNL     1       7.522  15.251  17.812  0.00  0.00    +0.000 NA
ATOM     32  C   UNL     1       7.717  16.501  18.284  0.00  0.00    +0.000 A 
ATOM     33  C   UNL     1       6.715  17.222  18.911  0.00  0.00    +0.000 A 
ATOM     34  N   UNL     1       5.471  16.727  19.090  0.00  0.00    +0.000 NA
ENDBRANCH  27  29
ENDBRANCH  23  24
ENDBRANCH  22  23
ENDBRANCH   3  22
TORSDOF 7
ENDMDL
MODEL 5
REMARK VINA RESULT:      -7.4      4.981      8.464
REMARK  Name = 
REMARK  9 active torsions:
REMARK  status: ('A' for Active; 'I' for Inactive)
REMARK    1  A    between atoms: C_1  and  O_2
REMARK    2  A    between atoms: O_2  and  C_3
REMARK    3  A    between atoms: C_5  and  O_6
REMARK    4  A    between atoms: O_6  and  C_7
REMARK    5  A    between atoms: C_7  and  C_8
REMARK    6  A    between atoms: C_11  and  C_12
REMARK    7  A    between atoms: C_21  and  C_22
REMARK    8  A    between atoms: C_26  and  O_27
REMARK    9  A    between atoms: O_27  and  C_28
REMARK                            x       y       z     vdW  Elec       q    Type
REMARK                         _______ _______ _______ _____ _____    ______ ____
ROOT
ATOM      1  C   UNL     1       5.986   4.309  15.256  0.00  0.00    +0.000 A 
ATOM      2  C   UNL     1       4.780   4.629  15.884  0.00  0.00    +0.000 A 
ATOM      3  C   UNL     1       4.685   5.730  16.754  0.00  0.00    +0.000 A 
ATOM      4  C   UNL     1       5.817   6.550  16.944  0.00  0.00    +0.000 A 
ATOM      5  C   UNL     1       6.135   7.721  17.679  0.00  0.00    +0.000 A 
ATOM      6  C   UNL     1       7.448   8.019  17.428  0.00  0.00    +0.000 A 
ATOM      7  O   UNL     1       7.985   7.095  16.580  0.00  0.00    +0.000 OA
ATOM      8  C   UNL     1       6.994   6.201  16.292  0.00  0.00    +0.000 A 
ATOM      9  C   UNL     1       7.130   5.088  15.467  0.00  0.00    +0.000 A 
ENDROOT
BRANCH   6  10
ATOM     10  C   UNL     1       8.139   9.193  18.010  0.00  0.00    +0.000 A 
ATOM     11  C   UNL     1       8.922   9.145  19.141  0.00  0.00    +0.000 A 
ATOM     12  N   UNL     1       9.365  10.418  19.278  0.00  0.00    +0.000 N 
ATOM     13  N   UNL     1      10.186  10.982  20.180  0.00  0.00    +0.000 NA
ATOM     14  C   UNL     1      10.277  12.231  19.829  0.00  0.00    +0.000 A 
ATOM     15  S   UNL     1       9.367  12.773  18.394  0.00  0.00    +0.000 S 
ATOM     16  C   UNL     1       8.834  11.152  18.268  0.00  0.00    +0.000 A 
ATOM     17  N   UNL     1       8.085  10.463  17.455  0.00  0.00    +0.000 NA
BRANCH  14  18
ATOM     18  O   UNL     1      11.034  13.137  20.496  0.00  0.00    +0.000 OA
ATOM     19  C   UNL     1      11.574  14.183  19.681  0.00  0.00    +0.000 C 
ENDBRANCH  14  18
ENDBRANCH   6  10
BRANCH   1  21
ATOM     20  C   UNL     1       6.243   3.473  13.053  0.00  0.00    +0.000 C 
ATOM     21  O   UNL     1       6.181   3.216  14.452  0.00  0.00    +0.000 OA
ENDBRANCH   1  21
BRANCH   3  22
ATOM     22  O   UNL     1       3.441   5.908  17.337  0.00  0.00    +0.000 OA
BRANCH  22  23
ATOM     23  C   UNL     1       3.484   6.489  18.645  0.00  0.00    +0.000 C 
BRANCH  23  24
ATOM     24  C   UNL     1       2.581   7.664  18.772  0.00  0.00    +0.000 A 
ATOM     25  C   UNL     1       2.191   8.508  17.755  0.00  0.00    +0.000 A 
ATOM     26  S   UNL     1       1.110   9.682  18.353  0.00  0.00    +0.000 S 
ATOM     27  C   UNL     1       1.229   8.992  19.933  0.00  0.00    +0.000 A 
ATOM     28  N   UNL     1       2.019   7.938  20.012  0.00  0.00    +0.000 NA
BRANCH  27  29
ATOM     29  C   UNL     1       0.495   9.571  21.063  0.00  0.00    +0.000 A 
ATOM     30  C   UNL     1       0.814   9.244  22.377  0.00  0.00    +0.000 A 
ATOM     31  N   UNL     1       0.170   9.779  23.449  0.00  0.00    +0.000 NA
ATOM     32  C   UNL     1      -0.809  10.659  23.149  0.00  0.00    +0.000 A 
ATOM     33  C   UNL     1      -1.138  10.988  21.845  0.00  0.00    +0.000 A 
ATOM     34  N   UNL     1      -0.499  10.455  20.781  0.00  0.00    +0.000 NA
ENDBRANCH  27  29
ENDBRANCH  23  24
ENDBRANCH  22  23
ENDBRANCH   3  22
TORSDOF 7
ENDMDL
MODEL 6
REMARK VINA RESULT:      -7.3      1.244      1.304
REMARK  Name = 
REMARK  9 active torsions:
REMARK  status: ('A' for Active; 'I' for Inactive)
REMARK    1  A    between atoms: C_1  and  O_2
REMARK    2  A    between atoms: O_2  and  C_3
REMARK    3  A    between atoms: C_5  and  O_6
REMARK    4  A    between atoms: O_6  and  C_7
REMARK    5  A    between atoms: C_7  and  C_8
REMARK    6  A    between atoms: C_11  and  C_12
REMARK    7  A    between atoms: C_21  and  C_22
REMARK    8  A    between atoms: C_26  and  O_27
REMARK    9  A    between atoms: O_27  and  C_28
REMARK                            x       y       z     vdW  Elec       q    Type
REMARK                         _______ _______ _______ _____ _____    ______ ____
ROOT
ATOM      1  C   UNL     1      -0.181   9.676  21.659  0.00  0.00    +0.000 A 
ATOM      2  C   UNL     1      -0.595  10.418  20.551  0.00  0.00    +0.000 A 
ATOM      3  C   UNL     1      -0.022  10.211  19.284  0.00  0.00    +0.000 A 
ATOM      4  C   UNL     1       0.947   9.197  19.130  0.00  0.00    +0.000 A 
ATOM      5  C   UNL     1       1.724   8.660  18.071  0.00  0.00    +0.000 A 
ATOM      6  C   UNL     1       2.497   7.659  18.596  0.00  0.00    +0.000 A 
ATOM      7  O   UNL     1       2.261   7.537  19.934  0.00  0.00    +0.000 OA
ATOM      8  C   UNL     1       1.323   8.475  20.257  0.00  0.00    +0.000 A 
ATOM      9  C   UNL     1       0.809   8.694  21.531  0.00  0.00    +0.000 A 
ENDROOT
BRANCH   6  10
ATOM     10  C   UNL     1       3.434   6.848  17.786  0.00  0.00    +0.000 A 
ATOM     11  C   UNL     1       4.378   7.379  16.936  0.00  0.00    +0.000 A 
ATOM     12  N   UNL     1       5.014   6.289  16.442  0.00  0.00    +0.000 N 
ATOM     13  N   UNL     1       6.044   6.170  15.587  0.00  0.00    +0.000 NA
ATOM     14  C   UNL     1       6.253   4.892  15.475  0.00  0.00    +0.000 A 
ATOM     15  S   UNL     1       5.206   3.782  16.398  0.00  0.00    +0.000 S 
ATOM     16  C   UNL     1       4.435   5.190  16.988  0.00  0.00    +0.000 A 
ATOM     17  N   UNL     1       3.472   5.462  17.822  0.00  0.00    +0.000 NA
BRANCH  14  18
ATOM     18  O   UNL     1       7.231   4.364  14.698  0.00  0.00    +0.000 OA
ATOM     19  C   UNL     1       7.453   5.054  13.463  0.00  0.00    +0.000 C 
ENDBRANCH  14  18
ENDBRANCH   6  10
BRANCH   1  21
ATOM     20  C   UNL     1       0.197   9.367  23.980  0.00  0.00    +0.000 C 
ATOM     21  O   UNL     1      -0.638   9.863  22.938  0.00  0.00    +0.000 OA
ENDBRANCH   1  21
BRANCH   3  22
ATOM     22  O   UNL     1      -0.499  11.043  18.283  0.00  0.00    +0.000 OA
BRANCH  22  23
ATOM     23  C   UNL     1      -1.439  10.419  17.402  0.00  0.00    +0.000 C 
BRANCH  23  24
ATOM     24  C   UNL     1      -2.798  11.014  17.512  0.00  0.00    +0.000 A 
ATOM     25  C   UNL     1      -3.721  11.133  16.496  0.00  0.00    +0.000 A 
ATOM     26  S   UNL     1      -5.159  11.827  17.093  0.00  0.00    +0.000 S 
ATOM     27  C   UNL     1      -4.461  11.926  18.670  0.00  0.00    +0.000 A 
ATOM     28  N   UNL     1      -3.230  11.456  18.755  0.00  0.00    +0.000 NA
BRANCH  27  29
ATOM     29  C   UNL     1      -5.214  12.497  19.792  0.00  0.00    +0.000 A 
ATOM     30  C   UNL     1      -4.586  12.845  20.983  0.00  0.00    +0.000 A 
ATOM     31  N   UNL     1      -5.249  13.397  22.034  0.00  0.00    +0.000 NA
ATOM     32  C   UNL     1      -6.572  13.589  21.841  0.00  0.00    +0.000 A 
ATOM     33  C   UNL     1      -7.207  13.242  20.661  0.00  0.00    +0.000 A 
ATOM     34  N   UNL     1      -6.549  12.692  19.619  0.00  0.00    +0.000 NA
ENDBRANCH  27  29
ENDBRANCH  23  24
ENDBRANCH  22  23
ENDBRANCH   3  22
TORSDOF 7
ENDMDL
MODEL 7
REMARK VINA RESULT:      -7.3      4.014      6.022
REMARK  Name = 
REMARK  9 active torsions:
REMARK  status: ('A' for Active; 'I' for Inactive)
REMARK    1  A    between atoms: C_1  and  O_2
REMARK    2  A    between atoms: O_2  and  C_3
REMARK    3  A    between atoms: C_5  and  O_6
REMARK    4  A    between atoms: O_6  and  C_7
REMARK    5  A    between atoms: C_7  and  C_8
REMARK    6  A    between atoms: C_11  and  C_12
REMARK    7  A    between atoms: C_21  and  C_22
REMARK    8  A    between atoms: C_26  and  O_27
REMARK    9  A    between atoms: O_27  and  C_28
REMARK                            x       y       z     vdW  Elec       q    Type
REMARK                         _______ _______ _______ _____ _____    ______ ____
ROOT
ATOM      1  C   UNL     1      -0.201  10.185  21.553  0.00  0.00    +0.000 A 
ATOM      2  C   UNL     1      -0.472  10.996  20.449  0.00  0.00    +0.000 A 
ATOM      3  C   UNL     1       0.142  10.759  19.206  0.00  0.00    +0.000 A 
ATOM      4  C   UNL     1       1.000   9.647  19.070  0.00  0.00    +0.000 A 
ATOM      5  C   UNL     1       1.770   9.055  18.036  0.00  0.00    +0.000 A 
ATOM      6  C   UNL     1       2.400   7.962  18.568  0.00  0.00    +0.000 A 
ATOM      7  O   UNL     1       2.080   7.832  19.888  0.00  0.00    +0.000 OA
ATOM      8  C   UNL     1       1.235   8.860  20.191  0.00  0.00    +0.000 A 
ATOM      9  C   UNL     1       0.680   9.103  21.445  0.00  0.00    +0.000 A 
ENDROOT
BRANCH   6  10
ATOM     10  C   UNL     1       3.284   7.072  17.781  0.00  0.00    +0.000 A 
ATOM     11  C   UNL     1       4.213   7.518  16.869  0.00  0.00    +0.000 A 
ATOM     12  N   UNL     1       4.800   6.380  16.425  0.00  0.00    +0.000 N 
ATOM     13  N   UNL     1       5.796   6.176  15.547  0.00  0.00    +0.000 NA
ATOM     14  C   UNL     1       5.964   4.887  15.510  0.00  0.00    +0.000 A 
ATOM     15  S   UNL     1       4.917   3.870  16.534  0.00  0.00    +0.000 S 
ATOM     16  C   UNL     1       4.208   5.336  17.058  0.00  0.00    +0.000 A 
ATOM     17  N   UNL     1       3.282   5.690  17.903  0.00  0.00    +0.000 NA
BRANCH  14  18
ATOM     18  O   UNL     1       6.898   4.281  14.736  0.00  0.00    +0.000 OA
ATOM     19  C   UNL     1       6.428   3.848  13.456  0.00  0.00    +0.000 C 
ENDBRANCH  14  18
ENDBRANCH   6  10
BRANCH   1  21
ATOM     20  C   UNL     1      -0.162   9.567  23.842  0.00  0.00    +0.000 C 
ATOM     21  O   UNL     1      -0.703  10.389  22.812  0.00  0.00    +0.000 OA
ENDBRANCH   1  21
BRANCH   3  22
ATOM     22  O   UNL     1      -0.187  11.663  18.209  0.00  0.00    +0.000 OA
BRANCH  22  23
ATOM     23  C   UNL     1      -0.786  12.872  18.689  0.00  0.00    +0.000 C 
BRANCH  23  24
ATOM     24  C   UNL     1       0.173  14.009  18.709  0.00  0.00    +0.000 A 
ATOM     25  C   UNL     1      -0.150  15.349  18.679  0.00  0.00    +0.000 A 
ATOM     26  S   UNL     1       1.267  16.291  18.772  0.00  0.00    +0.000 S 
ATOM     27  C   UNL     1       2.223  14.854  18.846  0.00  0.00    +0.000 A 
ATOM     28  N   UNL     1       1.528  13.732  18.817  0.00  0.00    +0.000 NA
BRANCH  27  29
ATOM     29  C   UNL     1       3.686  14.927  18.930  0.00  0.00    +0.000 A 
ATOM     30  C   UNL     1       4.341  14.948  20.157  0.00  0.00    +0.000 A 
ATOM     31  N   UNL     1       5.696  14.993  20.270  0.00  0.00    +0.000 NA
ATOM     32  C   UNL     1       6.369  15.013  19.100  0.00  0.00    +0.000 A 
ATOM     33  C   UNL     1       5.727  14.997  17.874  0.00  0.00    +0.000 A 
ATOM     34  N   UNL     1       4.382  14.954  17.762  0.00  0.00    +0.000 NA
ENDBRANCH  27  29
ENDBRANCH  23  24
ENDBRANCH  22  23
ENDBRANCH   3  22
TORSDOF 7
ENDMDL
MODEL 8
REMARK VINA RESULT:      -7.2      2.628      3.983
REMARK  Name = 
REMARK  9 active torsions:
REMARK  status: ('A' for Active; 'I' for Inactive)
REMARK    1  A    between atoms: C_1  and  O_2
REMARK    2  A    between atoms: O_2  and  C_3
REMARK    3  A    between atoms: C_5  and  O_6
REMARK    4  A    between atoms: O_6  and  C_7
REMARK    5  A    between atoms: C_7  and  C_8
REMARK    6  A    between atoms: C_11  and  C_12
REMARK    7  A    between atoms: C_21  and  C_22
REMARK    8  A    between atoms: C_26  and  O_27
REMARK    9  A    between atoms: O_27  and  C_28
REMARK                            x       y       z     vdW  Elec       q    Type
REMARK                         _______ _______ _______ _____ _____    ______ ____
ROOT
ATOM      1  C   UNL     1      -2.448  11.618  18.199  0.00  0.00    +0.000 A 
ATOM      2  C   UNL     1      -1.857  12.251  19.296  0.00  0.00    +0.000 A 
ATOM      3  C   UNL     1      -0.668  11.759  19.862  0.00  0.00    +0.000 A 
ATOM      4  C   UNL     1      -0.040  10.642  19.272  0.00  0.00    +0.000 A 
ATOM      5  C   UNL     1       1.131   9.875  19.496  0.00  0.00    +0.000 A 
ATOM      6  C   UNL     1       1.168   8.893  18.542  0.00  0.00    +0.000 A 
ATOM      7  O   UNL     1       0.078   8.990  17.727  0.00  0.00    +0.000 OA
ATOM      8  C   UNL     1      -0.657  10.049  18.176  0.00  0.00    +0.000 A 
ATOM      9  C   UNL     1      -1.860  10.484  17.628  0.00  0.00    +0.000 A 
ENDROOT
BRANCH   6  10
ATOM     10  C   UNL     1       2.261   7.899  18.443  0.00  0.00    +0.000 A 
ATOM     11  C   UNL     1       3.178   7.861  17.417  0.00  0.00    +0.000 A 
ATOM     12  N   UNL     1       3.990   6.828  17.752  0.00  0.00    +0.000 N 
ATOM     13  N   UNL     1       5.082   6.324  17.153  0.00  0.00    +0.000 NA
ATOM     14  C   UNL     1       5.472   5.345  17.914  0.00  0.00    +0.000 A 
ATOM     15  S   UNL     1       4.526   4.992  19.384  0.00  0.00    +0.000 S 
ATOM     16  C   UNL     1       3.531   6.301  18.914  0.00  0.00    +0.000 A 
ATOM     17  N   UNL     1       2.485   6.913  19.393  0.00  0.00    +0.000 NA
BRANCH  14  18
ATOM     18  O   UNL     1       6.563   4.586  17.648  0.00  0.00    +0.000 OA
ATOM     19  C   UNL     1       7.198   4.867  16.396  0.00  0.00    +0.000 C 
ENDBRANCH  14  18
ENDBRANCH   6  10
BRANCH   1  21
ATOM     20  C   UNL     1      -4.008  11.304  16.441  0.00  0.00    +0.000 C 
ATOM     21  O   UNL     1      -3.640  11.991  17.632  0.00  0.00    +0.000 OA
ENDBRANCH   1  21
BRANCH   3  22
ATOM     22  O   UNL     1      -0.214  12.461  20.968  0.00  0.00    +0.000 OA
BRANCH  22  23
ATOM     23  C   UNL     1      -0.674  11.942  22.221  0.00  0.00    +0.000 C 
BRANCH  23  24
ATOM     24  C   UNL     1      -1.581  12.886  22.925  0.00  0.00    +0.000 A 
ATOM     25  C   UNL     1      -1.209  14.040  23.581  0.00  0.00    +0.000 A 
ATOM     26  S   UNL     1      -2.587  14.832  24.194  0.00  0.00    +0.000 S 
ATOM     27  C   UNL     1      -3.596  13.588  23.547  0.00  0.00    +0.000 A 
ATOM     28  N   UNL     1      -2.947  12.639  22.898  0.00  0.00    +0.000 NA
BRANCH  27  29
ATOM     29  C   UNL     1      -5.050  13.625  23.735  0.00  0.00    +0.000 A 
ATOM     30  C   UNL     1      -5.750  14.828  23.741  0.00  0.00    +0.000 A 
ATOM     31  N   UNL     1      -7.100  14.896  23.889  0.00  0.00    +0.000 NA
ATOM     32  C   UNL     1      -7.723  13.707  24.030  0.00  0.00    +0.000 A 
ATOM     33  C   UNL     1      -7.036  12.505  24.030  0.00  0.00    +0.000 A 
ATOM     34  N   UNL     1      -5.695  12.437  23.884  0.00  0.00    +0.000 NA
ENDBRANCH  27  29
ENDBRANCH  23  24
ENDBRANCH  22  23
ENDBRANCH   3  22
TORSDOF 7
ENDMDL
MODEL 9
REMARK VINA RESULT:      -7.2      1.513      1.679
REMARK  Name = 
REMARK  9 active torsions:
REMARK  status: ('A' for Active; 'I' for Inactive)
REMARK    1  A    between atoms: C_1  and  O_2
REMARK    2  A    between atoms: O_2  and  C_3
REMARK    3  A    between atoms: C_5  and  O_6
REMARK    4  A    between atoms: O_6  and  C_7
REMARK    5  A    between atoms: C_7  and  C_8
REMARK    6  A    between atoms: C_11  and  C_12
REMARK    7  A    between atoms: C_21  and  C_22
REMARK    8  A    between atoms: C_26  and  O_27
REMARK    9  A    between atoms: O_27  and  C_28
REMARK                            x       y       z     vdW  Elec       q    Type
REMARK                         _______ _______ _______ _____ _____    ______ ____
ROOT
ATOM      1  C   UNL     1      -0.510  10.303  22.077  0.00  0.00    +0.000 A 
ATOM      2  C   UNL     1      -0.810  11.090  20.962  0.00  0.00    +0.000 A 
ATOM      3  C   UNL     1      -0.210  10.838  19.715  0.00  0.00    +0.000 A 
ATOM      4  C   UNL     1       0.663   9.738  19.586  0.00  0.00    +0.000 A 
ATOM      5  C   UNL     1       1.426   9.138  18.551  0.00  0.00    +0.000 A 
ATOM      6  C   UNL     1       2.080   8.064  19.093  0.00  0.00    +0.000 A 
ATOM      7  O   UNL     1       1.782   7.955  20.420  0.00  0.00    +0.000 OA
ATOM      8  C   UNL     1       0.926   8.976  20.718  0.00  0.00    +0.000 A 
ATOM      9  C   UNL     1       0.386   9.233  21.975  0.00  0.00    +0.000 A 
ENDROOT
BRANCH   6  10
ATOM     10  C   UNL     1       2.967   7.174  18.310  0.00  0.00    +0.000 A 
ATOM     11  C   UNL     1       2.916   5.799  18.356  0.00  0.00    +0.000 A 
ATOM     12  N   UNL     1       3.867   5.413  17.472  0.00  0.00    +0.000 N 
ATOM     13  N   UNL     1       4.264   4.195  17.068  0.00  0.00    +0.000 NA
ATOM     14  C   UNL     1       5.204   4.411  16.195  0.00  0.00    +0.000 A 
ATOM     15  S   UNL     1       5.648   6.100  15.835  0.00  0.00    +0.000 S 
ATOM     16  C   UNL     1       4.438   6.534  16.963  0.00  0.00    +0.000 A 
ATOM     17  N   UNL     1       3.929   7.640  17.425  0.00  0.00    +0.000 NA
BRANCH  14  18
ATOM     18  O   UNL     1       5.856   3.417  15.543  0.00  0.00    +0.000 OA
ATOM     19  C   UNL     1       6.240   3.730  14.200  0.00  0.00    +0.000 C 
ENDBRANCH  14  18
ENDBRANCH   6  10
BRANCH   1  21
ATOM     20  C   UNL     1      -1.987  11.538  23.461  0.00  0.00    +0.000 C 
ATOM     21  O   UNL     1      -0.996  10.522  23.340  0.00  0.00    +0.000 OA
ENDBRANCH   1  21
BRANCH   3  22
ATOM     22  O   UNL     1      -0.568  11.719  18.706  0.00  0.00    +0.000 OA
BRANCH  22  23
ATOM     23  C   UNL     1      -1.393  11.141  17.688  0.00  0.00    +0.000 C 
BRANCH  23  24
ATOM     24  C   UNL     1      -2.840  11.221  18.020  0.00  0.00    +0.000 A 
ATOM     25  C   UNL     1      -3.805  10.293  17.691  0.00  0.00    +0.000 A 
ATOM     26  S   UNL     1      -5.314  10.774  18.322  0.00  0.00    +0.000 S 
ATOM     27  C   UNL     1      -4.587  12.189  18.995  0.00  0.00    +0.000 A 
ATOM     28  N   UNL     1      -3.290  12.296  18.775  0.00  0.00    +0.000 NA
BRANCH  27  29
ATOM     29  C   UNL     1      -5.390  13.166  19.737  0.00  0.00    +0.000 A 
ATOM     30  C   UNL     1      -4.799  14.077  20.608  0.00  0.00    +0.000 A 
ATOM     31  N   UNL     1      -5.511  15.011  21.295  0.00  0.00    +0.000 NA
ATOM     32  C   UNL     1      -6.842  14.996  21.072  0.00  0.00    +0.000 A 
ATOM     33  C   UNL     1      -7.440  14.091  20.211  0.00  0.00    +0.000 A 
ATOM     34  N   UNL     1      -6.734  13.163  19.531  0.00  0.00    +0.000 NA
ENDBRANCH  27  29
ENDBRANCH  23  24
ENDBRANCH  22  23
ENDBRANCH   3  22
TORSDOF 7
ENDMDL
