MODEL 1
REMARK VINA RESULT:      -7.1      0.000      0.000
REMARK  Name = 
REMARK  6 active torsions:
REMARK  status: ('A' for Active; 'I' for Inactive)
REMARK    1  A    between atoms: C_2  and  C_3
REMARK    2  A    between atoms: C_3  and  C_4
REMARK    3  A    between atoms: C_4  and  C_5
REMARK    4  A    between atoms: C_8  and  C_9
REMARK    5  A    between atoms: C_12  and  C_13
REMARK    6  A    between atoms: C_16  and  C_17
REMARK                            x       y       z     vdW  Elec       q    Type
REMARK                         _______ _______ _______ _____ _____    ______ ____
ROOT
ATOM      1  C   UNL     1       2.620   7.510  18.373  0.00  0.00    +0.000 A 
ATOM      2  C   UNL     1       2.373   8.724  17.757  0.00  0.00    +0.000 A 
ATOM      3  C   UNL     1       1.621   9.622  18.574  0.00  0.00    +0.000 A 
ATOM      4  C   UNL     1       1.296   9.078  19.802  0.00  0.00    +0.000 A 
ATOM      5  S   UNL     1       1.933   7.492  19.946  0.00  0.00    +0.000 S 
ENDROOT
BRANCH   1   9
ATOM      6  C   UNL     1       5.083   4.885  16.858  0.00  0.00    +0.000 A 
ATOM      7  C   UNL     1       3.994   4.180  17.322  0.00  0.00    +0.000 A 
ATOM      8  C   UNL     1       3.004   5.034  17.894  0.00  0.00    +0.000 A 
ATOM      9  C   UNL     1       3.351   6.374  17.848  0.00  0.00    +0.000 A 
ATOM     10  S   UNL     1       4.853   6.570  17.038  0.00  0.00    +0.000 S 
BRANCH   6  11
ATOM     11  C   UNL     1       6.346   4.347  16.253  0.00  0.00    +0.000 C 
BRANCH  11  12
ATOM     12  C   UNL     1       6.554   4.775  14.796  0.00  0.00    +0.000 C 
BRANCH  12  14
ATOM     13 BR   UNL     1       6.689   3.515  12.247  0.00  0.00    +0.000 Br
ATOM     14  C   UNL     1       5.663   4.012  13.827  0.00  0.00    +0.000 C 
ENDBRANCH  12  14
ENDBRANCH  11  12
ENDBRANCH   6  11
ENDBRANCH   1   9
BRANCH   4  15
ATOM     15  C   UNL     1       0.535   9.682  20.870  0.00  0.00    +0.000 A 
ATOM     16  C   UNL     1       0.121   9.090  22.049  0.00  0.00    +0.000 A 
ATOM     17  C   UNL     1      -0.620   9.979  22.882  0.00  0.00    +0.000 A 
ATOM     18  C   UNL     1      -0.748  11.241  22.337  0.00  0.00    +0.000 A 
ATOM     19  S   UNL     1       0.018  11.317  20.803  0.00  0.00    +0.000 S 
BRANCH  18  20
ATOM     20  C   UNL     1      -1.412  12.389  22.915  0.00  0.00    +0.000 A 
ATOM     21  C   UNL     1      -0.907  13.665  23.096  0.00  0.00    +0.000 A 
ATOM     22  C   UNL     1      -1.832  14.543  23.736  0.00  0.00    +0.000 A 
ATOM     23  C   UNL     1      -3.026  13.919  24.010  0.00  0.00    +0.000 A 
ATOM     24  S   UNL     1      -3.027  12.289  23.501  0.00  0.00    +0.000 S 
ENDBRANCH  18  20
ENDBRANCH   4  15
TORSDOF 6
ENDMDL
MODEL 2
REMARK VINA RESULT:      -6.8      2.375      2.828
REMARK  Name = 
REMARK  6 active torsions:
REMARK  status: ('A' for Active; 'I' for Inactive)
REMARK    1  A    between atoms: C_2  and  C_3
REMARK    2  A    between atoms: C_3  and  C_4
REMARK    3  A    between atoms: C_4  and  C_5
REMARK    4  A    between atoms: C_8  and  C_9
REMARK    5  A    between atoms: C_12  and  C_13
REMARK    6  A    between atoms: C_16  and  C_17
REMARK                            x       y       z     vdW  Elec       q    Type
REMARK                         _______ _______ _______ _____ _____    ______ ____
ROOT
ATOM      1  C   UNL     1       2.154   8.290  18.603  0.00  0.00    +0.000 A 
ATOM      2  C   UNL     1       1.707   9.430  17.958  0.00  0.00    +0.000 A 
ATOM      3  C   UNL     1       0.888  10.256  18.785  0.00  0.00    +0.000 A 
ATOM      4  C   UNL     1       0.712   9.731  20.051  0.00  0.00    +0.000 A 
ATOM      5  S   UNL     1       1.567   8.253  20.215  0.00  0.00    +0.000 S 
ENDROOT
BRANCH   1   9
ATOM      6  C   UNL     1       4.001   5.042  17.466  0.00  0.00    +0.000 A 
ATOM      7  C   UNL     1       4.642   6.095  16.849  0.00  0.00    +0.000 A 
ATOM      8  C   UNL     1       4.065   7.353  17.196  0.00  0.00    +0.000 A 
ATOM      9  C   UNL     1       3.002   7.239  18.077  0.00  0.00    +0.000 A 
ATOM     10  S   UNL     1       2.775   5.595  18.521  0.00  0.00    +0.000 S 
BRANCH   6  11
ATOM     11  C   UNL     1       4.269   3.575  17.308  0.00  0.00    +0.000 C 
BRANCH  11  12
ATOM     12  C   UNL     1       4.079   2.778  18.604  0.00  0.00    +0.000 C 
BRANCH  12  14
ATOM     13 BR   UNL     1       1.297   2.220  18.845  0.00  0.00    +0.000 Br
ATOM     14  C   UNL     1       3.107   1.619  18.443  0.00  0.00    +0.000 C 
ENDBRANCH  12  14
ENDBRANCH  11  12
ENDBRANCH   6  11
ENDBRANCH   1   9
BRANCH   4  15
ATOM     15  C   UNL     1      -0.062  10.276  21.141  0.00  0.00    +0.000 A 
ATOM     16  C   UNL     1      -0.166   9.785  22.430  0.00  0.00    +0.000 A 
ATOM     17  C   UNL     1      -1.025  10.572  23.252  0.00  0.00    +0.000 A 
ATOM     18  C   UNL     1      -1.551  11.662  22.588  0.00  0.00    +0.000 A 
ATOM     19  S   UNL     1      -1.009  11.696  20.959  0.00  0.00    +0.000 S 
BRANCH  18  20
ATOM     20  C   UNL     1      -2.434  12.676  23.118  0.00  0.00    +0.000 A 
ATOM     21  C   UNL     1      -3.815  12.643  23.209  0.00  0.00    +0.000 A 
ATOM     22  C   UNL     1      -4.366  13.841  23.754  0.00  0.00    +0.000 A 
ATOM     23  C   UNL     1      -3.390  14.751  24.082  0.00  0.00    +0.000 A 
ATOM     24  S   UNL     1      -1.825  14.164  23.733  0.00  0.00    +0.000 S 
ENDBRANCH  18  20
ENDBRANCH   4  15
TORSDOF 6
ENDMDL
MODEL 3
REMARK VINA RESULT:      -6.7      3.270      3.911
REMARK  Name = 
REMARK  6 active torsions:
REMARK  status: ('A' for Active; 'I' for Inactive)
REMARK    1  A    between atoms: C_2  and  C_3
REMARK    2  A    between atoms: C_3  and  C_4
REMARK    3  A    between atoms: C_4  and  C_5
REMARK    4  A    between atoms: C_8  and  C_9
REMARK    5  A    between atoms: C_12  and  C_13
REMARK    6  A    between atoms: C_16  and  C_17
REMARK                            x       y       z     vdW  Elec       q    Type
REMARK                         _______ _______ _______ _____ _____    ______ ____
ROOT
ATOM      1  C   UNL     1       2.384   7.366  18.703  0.00  0.00    +0.000 A 
ATOM      2  C   UNL     1       1.954   7.491  20.013  0.00  0.00    +0.000 A 
ATOM      3  C   UNL     1       1.322   8.744  20.276  0.00  0.00    +0.000 A 
ATOM      4  C   UNL     1       1.284   9.564  19.165  0.00  0.00    +0.000 A 
ATOM      5  S   UNL     1       1.999   8.784  17.815  0.00  0.00    +0.000 S 
ENDROOT
BRANCH   1   9
ATOM      6  C   UNL     1       4.639   4.780  16.840  0.00  0.00    +0.000 A 
ATOM      7  C   UNL     1       3.681   4.053  17.512  0.00  0.00    +0.000 A 
ATOM      8  C   UNL     1       2.776   4.890  18.230  0.00  0.00    +0.000 A 
ATOM      9  C   UNL     1       3.054   6.239  18.086  0.00  0.00    +0.000 A 
ATOM     10  S   UNL     1       4.378   6.460  17.013  0.00  0.00    +0.000 S 
BRANCH   6  11
ATOM     11  C   UNL     1       5.794   4.266  16.032  0.00  0.00    +0.000 C 
BRANCH  11  12
ATOM     12  C   UNL     1       7.124   4.951  16.366  0.00  0.00    +0.000 C 
BRANCH  12  14
ATOM     13 BR   UNL     1       7.749   6.104  18.892  0.00  0.00    +0.000 Br
ATOM     14  C   UNL     1       7.667   4.544  17.727  0.00  0.00    +0.000 C 
ENDBRANCH  12  14
ENDBRANCH  11  12
ENDBRANCH   6  11
ENDBRANCH   1   9
BRANCH   4  15
ATOM     15  C   UNL     1       0.743  10.899  19.062  0.00  0.00    +0.000 A 
ATOM     16  C   UNL     1      -0.588  11.267  19.010  0.00  0.00    +0.000 A 
ATOM     17  C   UNL     1      -0.767  12.678  18.904  0.00  0.00    +0.000 A 
ATOM     18  C   UNL     1       0.428  13.370  18.894  0.00  0.00    +0.000 A 
ATOM     19  S   UNL     1       1.755  12.284  18.990  0.00  0.00    +0.000 S 
BRANCH  18  20
ATOM     20  C   UNL     1       0.619  14.801  18.821  0.00  0.00    +0.000 A 
ATOM     21  C   UNL     1      -0.347  15.793  18.844  0.00  0.00    +0.000 A 
ATOM     22  C   UNL     1       0.200  17.104  18.714  0.00  0.00    +0.000 A 
ATOM     23  C   UNL     1       1.571  17.080  18.613  0.00  0.00    +0.000 A 
ATOM     24  S   UNL     1       2.189  15.490  18.673  0.00  0.00    +0.000 S 
ENDBRANCH  18  20
ENDBRANCH   4  15
TORSDOF 6
ENDMDL
MODEL 4
REMARK VINA RESULT:      -6.7      1.815      2.069
REMARK  Name = 
REMARK  6 active torsions:
REMARK  status: ('A' for Active; 'I' for Inactive)
REMARK    1  A    between atoms: C_2  and  C_3
REMARK    2  A    between atoms: C_3  and  C_4
REMARK    3  A    between atoms: C_4  and  C_5
REMARK    4  A    between atoms: C_8  and  C_9
REMARK    5  A    between atoms: C_12  and  C_13
REMARK    6  A    between atoms: C_16  and  C_17
REMARK                            x       y       z     vdW  Elec       q    Type
REMARK                         _______ _______ _______ _____ _____    ______ ____
ROOT
ATOM      1  C   UNL     1       2.378   7.339  19.000  0.00  0.00    +0.000 A 
ATOM      2  C   UNL     1       2.107   8.461  18.236  0.00  0.00    +0.000 A 
ATOM      3  C   UNL     1       1.326   9.434  18.931  0.00  0.00    +0.000 A 
ATOM      4  C   UNL     1       1.004   9.039  20.215  0.00  0.00    +0.000 A 
ATOM      5  S   UNL     1       1.678   7.500  20.559  0.00  0.00    +0.000 S 
ENDROOT
BRANCH   1   9
ATOM      6  C   UNL     1       4.705   4.571  17.526  0.00  0.00    +0.000 A 
ATOM      7  C   UNL     1       4.123   4.035  18.654  0.00  0.00    +0.000 A 
ATOM      8  C   UNL     1       3.230   4.952  19.286  0.00  0.00    +0.000 A 
ATOM      9  C   UNL     1       3.140   6.165  18.624  0.00  0.00    +0.000 A 
ATOM     10  S   UNL     1       4.098   6.135  17.198  0.00  0.00    +0.000 S 
BRANCH   6  11
ATOM     11  C   UNL     1       5.737   3.949  16.632  0.00  0.00    +0.000 C 
BRANCH  11  12
ATOM     12  C   UNL     1       7.059   4.723  16.598  0.00  0.00    +0.000 C 
BRANCH  12  14
ATOM     13 BR   UNL     1       7.757   6.972  18.199  0.00  0.00    +0.000 Br
ATOM     14  C   UNL     1       7.589   5.042  17.989  0.00  0.00    +0.000 C 
ENDBRANCH  12  14
ENDBRANCH  11  12
ENDBRANCH   6  11
ENDBRANCH   1   9
BRANCH   4  15
ATOM     15  C   UNL     1       0.220   9.752  21.195  0.00  0.00    +0.000 A 
ATOM     16  C   UNL     1      -0.048   9.373  22.498  0.00  0.00    +0.000 A 
ATOM     17  C   UNL     1      -0.865  10.315  23.189  0.00  0.00    +0.000 A 
ATOM     18  C   UNL     1      -1.195  11.409  22.413  0.00  0.00    +0.000 A 
ATOM     19  S   UNL     1      -0.524  11.258  20.840  0.00  0.00    +0.000 S 
BRANCH  18  20
ATOM     20  C   UNL     1      -1.984  12.558  22.797  0.00  0.00    +0.000 A 
ATOM     21  C   UNL     1      -3.353  12.729  22.688  0.00  0.00    +0.000 A 
ATOM     22  C   UNL     1      -3.791  14.011  23.133  0.00  0.00    +0.000 A 
ATOM     23  C   UNL     1      -2.746  14.781  23.588  0.00  0.00    +0.000 A 
ATOM     24  S   UNL     1      -1.253  13.961  23.477  0.00  0.00    +0.000 S 
ENDBRANCH  18  20
ENDBRANCH   4  15
TORSDOF 6
ENDMDL
MODEL 5
REMARK VINA RESULT:      -6.7      2.437      2.903
REMARK  Name = 
REMARK  6 active torsions:
REMARK  status: ('A' for Active; 'I' for Inactive)
REMARK    1  A    between atoms: C_2  and  C_3
REMARK    2  A    between atoms: C_3  and  C_4
REMARK    3  A    between atoms: C_4  and  C_5
REMARK    4  A    between atoms: C_8  and  C_9
REMARK    5  A    between atoms: C_12  and  C_13
REMARK    6  A    between atoms: C_16  and  C_17
REMARK                            x       y       z     vdW  Elec       q    Type
REMARK                         _______ _______ _______ _____ _____    ______ ____
ROOT
ATOM      1  C   UNL     1       2.135   8.074  18.900  0.00  0.00    +0.000 A 
ATOM      2  C   UNL     1       1.673   9.107  18.104  0.00  0.00    +0.000 A 
ATOM      3  C   UNL     1       0.813  10.009  18.801  0.00  0.00    +0.000 A 
ATOM      4  C   UNL     1       0.622   9.647  20.121  0.00  0.00    +0.000 A 
ATOM      5  S   UNL     1       1.514   8.230  20.492  0.00  0.00    +0.000 S 
ENDROOT
BRANCH   1   9
ATOM      6  C   UNL     1       4.276   4.841  18.439  0.00  0.00    +0.000 A 
ATOM      7  C   UNL     1       4.498   5.621  17.325  0.00  0.00    +0.000 A 
ATOM      8  C   UNL     1       3.776   6.850  17.377  0.00  0.00    +0.000 A 
ATOM      9  C   UNL     1       3.024   6.990  18.532  0.00  0.00    +0.000 A 
ATOM     10  S   UNL     1       3.273   5.643  19.568  0.00  0.00    +0.000 S 
BRANCH   6  11
ATOM     11  C   UNL     1       4.800   3.465  18.725  0.00  0.00    +0.000 C 
BRANCH  11  12
ATOM     12  C   UNL     1       3.814   2.587  19.504  0.00  0.00    +0.000 C 
BRANCH  12  14
ATOM     13 BR   UNL     1       1.055   2.518  18.804  0.00  0.00    +0.000 Br
ATOM     14  C   UNL     1       2.863   1.824  18.593  0.00  0.00    +0.000 C 
ENDBRANCH  12  14
ENDBRANCH  11  12
ENDBRANCH   6  11
ENDBRANCH   1   9
BRANCH   4  15
ATOM     15  C   UNL     1      -0.191  10.306  21.115  0.00  0.00    +0.000 A 
ATOM     16  C   UNL     1      -0.321   9.975  22.452  0.00  0.00    +0.000 A 
ATOM     17  C   UNL     1      -1.216  10.839  23.149  0.00  0.00    +0.000 A 
ATOM     18  C   UNL     1      -1.743  11.828  22.342  0.00  0.00    +0.000 A 
ATOM     19  S   UNL     1      -1.157  11.673  20.736  0.00  0.00    +0.000 S 
BRANCH  18  20
ATOM     20  C   UNL     1      -2.659  12.881  22.721  0.00  0.00    +0.000 A 
ATOM     21  C   UNL     1      -2.520  13.805  23.742  0.00  0.00    +0.000 A 
ATOM     22  C   UNL     1      -3.642  14.680  23.855  0.00  0.00    +0.000 A 
ATOM     23  C   UNL     1      -4.599  14.413  22.905  0.00  0.00    +0.000 A 
ATOM     24  S   UNL     1      -4.147  13.117  21.890  0.00  0.00    +0.000 S 
ENDBRANCH  18  20
ENDBRANCH   4  15
TORSDOF 6
ENDMDL
MODEL 6
REMARK VINA RESULT:      -6.5      2.765      3.354
REMARK  Name = 
REMARK  6 active torsions:
REMARK  status: ('A' for Active; 'I' for Inactive)
REMARK    1  A    between atoms: C_2  and  C_3
REMARK    2  A    between atoms: C_3  and  C_4
REMARK    3  A    between atoms: C_4  and  C_5
REMARK    4  A    between atoms: C_8  and  C_9
REMARK    5  A    between atoms: C_12  and  C_13
REMARK    6  A    between atoms: C_16  and  C_17
REMARK                            x       y       z     vdW  Elec       q    Type
REMARK                         _______ _______ _______ _____ _____    ______ ____
ROOT
ATOM      1  C   UNL     1       2.794   7.028  18.599  0.00  0.00    +0.000 A 
ATOM      2  C   UNL     1       2.229   6.983  19.861  0.00  0.00    +0.000 A 
ATOM      3  C   UNL     1       1.509   8.170  20.194  0.00  0.00    +0.000 A 
ATOM      4  C   UNL     1       1.540   9.111  19.183  0.00  0.00    +0.000 A 
ATOM      5  S   UNL     1       2.427   8.522  17.838  0.00  0.00    +0.000 S 
ENDROOT
BRANCH   1   9
ATOM      6  C   UNL     1       5.395   4.742  16.793  0.00  0.00    +0.000 A 
ATOM      7  C   UNL     1       4.319   3.941  17.106  0.00  0.00    +0.000 A 
ATOM      8  C   UNL     1       3.282   4.667  17.764  0.00  0.00    +0.000 A 
ATOM      9  C   UNL     1       3.581   6.008  17.935  0.00  0.00    +0.000 A 
ATOM     10  S   UNL     1       5.100   6.372  17.218  0.00  0.00    +0.000 S 
BRANCH   6  11
ATOM     11  C   UNL     1       6.695   4.341  16.160  0.00  0.00    +0.000 C 
BRANCH  11  12
ATOM     12  C   UNL     1       6.775   4.682  14.668  0.00  0.00    +0.000 C 
BRANCH  12  14
ATOM     13 BR   UNL     1       6.294   3.391  12.177  0.00  0.00    +0.000 Br
ATOM     14  C   UNL     1       5.624   4.091  13.867  0.00  0.00    +0.000 C 
ENDBRANCH  12  14
ENDBRANCH  11  12
ENDBRANCH   6  11
ENDBRANCH   1   9
BRANCH   4  15
ATOM     15  C   UNL     1       0.943  10.425  19.172  0.00  0.00    +0.000 A 
ATOM     16  C   UNL     1      -0.372  10.756  19.439  0.00  0.00    +0.000 A 
ATOM     17  C   UNL     1      -0.622  12.156  19.333  0.00  0.00    +0.000 A 
ATOM     18  C   UNL     1       0.508  12.878  19.003  0.00  0.00    +0.000 A 
ATOM     19  S   UNL     1       1.855  11.832  18.803  0.00  0.00    +0.000 S 
BRANCH  18  20
ATOM     20  C   UNL     1       0.623  14.309  18.837  0.00  0.00    +0.000 A 
ATOM     21  C   UNL     1      -0.394  15.245  18.765  0.00  0.00    +0.000 A 
ATOM     22  C   UNL     1       0.085  16.573  18.558  0.00  0.00    +0.000 A 
ATOM     23  C   UNL     1       1.458  16.619  18.496  0.00  0.00    +0.000 A 
ATOM     24  S   UNL     1       2.158  15.073  18.684  0.00  0.00    +0.000 S 
ENDBRANCH  18  20
ENDBRANCH   4  15
TORSDOF 6
ENDMDL
MODEL 7
REMARK VINA RESULT:      -6.4      4.493     11.303
REMARK  Name = 
REMARK  6 active torsions:
REMARK  status: ('A' for Active; 'I' for Inactive)
REMARK    1  A    between atoms: C_2  and  C_3
REMARK    2  A    between atoms: C_3  and  C_4
REMARK    3  A    between atoms: C_4  and  C_5
REMARK    4  A    between atoms: C_8  and  C_9
REMARK    5  A    between atoms: C_12  and  C_13
REMARK    6  A    between atoms: C_16  and  C_17
REMARK                            x       y       z     vdW  Elec       q    Type
REMARK                         _______ _______ _______ _____ _____    ______ ____
ROOT
ATOM      1  C   UNL     1      -0.952  11.385  22.356  0.00  0.00    +0.000 A 
ATOM      2  C   UNL     1      -0.654  10.204  23.013  0.00  0.00    +0.000 A 
ATOM      3  C   UNL     1       0.097   9.293  22.211  0.00  0.00    +0.000 A 
ATOM      4  C   UNL     1       0.356   9.787  20.947  0.00  0.00    +0.000 A 
ATOM      5  S   UNL     1      -0.300  11.361  20.769  0.00  0.00    +0.000 S 
ENDROOT
BRANCH   1   9
ATOM      6  C   UNL     1      -3.471  14.078  23.642  0.00  0.00    +0.000 A 
ATOM      7  C   UNL     1      -2.208  14.588  23.853  0.00  0.00    +0.000 A 
ATOM      8  C   UNL     1      -1.187  13.697  23.409  0.00  0.00    +0.000 A 
ATOM      9  C   UNL     1      -1.687  12.528  22.860  0.00  0.00    +0.000 A 
ATOM     10  S   UNL     1      -3.405  12.574  22.832  0.00  0.00    +0.000 S 
BRANCH   6  11
ATOM     11  C   UNL     1      -4.790  14.681  24.026  0.00  0.00    +0.000 C 
BRANCH  11  12
ATOM     12  C   UNL     1      -5.591  15.205  22.829  0.00  0.00    +0.000 C 
BRANCH  12  14
ATOM     13 BR   UNL     1      -7.640  13.748  24.165  0.00  0.00    +0.000 Br
ATOM     14  C   UNL     1      -6.801  14.339  22.509  0.00  0.00    +0.000 C 
ENDBRANCH  12  14
ENDBRANCH  11  12
ENDBRANCH   6  11
ENDBRANCH   1   9
BRANCH   4  15
ATOM     15  C   UNL     1       1.067   9.142  19.868  0.00  0.00    +0.000 A 
ATOM     16  C   UNL     1       1.276   9.625  18.589  0.00  0.00    +0.000 A 
ATOM     17  C   UNL     1       2.019   8.722  17.773  0.00  0.00    +0.000 A 
ATOM     18  C   UNL     1       2.384   7.571  18.443  0.00  0.00    +0.000 A 
ATOM     19  S   UNL     1       1.791   7.597  20.055  0.00  0.00    +0.000 S 
BRANCH  18  20
ATOM     20  C   UNL     1       3.157   6.461  17.934  0.00  0.00    +0.000 A 
ATOM     21  C   UNL     1       2.875   5.109  18.032  0.00  0.00    +0.000 A 
ATOM     22  C   UNL     1       3.883   4.287  17.444  0.00  0.00    +0.000 A 
ATOM     23  C   UNL     1       4.899   5.034  16.896  0.00  0.00    +0.000 A 
ATOM     24  S   UNL     1       4.638   6.710  17.092  0.00  0.00    +0.000 S 
ENDBRANCH  18  20
ENDBRANCH   4  15
TORSDOF 6
ENDMDL
MODEL 8
REMARK VINA RESULT:      -6.4      1.581      2.588
REMARK  Name = 
REMARK  6 active torsions:
REMARK  status: ('A' for Active; 'I' for Inactive)
REMARK    1  A    between atoms: C_2  and  C_3
REMARK    2  A    between atoms: C_3  and  C_4
REMARK    3  A    between atoms: C_4  and  C_5
REMARK    4  A    between atoms: C_8  and  C_9
REMARK    5  A    between atoms: C_12  and  C_13
REMARK    6  A    between atoms: C_16  and  C_17
REMARK                            x       y       z     vdW  Elec       q    Type
REMARK                         _______ _______ _______ _____ _____    ______ ____
ROOT
ATOM      1  C   UNL     1       4.058   6.141  18.310  0.00  0.00    +0.000 A 
ATOM      2  C   UNL     1       3.450   5.644  19.449  0.00  0.00    +0.000 A 
ATOM      3  C   UNL     1       2.429   6.503  19.958  0.00  0.00    +0.000 A 
ATOM      4  C   UNL     1       2.277   7.651  19.204  0.00  0.00    +0.000 A 
ATOM      5  S   UNL     1       3.363   7.650  17.877  0.00  0.00    +0.000 S 
ENDROOT
BRANCH   1   9
ATOM      6  C   UNL     1       6.574   4.735  15.674  0.00  0.00    +0.000 A 
ATOM      7  C   UNL     1       7.159   4.559  16.909  0.00  0.00    +0.000 A 
ATOM      8  C   UNL     1       6.326   5.024  17.970  0.00  0.00    +0.000 A 
ATOM      9  C   UNL     1       5.120   5.539  17.527  0.00  0.00    +0.000 A 
ATOM     10  S   UNL     1       4.996   5.376  15.822  0.00  0.00    +0.000 S 
BRANCH   6  11
ATOM     11  C   UNL     1       7.153   4.434  14.323  0.00  0.00    +0.000 C 
BRANCH  11  12
ATOM     12  C   UNL     1       6.150   3.786  13.362  0.00  0.00    +0.000 C 
BRANCH  12  14
ATOM     13 BR   UNL     1       6.074   1.754  11.369  0.00  0.00    +0.000 Br
ATOM     14  C   UNL     1       6.761   3.463  12.007  0.00  0.00    +0.000 C 
ENDBRANCH  12  14
ENDBRANCH  11  12
ENDBRANCH   6  11
ENDBRANCH   1   9
BRANCH   4  15
ATOM     15  C   UNL     1       1.362   8.746  19.426  0.00  0.00    +0.000 A 
ATOM     16  C   UNL     1       0.683   9.483  18.474  0.00  0.00    +0.000 A 
ATOM     17  C   UNL     1      -0.138  10.499  19.045  0.00  0.00    +0.000 A 
ATOM     18  C   UNL     1      -0.090  10.514  20.425  0.00  0.00    +0.000 A 
ATOM     19  S   UNL     1       0.979   9.301  21.005  0.00  0.00    +0.000 S 
BRANCH  18  20
ATOM     20  C   UNL     1      -0.808  11.389  21.324  0.00  0.00    +0.000 A 
ATOM     21  C   UNL     1      -1.210  11.133  22.624  0.00  0.00    +0.000 A 
ATOM     22  C   UNL     1      -1.936  12.216  23.205  0.00  0.00    +0.000 A 
ATOM     23  C   UNL     1      -2.054  13.277  22.339  0.00  0.00    +0.000 A 
ATOM     24  S   UNL     1      -1.297  12.967  20.840  0.00  0.00    +0.000 S 
ENDBRANCH  18  20
ENDBRANCH   4  15
TORSDOF 6
ENDMDL
MODEL 9
REMARK VINA RESULT:      -6.3      3.133      3.656
REMARK  Name = 
REMARK  6 active torsions:
REMARK  status: ('A' for Active; 'I' for Inactive)
REMARK    1  A    between atoms: C_2  and  C_3
REMARK    2  A    between atoms: C_3  and  C_4
REMARK    3  A    between atoms: C_4  and  C_5
REMARK    4  A    between atoms: C_8  and  C_9
REMARK    5  A    between atoms: C_12  and  C_13
REMARK    6  A    between atoms: C_16  and  C_17
REMARK                            x       y       z     vdW  Elec       q    Type
REMARK                         _______ _______ _______ _____ _____    ______ ____
ROOT
ATOM      1  C   UNL     1       2.125   7.700  18.873  0.00  0.00    +0.000 A 
ATOM      2  C   UNL     1       1.679   7.917  20.165  0.00  0.00    +0.000 A 
ATOM      3  C   UNL     1       1.136   9.224  20.357  0.00  0.00    +0.000 A 
ATOM      4  C   UNL     1       1.182   9.992  19.209  0.00  0.00    +0.000 A 
ATOM      5  S   UNL     1       1.864   9.098  17.913  0.00  0.00    +0.000 S 
ENDROOT
BRANCH   1   9
ATOM      6  C   UNL     1       4.258   4.854  17.261  0.00  0.00    +0.000 A 
ATOM      7  C   UNL     1       3.137   4.253  17.791  0.00  0.00    +0.000 A 
ATOM      8  C   UNL     1       2.260   5.196  18.404  0.00  0.00    +0.000 A 
ATOM      9  C   UNL     1       2.722   6.499  18.324  0.00  0.00    +0.000 A 
ATOM     10  S   UNL     1       4.190   6.554  17.432  0.00  0.00    +0.000 S 
BRANCH   6  11
ATOM     11  C   UNL     1       5.433   4.200  16.596  0.00  0.00    +0.000 C 
BRANCH  11  12
ATOM     12  C   UNL     1       6.543   5.186  16.214  0.00  0.00    +0.000 C 
BRANCH  12  14
ATOM     13 BR   UNL     1       5.948   3.923  13.733  0.00  0.00    +0.000 Br
ATOM     14  C   UNL     1       7.220   4.827  14.900  0.00  0.00    +0.000 C 
ENDBRANCH  12  14
ENDBRANCH  11  12
ENDBRANCH   6  11
ENDBRANCH   1   9
BRANCH   4  15
ATOM     15  C   UNL     1       0.744  11.356  19.032  0.00  0.00    +0.000 A 
ATOM     16  C   UNL     1      -0.525  11.798  18.707  0.00  0.00    +0.000 A 
ATOM     17  C   UNL     1      -0.605  13.218  18.607  0.00  0.00    +0.000 A 
ATOM     18  C   UNL     1       0.597  13.843  18.875  0.00  0.00    +0.000 A 
ATOM     19  S   UNL     1       1.816  12.684  19.220  0.00  0.00    +0.000 S 
BRANCH  18  20
ATOM     20  C   UNL     1       0.870  15.262  18.888  0.00  0.00    +0.000 A 
ATOM     21  C   UNL     1       2.101  15.894  18.940  0.00  0.00    +0.000 A 
ATOM     22  C   UNL     1       1.995  17.316  18.977  0.00  0.00    +0.000 A 
ATOM     23  C   UNL     1       0.686  17.734  18.933  0.00  0.00    +0.000 A 
ATOM     24  S   UNL     1      -0.402  16.421  18.850  0.00  0.00    +0.000 S 
ENDBRANCH  18  20
ENDBRANCH   4  15
TORSDOF 6
ENDMDL
