MODEL 1
REMARK VINA RESULT:      -8.5      0.000      0.000
REMARK  Name = 
REMARK  5 active torsions:
REMARK  status: ('A' for Active; 'I' for Inactive)
REMARK    1  A    between atoms: C_1  and  C_2
REMARK    2  A    between atoms: C_8  and  S_9
REMARK    3  A    between atoms: S_9  and  N_12
REMARK    4  A    between atoms: N_12  and  C_13
REMARK    5  A    between atoms: C_17  and  C_18
REMARK                            x       y       z     vdW  Elec       q    Type
REMARK                         _______ _______ _______ _____ _____    ______ ____
ROOT
ATOM      1  S   UNL     1       5.805   4.809  19.265  0.00  0.00    +0.000 S 
ATOM      2  O   UNL     1       5.519   3.396  19.371  0.00  0.00    +0.000 OA
ATOM      3  O   UNL     1       6.861   5.412  20.052  0.00  0.00    +0.000 OA
ENDROOT
BRANCH   1  11
ATOM      4  C   UNL     1       7.341   4.292  11.666  0.00  0.00    +0.000 C 
ATOM      5  C   UNL     1       7.507   4.894  13.033  0.00  0.00    +0.000 C 
ATOM      6  O   UNL     1       8.462   5.639  13.258  0.00  0.00    +0.000 OA
ATOM      7  N   UNL     1       6.526   4.515  13.924  0.00  0.00    +0.000 N 
ATOM      8  C   UNL     1       6.550   4.990  15.206  0.00  0.00    +0.000 A 
ATOM      9  N   UNL     1       7.231   6.004  15.674  0.00  0.00    +0.000 NA
ATOM     10  C   UNL     1       7.081   6.068  17.038  0.00  0.00    +0.000 A 
ATOM     11  C   UNL     1       6.257   5.112  17.590  0.00  0.00    +0.000 A 
ATOM     12  S   UNL     1       5.582   4.150  16.339  0.00  0.00    +0.000 S 
ATOM     13  H   UNL     1       5.883   3.771  13.706  0.00  0.00    +0.000 HD
ENDBRANCH   1  11
BRANCH   1  14
ATOM     14  N   UNL     1       4.355   5.632  19.597  0.00  0.00    +0.000 N 
ATOM     15  H   UNL     1       4.331   6.462  19.004  0.00  0.00    +0.000 HD
BRANCH  14  16
ATOM     16  C   UNL     1       3.162   4.847  19.538  0.00  0.00    +0.000 A 
ATOM     17  C   UNL     1       2.453   4.701  18.345  0.00  0.00    +0.000 A 
ATOM     18  C   UNL     1       1.328   3.874  18.307  0.00  0.00    +0.000 A 
ATOM     19  C   UNL     1       0.927   3.178  19.451  0.00  0.00    +0.000 A 
ATOM     20  C   UNL     1       1.641   3.309  20.645  0.00  0.00    +0.000 A 
ATOM     21  C   UNL     1       1.234   2.557  21.879  0.00  0.00    +0.000 C 
ATOM     22  C   UNL     1       2.758   4.152  20.679  0.00  0.00    +0.000 A 
ENDBRANCH  14  16
ENDBRANCH   1  14
TORSDOF 3
ENDMDL
MODEL 2
REMARK VINA RESULT:      -8.2      1.188      1.291
REMARK  Name = 
REMARK  5 active torsions:
REMARK  status: ('A' for Active; 'I' for Inactive)
REMARK    1  A    between atoms: C_1  and  C_2
REMARK    2  A    between atoms: C_8  and  S_9
REMARK    3  A    between atoms: S_9  and  N_12
REMARK    4  A    between atoms: N_12  and  C_13
REMARK    5  A    between atoms: C_17  and  C_18
REMARK                            x       y       z     vdW  Elec       q    Type
REMARK                         _______ _______ _______ _____ _____    ______ ____
ROOT
ATOM      1  S   UNL     1       5.747   4.887  19.181  0.00  0.00    +0.000 S 
ATOM      2  O   UNL     1       6.908   5.094  20.017  0.00  0.00    +0.000 OA
ATOM      3  O   UNL     1       4.551   5.684  19.363  0.00  0.00    +0.000 OA
ENDROOT
BRANCH   1  11
ATOM      4  C   UNL     1       7.453   4.425  11.615  0.00  0.00    +0.000 C 
ATOM      5  C   UNL     1       7.607   5.000  12.994  0.00  0.00    +0.000 C 
ATOM      6  O   UNL     1       8.584   5.704  13.254  0.00  0.00    +0.000 OA
ATOM      7  N   UNL     1       6.591   4.645  13.855  0.00  0.00    +0.000 N 
ATOM      8  C   UNL     1       6.600   5.100  15.144  0.00  0.00    +0.000 A 
ATOM      9  N   UNL     1       7.308   6.080  15.645  0.00  0.00    +0.000 NA
ATOM     10  C   UNL     1       7.126   6.129  17.006  0.00  0.00    +0.000 A 
ATOM     11  C   UNL     1       6.252   5.198  17.523  0.00  0.00    +0.000 A 
ATOM     12  S   UNL     1       5.572   4.281  16.240  0.00  0.00    +0.000 S 
ATOM     13  H   UNL     1       5.925   3.930  13.609  0.00  0.00    +0.000 HD
ENDBRANCH   1  11
BRANCH   1  14
ATOM     14  N   UNL     1       5.323   3.247  19.324  0.00  0.00    +0.000 N 
ATOM     15  H   UNL     1       5.828   2.868  20.127  0.00  0.00    +0.000 HD
BRANCH  14  16
ATOM     16  C   UNL     1       3.923   2.961  19.338  0.00  0.00    +0.000 A 
ATOM     17  C   UNL     1       3.248   2.600  18.170  0.00  0.00    +0.000 A 
ATOM     18  C   UNL     1       1.894   2.264  18.231  0.00  0.00    +0.000 A 
ATOM     19  C   UNL     1       1.223   2.265  19.456  0.00  0.00    +0.000 A 
ATOM     20  C   UNL     1       1.896   2.611  20.631  0.00  0.00    +0.000 A 
ATOM     21  C   UNL     1       1.194   2.602  21.958  0.00  0.00    +0.000 C 
ATOM     22  C   UNL     1       3.249   2.962  20.560  0.00  0.00    +0.000 A 
ENDBRANCH  14  16
ENDBRANCH   1  14
TORSDOF 3
ENDMDL
MODEL 3
REMARK VINA RESULT:      -7.8      2.119      7.363
REMARK  Name = 
REMARK  5 active torsions:
REMARK  status: ('A' for Active; 'I' for Inactive)
REMARK    1  A    between atoms: C_1  and  C_2
REMARK    2  A    between atoms: C_8  and  S_9
REMARK    3  A    between atoms: S_9  and  N_12
REMARK    4  A    between atoms: N_12  and  C_13
REMARK    5  A    between atoms: C_17  and  C_18
REMARK                            x       y       z     vdW  Elec       q    Type
REMARK                         _______ _______ _______ _____ _____    ______ ____
ROOT
ATOM      1  S   UNL     1       5.871   6.090  16.550  0.00  0.00    +0.000 S 
ATOM      2  O   UNL     1       5.199   6.739  15.447  0.00  0.00    +0.000 OA
ATOM      3  O   UNL     1       6.896   6.782  17.304  0.00  0.00    +0.000 OA
ENDROOT
BRANCH   1  11
ATOM      4  C   UNL     1       1.362   2.637  21.852  0.00  0.00    +0.000 C 
ATOM      5  C   UNL     1       1.626   3.625  20.751  0.00  0.00    +0.000 C 
ATOM      6  O   UNL     1       0.680   4.172  20.185  0.00  0.00    +0.000 OA
ATOM      7  N   UNL     1       2.966   3.805  20.484  0.00  0.00    +0.000 N 
ATOM      8  C   UNL     1       3.355   4.678  19.507  0.00  0.00    +0.000 A 
ATOM      9  N   UNL     1       2.641   5.616  18.938  0.00  0.00    +0.000 NA
ATOM     10  C   UNL     1       3.359   6.181  17.913  0.00  0.00    +0.000 A 
ATOM     11  C   UNL     1       4.631   5.684  17.733  0.00  0.00    +0.000 A 
ATOM     12  S   UNL     1       4.965   4.520  18.951  0.00  0.00    +0.000 S 
ATOM     13  H   UNL     1       3.663   3.192  20.877  0.00  0.00    +0.000 HD
ENDBRANCH   1  11
BRANCH   1  14
ATOM     14  N   UNL     1       6.537   4.649  15.942  0.00  0.00    +0.000 N 
ATOM     15  H   UNL     1       5.992   3.874  16.321  0.00  0.00    +0.000 HD
BRANCH  14  16
ATOM     16  C   UNL     1       6.712   4.589  14.524  0.00  0.00    +0.000 A 
ATOM     17  C   UNL     1       7.687   5.356  13.884  0.00  0.00    +0.000 A 
ATOM     18  C   UNL     1       7.874   5.225  12.507  0.00  0.00    +0.000 A 
ATOM     19  C   UNL     1       7.107   4.315  11.775  0.00  0.00    +0.000 A 
ATOM     20  C   UNL     1       6.139   3.533  12.412  0.00  0.00    +0.000 A 
ATOM     21  C   UNL     1       5.317   2.539  11.645  0.00  0.00    +0.000 C 
ATOM     22  C   UNL     1       5.946   3.681  13.790  0.00  0.00    +0.000 A 
ENDBRANCH  14  16
ENDBRANCH   1  14
TORSDOF 3
ENDMDL
MODEL 4
REMARK VINA RESULT:      -7.8      2.012      7.266
REMARK  Name = 
REMARK  5 active torsions:
REMARK  status: ('A' for Active; 'I' for Inactive)
REMARK    1  A    between atoms: C_1  and  C_2
REMARK    2  A    between atoms: C_8  and  S_9
REMARK    3  A    between atoms: S_9  and  N_12
REMARK    4  A    between atoms: N_12  and  C_13
REMARK    5  A    between atoms: C_17  and  C_18
REMARK                            x       y       z     vdW  Elec       q    Type
REMARK                         _______ _______ _______ _____ _____    ______ ____
ROOT
ATOM      1  S   UNL     1       6.327   5.882  16.670  0.00  0.00    +0.000 S 
ATOM      2  O   UNL     1       5.770   6.732  15.642  0.00  0.00    +0.000 OA
ATOM      3  O   UNL     1       7.110   6.445  17.752  0.00  0.00    +0.000 OA
ENDROOT
BRANCH   1  11
ATOM      4  C   UNL     1       1.445   2.548  21.711  0.00  0.00    +0.000 C 
ATOM      5  C   UNL     1       2.012   2.773  20.338  0.00  0.00    +0.000 C 
ATOM      6  O   UNL     1       1.748   1.980  19.433  0.00  0.00    +0.000 OA
ATOM      7  N   UNL     1       2.812   3.892  20.249  0.00  0.00    +0.000 N 
ATOM      8  C   UNL     1       3.393   4.222  19.057  0.00  0.00    +0.000 A 
ATOM      9  N   UNL     1       3.087   3.778  17.865  0.00  0.00    +0.000 NA
ATOM     10  C   UNL     1       3.995   4.252  16.950  0.00  0.00    +0.000 A 
ATOM     11  C   UNL     1       4.972   5.081  17.458  0.00  0.00    +0.000 A 
ATOM     12  S   UNL     1       4.687   5.338  19.132  0.00  0.00    +0.000 S 
ATOM     13  H   UNL     1       3.111   4.385  21.075  0.00  0.00    +0.000 HD
ENDBRANCH   1  11
BRANCH   1  14
ATOM     14  N   UNL     1       7.272   4.709  15.882  0.00  0.00    +0.000 N 
ATOM     15  H   UNL     1       7.086   3.812  16.332  0.00  0.00    +0.000 HD
BRANCH  14  16
ATOM     16  C   UNL     1       7.164   4.671  14.457  0.00  0.00    +0.000 A 
ATOM     17  C   UNL     1       7.975   5.471  13.650  0.00  0.00    +0.000 A 
ATOM     18  C   UNL     1       7.889   5.362  12.261  0.00  0.00    +0.000 A 
ATOM     19  C   UNL     1       7.013   4.441  11.680  0.00  0.00    +0.000 A 
ATOM     20  C   UNL     1       6.209   3.626  12.482  0.00  0.00    +0.000 A 
ATOM     21  C   UNL     1       5.275   2.620  11.876  0.00  0.00    +0.000 C 
ATOM     22  C   UNL     1       6.290   3.753  13.874  0.00  0.00    +0.000 A 
ENDBRANCH  14  16
ENDBRANCH   1  14
TORSDOF 3
ENDMDL
MODEL 5
REMARK VINA RESULT:      -7.5      3.528      6.892
REMARK  Name = 
REMARK  5 active torsions:
REMARK  status: ('A' for Active; 'I' for Inactive)
REMARK    1  A    between atoms: C_1  and  C_2
REMARK    2  A    between atoms: C_8  and  S_9
REMARK    3  A    between atoms: S_9  and  N_12
REMARK    4  A    between atoms: N_12  and  C_13
REMARK    5  A    between atoms: C_17  and  C_18
REMARK                            x       y       z     vdW  Elec       q    Type
REMARK                         _______ _______ _______ _____ _____    ______ ____
ROOT
ATOM      1  S   UNL     1       2.745   3.147  18.162  0.00  0.00    +0.000 S 
ATOM      2  O   UNL     1       2.218   2.240  19.157  0.00  0.00    +0.000 OA
ATOM      3  O   UNL     1       2.186   3.186  16.826  0.00  0.00    +0.000 OA
ENDROOT
BRANCH   1  11
ATOM      4  C   UNL     1       0.784   9.420  22.306  0.00  0.00    +0.000 C 
ATOM      5  C   UNL     1       1.186   8.718  21.040  0.00  0.00    +0.000 C 
ATOM      6  O   UNL     1       1.058   9.292  19.959  0.00  0.00    +0.000 OA
ATOM      7  N   UNL     1       1.667   7.442  21.248  0.00  0.00    +0.000 N 
ATOM      8  C   UNL     1       2.074   6.687  20.184  0.00  0.00    +0.000 A 
ATOM      9  N   UNL     1       2.345   7.090  18.969  0.00  0.00    +0.000 NA
ATOM     10  C   UNL     1       2.588   6.002  18.167  0.00  0.00    +0.000 A 
ATOM     11  C   UNL     1       2.528   4.776  18.794  0.00  0.00    +0.000 A 
ATOM     12  S   UNL     1       2.237   5.008  20.470  0.00  0.00    +0.000 S 
ATOM     13  H   UNL     1       1.578   6.991  22.144  0.00  0.00    +0.000 HD
ENDBRANCH   1  11
BRANCH   1  14
ATOM     14  N   UNL     1       4.410   2.827  18.036  0.00  0.00    +0.000 N 
ATOM     15  H   UNL     1       4.515   1.918  17.585  0.00  0.00    +0.000 HD
BRANCH  14  16
ATOM     16  C   UNL     1       5.202   3.859  17.442  0.00  0.00    +0.000 A 
ATOM     17  C   UNL     1       5.035   4.216  16.104  0.00  0.00    +0.000 A 
ATOM     18  C   UNL     1       5.780   5.272  15.573  0.00  0.00    +0.000 A 
ATOM     19  C   UNL     1       6.670   5.982  16.383  0.00  0.00    +0.000 A 
ATOM     20  C   UNL     1       6.832   5.638  17.728  0.00  0.00    +0.000 A 
ATOM     21  C   UNL     1       7.771   6.400  18.616  0.00  0.00    +0.000 C 
ATOM     22  C   UNL     1       6.093   4.569  18.248  0.00  0.00    +0.000 A 
ENDBRANCH  14  16
ENDBRANCH   1  14
TORSDOF 3
ENDMDL
MODEL 6
REMARK VINA RESULT:      -7.5      1.780      1.933
REMARK  Name = 
REMARK  5 active torsions:
REMARK  status: ('A' for Active; 'I' for Inactive)
REMARK    1  A    between atoms: C_1  and  C_2
REMARK    2  A    between atoms: C_8  and  S_9
REMARK    3  A    between atoms: S_9  and  N_12
REMARK    4  A    between atoms: N_12  and  C_13
REMARK    5  A    between atoms: C_17  and  C_18
REMARK                            x       y       z     vdW  Elec       q    Type
REMARK                         _______ _______ _______ _____ _____    ______ ____
ROOT
ATOM      1  S   UNL     1       5.926   4.780  18.667  0.00  0.00    +0.000 S 
ATOM      2  O   UNL     1       7.249   5.098  19.156  0.00  0.00    +0.000 OA
ATOM      3  O   UNL     1       4.821   5.694  18.872  0.00  0.00    +0.000 OA
ENDROOT
BRANCH   1  11
ATOM      4  C   UNL     1       4.758   3.240  11.142  0.00  0.00    +0.000 C 
ATOM      5  C   UNL     1       5.625   3.482  12.345  0.00  0.00    +0.000 C 
ATOM      6  O   UNL     1       6.821   3.190  12.303  0.00  0.00    +0.000 OA
ATOM      7  N   UNL     1       4.943   4.022  13.415  0.00  0.00    +0.000 N 
ATOM      8  C   UNL     1       5.607   4.299  14.577  0.00  0.00    +0.000 A 
ATOM      9  N   UNL     1       6.899   4.388  14.761  0.00  0.00    +0.000 NA
ATOM     10  C   UNL     1       7.163   4.547  16.100  0.00  0.00    +0.000 A 
ATOM     11  C   UNL     1       6.057   4.608  16.920  0.00  0.00    +0.000 A 
ATOM     12  S   UNL     1       4.634   4.545  15.961  0.00  0.00    +0.000 S 
ATOM     13  H   UNL     1       3.937   4.070  13.421  0.00  0.00    +0.000 HD
ENDBRANCH   1  11
BRANCH   1  14
ATOM     14  N   UNL     1       5.504   3.274  19.333  0.00  0.00    +0.000 N 
ATOM     15  H   UNL     1       5.909   3.227  20.269  0.00  0.00    +0.000 HD
BRANCH  14  16
ATOM     16  C   UNL     1       4.115   2.937  19.291  0.00  0.00    +0.000 A 
ATOM     17  C   UNL     1       3.532   2.423  18.132  0.00  0.00    +0.000 A 
ATOM     18  C   UNL     1       2.188   2.043  18.145  0.00  0.00    +0.000 A 
ATOM     19  C   UNL     1       1.436   2.156  19.317  0.00  0.00    +0.000 A 
ATOM     20  C   UNL     1       2.017   2.657  20.485  0.00  0.00    +0.000 A 
ATOM     21  C   UNL     1       1.229   2.770  21.757  0.00  0.00    +0.000 C 
ATOM     22  C   UNL     1       3.360   3.049  20.460  0.00  0.00    +0.000 A 
ENDBRANCH  14  16
ENDBRANCH   1  14
TORSDOF 3
ENDMDL
MODEL 7
REMARK VINA RESULT:      -7.5      2.843      4.251
REMARK  Name = 
REMARK  5 active torsions:
REMARK  status: ('A' for Active; 'I' for Inactive)
REMARK    1  A    between atoms: C_1  and  C_2
REMARK    2  A    between atoms: C_8  and  S_9
REMARK    3  A    between atoms: S_9  and  N_12
REMARK    4  A    between atoms: N_12  and  C_13
REMARK    5  A    between atoms: C_17  and  C_18
REMARK                            x       y       z     vdW  Elec       q    Type
REMARK                         _______ _______ _______ _____ _____    ______ ____
ROOT
ATOM      1  S   UNL     1       5.708   4.461  17.466  0.00  0.00    +0.000 S 
ATOM      2  O   UNL     1       6.158   3.745  16.293  0.00  0.00    +0.000 OA
ATOM      3  O   UNL     1       5.840   3.878  18.785  0.00  0.00    +0.000 OA
ENDROOT
BRANCH   1  11
ATOM      4  C   UNL     1       9.815  10.683  19.653  0.00  0.00    +0.000 C 
ATOM      5  C   UNL     1       8.895   9.938  18.728  0.00  0.00    +0.000 C 
ATOM      6  O   UNL     1       8.264  10.555  17.869  0.00  0.00    +0.000 OA
ATOM      7  N   UNL     1       8.854   8.581  18.968  0.00  0.00    +0.000 N 
ATOM      8  C   UNL     1       8.061   7.776  18.199  0.00  0.00    +0.000 A 
ATOM      9  N   UNL     1       7.510   8.057  17.046  0.00  0.00    +0.000 NA
ATOM     10  C   UNL     1       6.681   7.029  16.670  0.00  0.00    +0.000 A 
ATOM     11  C   UNL     1       6.634   5.957  17.534  0.00  0.00    +0.000 A 
ATOM     12  S   UNL     1       7.736   6.218  18.825  0.00  0.00    +0.000 S 
ATOM     13  H   UNL     1       9.269   8.185  19.797  0.00  0.00    +0.000 HD
ENDBRANCH   1  11
BRANCH   1  14
ATOM     14  N   UNL     1       4.071   4.843  17.212  0.00  0.00    +0.000 N 
ATOM     15  H   UNL     1       3.669   4.105  16.633  0.00  0.00    +0.000 HD
BRANCH  14  16
ATOM     16  C   UNL     1       3.307   5.134  18.384  0.00  0.00    +0.000 A 
ATOM     17  C   UNL     1       3.175   6.442  18.854  0.00  0.00    +0.000 A 
ATOM     18  C   UNL     1       2.368   6.699  19.964  0.00  0.00    +0.000 A 
ATOM     19  C   UNL     1       1.676   5.658  20.588  0.00  0.00    +0.000 A 
ATOM     20  C   UNL     1       1.792   4.348  20.114  0.00  0.00    +0.000 A 
ATOM     21  C   UNL     1       1.043   3.220  20.762  0.00  0.00    +0.000 C 
ATOM     22  C   UNL     1       2.615   4.096  19.010  0.00  0.00    +0.000 A 
ENDBRANCH  14  16
ENDBRANCH   1  14
TORSDOF 3
ENDMDL
MODEL 8
REMARK VINA RESULT:      -7.4      1.114      1.286
REMARK  Name = 
REMARK  5 active torsions:
REMARK  status: ('A' for Active; 'I' for Inactive)
REMARK    1  A    between atoms: C_1  and  C_2
REMARK    2  A    between atoms: C_8  and  S_9
REMARK    3  A    between atoms: S_9  and  N_12
REMARK    4  A    between atoms: N_12  and  C_13
REMARK    5  A    between atoms: C_17  and  C_18
REMARK                            x       y       z     vdW  Elec       q    Type
REMARK                         _______ _______ _______ _____ _____    ______ ____
ROOT
ATOM      1  S   UNL     1       5.578   4.756  19.124  0.00  0.00    +0.000 S 
ATOM      2  O   UNL     1       5.382   3.431  19.667  0.00  0.00    +0.000 OA
ATOM      3  O   UNL     1       6.559   5.654  19.699  0.00  0.00    +0.000 OA
ENDROOT
BRANCH   1  11
ATOM      4  C   UNL     1       8.018   5.754  11.816  0.00  0.00    +0.000 C 
ATOM      5  C   UNL     1       7.271   5.022  12.895  0.00  0.00    +0.000 C 
ATOM      6  O   UNL     1       6.445   4.163  12.587  0.00  0.00    +0.000 OA
ATOM      7  N   UNL     1       7.608   5.427  14.169  0.00  0.00    +0.000 N 
ATOM      8  C   UNL     1       7.009   4.844  15.250  0.00  0.00    +0.000 A 
ATOM      9  N   UNL     1       6.330   3.727  15.286  0.00  0.00    +0.000 NA
ATOM     10  C   UNL     1       5.780   3.563  16.534  0.00  0.00    +0.000 A 
ATOM     11  C   UNL     1       6.076   4.551  17.448  0.00  0.00    +0.000 A 
ATOM     12  S   UNL     1       7.151   5.683  16.734  0.00  0.00    +0.000 S 
ATOM     13  H   UNL     1       8.166   6.252  14.323  0.00  0.00    +0.000 HD
ENDBRANCH   1  11
BRANCH   1  14
ATOM     14  N   UNL     1       4.064   5.530  19.153  0.00  0.00    +0.000 N 
ATOM     15  H   UNL     1       4.035   6.178  18.365  0.00  0.00    +0.000 HD
BRANCH  14  16
ATOM     16  C   UNL     1       2.924   4.671  19.235  0.00  0.00    +0.000 A 
ATOM     17  C   UNL     1       2.204   4.318  18.093  0.00  0.00    +0.000 A 
ATOM     18  C   UNL     1       1.135   3.425  18.199  0.00  0.00    +0.000 A 
ATOM     19  C   UNL     1       0.802   2.871  19.438  0.00  0.00    +0.000 A 
ATOM     20  C   UNL     1       1.528   3.209  20.583  0.00  0.00    +0.000 A 
ATOM     21  C   UNL     1       1.194   2.610  21.918  0.00  0.00    +0.000 C 
ATOM     22  C   UNL     1       2.588   4.116  20.471  0.00  0.00    +0.000 A 
ENDBRANCH  14  16
ENDBRANCH   1  14
TORSDOF 3
ENDMDL
MODEL 9
REMARK VINA RESULT:      -7.4      3.411      7.081
REMARK  Name = 
REMARK  5 active torsions:
REMARK  status: ('A' for Active; 'I' for Inactive)
REMARK    1  A    between atoms: C_1  and  C_2
REMARK    2  A    between atoms: C_8  and  S_9
REMARK    3  A    between atoms: S_9  and  N_12
REMARK    4  A    between atoms: N_12  and  C_13
REMARK    5  A    between atoms: C_17  and  C_18
REMARK                            x       y       z     vdW  Elec       q    Type
REMARK                         _______ _______ _______ _____ _____    ______ ____
ROOT
ATOM      1  S   UNL     1       2.730   3.231  18.190  0.00  0.00    +0.000 S 
ATOM      2  O   UNL     1       2.090   2.334  19.126  0.00  0.00    +0.000 OA
ATOM      3  O   UNL     1       2.299   3.290  16.809  0.00  0.00    +0.000 OA
ENDROOT
BRANCH   1  11
ATOM      4  C   UNL     1       0.719   9.516  22.290  0.00  0.00    +0.000 C 
ATOM      5  C   UNL     1       1.125   8.808  21.028  0.00  0.00    +0.000 C 
ATOM      6  O   UNL     1       0.988   9.373  19.943  0.00  0.00    +0.000 OA
ATOM      7  N   UNL     1       1.619   7.540  21.245  0.00  0.00    +0.000 N 
ATOM      8  C   UNL     1       2.030   6.779  20.186  0.00  0.00    +0.000 A 
ATOM      9  N   UNL     1       2.294   7.176  18.967  0.00  0.00    +0.000 NA
ATOM     10  C   UNL     1       2.545   6.084  18.173  0.00  0.00    +0.000 A 
ATOM     11  C   UNL     1       2.499   4.863  18.810  0.00  0.00    +0.000 A 
ATOM     12  S   UNL     1       2.210   5.105  20.485  0.00  0.00    +0.000 S 
ATOM     13  H   UNL     1       1.537   7.094  22.145  0.00  0.00    +0.000 HD
ENDBRANCH   1  11
BRANCH   1  14
ATOM     14  N   UNL     1       4.390   2.866  18.216  0.00  0.00    +0.000 N 
ATOM     15  H   UNL     1       4.511   1.953  17.778  0.00  0.00    +0.000 HD
BRANCH  14  16
ATOM     16  C   UNL     1       5.261   3.874  17.694  0.00  0.00    +0.000 A 
ATOM     17  C   UNL     1       5.930   4.758  18.541  0.00  0.00    +0.000 A 
ATOM     18  C   UNL     1       6.823   5.687  18.003  0.00  0.00    +0.000 A 
ATOM     19  C   UNL     1       7.063   5.717  16.627  0.00  0.00    +0.000 A 
ATOM     20  C   UNL     1       6.407   4.824  15.774  0.00  0.00    +0.000 A 
ATOM     21  C   UNL     1       6.666   4.832  14.296  0.00  0.00    +0.000 C 
ATOM     22  C   UNL     1       5.502   3.907  16.320  0.00  0.00    +0.000 A 
ENDBRANCH  14  16
ENDBRANCH   1  14
TORSDOF 3
ENDMDL
