MODEL 1
REMARK VINA RESULT:      -8.4      0.000      0.000
REMARK  Name = 
REMARK  10 active torsions:
REMARK  status: ('A' for Active; 'I' for Inactive)
REMARK    1  A    between atoms: C_1  and  O_2
REMARK    2  A    between atoms: O_2  and  C_3
REMARK    3  A    between atoms: C_3  and  C_4
REMARK    4  A    between atoms: C_4  and  N_5
REMARK    5  A    between atoms: C_12  and  C_13
REMARK    6  A    between atoms: C_16  and  C_17
REMARK    7  A    between atoms: C_17  and  C_18
REMARK    8  A    between atoms: C_18  and  C_19
REMARK    9  A    between atoms: C_18  and  N_21
REMARK   10  A    between atoms: C_22  and  C_24
REMARK                            x       y       z     vdW  Elec       q    Type
REMARK                         _______ _______ _______ _____ _____    ______ ____
ROOT
ATOM      1  C   UNL     1       1.146   9.146  19.343  0.00  0.00    +0.000 A 
ATOM      2  C   UNL     1       0.390   9.121  20.530  0.00  0.00    +0.000 A 
ATOM      3  C   UNL     1      -0.467  10.170  20.873  0.00  0.00    +0.000 A 
ATOM      4  C   UNL     1      -0.598  11.273  20.026  0.00  0.00    +0.000 A 
ATOM      5  C   UNL     1       0.172  11.313  18.863  0.00  0.00    +0.000 A 
ATOM      6  F   UNL     1       0.093  12.371  18.044  0.00  0.00    +0.000 F 
ATOM      7  C   UNL     1       1.019  10.271  18.517  0.00  0.00    +0.000 A 
ENDROOT
BRANCH   1  15
ATOM      8  N   UNL     1       3.250   4.666  20.063  0.00  0.00    +0.000 N 
ATOM      9  C   UNL     1       4.268   3.959  19.414  0.00  0.00    +0.000 C 
ATOM     10  O   UNL     1       4.738   2.871  19.731  0.00  0.00    +0.000 OA
ATOM     11  C   UNL     1       4.750   4.815  18.241  0.00  0.00    +0.000 C 
ATOM     12  C   UNL     1       3.876   6.022  18.342  0.00  0.00    +0.000 A 
ATOM     13  C   UNL     1       3.859   7.153  17.553  0.00  0.00    +0.000 A 
ATOM     14  C   UNL     1       2.943   8.158  17.874  0.00  0.00    +0.000 A 
ATOM     15  C   UNL     1       2.068   8.051  18.985  0.00  0.00    +0.000 A 
ATOM     16  C   UNL     1       2.128   6.887  19.771  0.00  0.00    +0.000 A 
ATOM     17  C   UNL     1       3.019   5.890  19.431  0.00  0.00    +0.000 A 
BRANCH   8  18
ATOM     18  C   UNL     1       2.589   4.209  21.269  0.00  0.00    +0.000 C 
BRANCH  18  19
ATOM     19  C   UNL     1       1.432   3.230  21.036  0.00  0.00    +0.000 C 
BRANCH  19  21
ATOM     20  C   UNL     1       0.853   2.422  18.906  0.00  0.00    +0.000 C 
ATOM     21  O   UNL     1       0.764   3.516  19.809  0.00  0.00    +0.000 OA
ENDBRANCH  19  21
ENDBRANCH  18  19
ENDBRANCH   8  18
ENDBRANCH   1  15
BRANCH   4  22
ATOM     22  C   UNL     1      -1.571  12.379  20.347  0.00  0.00    +0.000 C 
BRANCH  22  23
ATOM     23  C   UNL     1      -1.737  12.635  21.859  0.00  0.00    +0.000 C 
BRANCH  23  24
ATOM     24  N   UNL     1      -3.052  13.214  22.125  0.00  0.00    +0.000 N 
ATOM     25  C   UNL     1      -3.850  12.771  23.160  0.00  0.00    +0.000 C 
ATOM     26  O   UNL     1      -3.522  11.830  23.877  0.00  0.00    +0.000 OA
ATOM     27  H   UNL     1      -3.420  13.979  21.558  0.00  0.00    +0.000 HD
BRANCH  25  28
ATOM     28  C   UNL     1      -5.200  13.512  23.287  0.00  0.00    +0.000 C 
ATOM     29  C   UNL     1      -6.198  12.678  24.118  0.00  0.00    +0.000 C 
ATOM     30  C   UNL     1      -7.533  13.422  24.247  0.00  0.00    +0.000 C 
ATOM     31  C   UNL     1      -7.442  14.762  23.502  0.00  0.00    +0.000 C 
ATOM     32  C   UNL     1      -7.151  14.483  22.019  0.00  0.00    +0.000 C 
ATOM     33  C   UNL     1      -5.796  13.772  21.889  0.00  0.00    +0.000 C 
ATOM     34  C   UNL     1      -6.266  15.560  24.089  0.00  0.00    +0.000 C 
ATOM     35  N   UNL     1      -4.986  14.840  23.944  0.00  0.00    +0.000 NA
ATOM     36  H   UNL     1      -4.603  14.678  24.879  0.00  0.00    +0.000 HD
ENDBRANCH  25  28
ENDBRANCH  23  24
BRANCH  23  37
ATOM     37  C   UNL     1      -0.663  13.515  22.371  0.00  0.00    +0.000 C 
ATOM     38  N   UNL     1       0.181  14.207  22.769  0.00  0.00    +0.000 NA
ENDBRANCH  23  37
ENDBRANCH  22  23
ENDBRANCH   4  22
TORSDOF 9
ENDMDL
MODEL 2
REMARK VINA RESULT:      -8.3      0.872      1.364
REMARK  Name = 
REMARK  10 active torsions:
REMARK  status: ('A' for Active; 'I' for Inactive)
REMARK    1  A    between atoms: C_1  and  O_2
REMARK    2  A    between atoms: O_2  and  C_3
REMARK    3  A    between atoms: C_3  and  C_4
REMARK    4  A    between atoms: C_4  and  N_5
REMARK    5  A    between atoms: C_12  and  C_13
REMARK    6  A    between atoms: C_16  and  C_17
REMARK    7  A    between atoms: C_17  and  C_18
REMARK    8  A    between atoms: C_18  and  C_19
REMARK    9  A    between atoms: C_18  and  N_21
REMARK   10  A    between atoms: C_22  and  C_24
REMARK                            x       y       z     vdW  Elec       q    Type
REMARK                         _______ _______ _______ _____ _____    ______ ____
ROOT
ATOM      1  C   UNL     1       1.346   8.975  19.293  0.00  0.00    +0.000 A 
ATOM      2  C   UNL     1       0.456   8.929  20.383  0.00  0.00    +0.000 A 
ATOM      3  C   UNL     1      -0.350  10.021  20.715  0.00  0.00    +0.000 A 
ATOM      4  C   UNL     1      -0.293  11.191  19.954  0.00  0.00    +0.000 A 
ATOM      5  C   UNL     1       0.608  11.250  18.891  0.00  0.00    +0.000 A 
ATOM      6  F   UNL     1       0.710  12.368  18.160  0.00  0.00    +0.000 F 
ATOM      7  C   UNL     1       1.406  10.166  18.555  0.00  0.00    +0.000 A 
ENDROOT
BRANCH   1  15
ATOM      8  N   UNL     1       3.225   4.406  20.062  0.00  0.00    +0.000 N 
ATOM      9  C   UNL     1       4.210   3.643  19.423  0.00  0.00    +0.000 C 
ATOM     10  O   UNL     1       4.625   2.537  19.752  0.00  0.00    +0.000 OA
ATOM     11  C   UNL     1       4.737   4.464  18.245  0.00  0.00    +0.000 C 
ATOM     12  C   UNL     1       3.923   5.713  18.331  0.00  0.00    +0.000 A 
ATOM     13  C   UNL     1       3.964   6.836  17.532  0.00  0.00    +0.000 A 
ATOM     14  C   UNL     1       3.097   7.887  17.839  0.00  0.00    +0.000 A 
ATOM     15  C   UNL     1       2.215   7.834  18.949  0.00  0.00    +0.000 A 
ATOM     16  C   UNL     1       2.215   6.676  19.746  0.00  0.00    +0.000 A 
ATOM     17  C   UNL     1       3.057   5.633  19.418  0.00  0.00    +0.000 A 
BRANCH   8  18
ATOM     18  C   UNL     1       2.540   3.992  21.269  0.00  0.00    +0.000 C 
BRANCH  18  19
ATOM     19  C   UNL     1       1.455   2.929  21.060  0.00  0.00    +0.000 C 
BRANCH  19  21
ATOM     20  C   UNL     1       0.699   2.136  18.980  0.00  0.00    +0.000 C 
ATOM     21  O   UNL     1       0.676   3.218  19.901  0.00  0.00    +0.000 OA
ENDBRANCH  19  21
ENDBRANCH  18  19
ENDBRANCH   8  18
ENDBRANCH   1  15
BRANCH   4  22
ATOM     22  C   UNL     1      -1.207  12.351  20.258  0.00  0.00    +0.000 C 
BRANCH  22  23
ATOM     23  C   UNL     1      -1.756  12.344  21.699  0.00  0.00    +0.000 C 
BRANCH  23  24
ATOM     24  N   UNL     1      -3.181  12.667  21.691  0.00  0.00    +0.000 N 
ATOM     25  C   UNL     1      -3.971  12.517  22.813  0.00  0.00    +0.000 C 
ATOM     26  O   UNL     1      -3.532  12.051  23.860  0.00  0.00    +0.000 OA
ATOM     27  H   UNL     1      -3.638  13.029  20.854  0.00  0.00    +0.000 HD
BRANCH  25  28
ATOM     28  C   UNL     1      -5.449  12.920  22.611  0.00  0.00    +0.000 C 
ATOM     29  C   UNL     1      -5.548  14.371  22.095  0.00  0.00    +0.000 C 
ATOM     30  C   UNL     1      -7.016  14.763  21.889  0.00  0.00    +0.000 C 
ATOM     31  C   UNL     1      -7.916  13.577  22.267  0.00  0.00    +0.000 C 
ATOM     32  C   UNL     1      -7.680  13.229  23.745  0.00  0.00    +0.000 C 
ATOM     33  C   UNL     1      -6.218  12.802  23.942  0.00  0.00    +0.000 C 
ATOM     34  C   UNL     1      -7.505  12.368  21.410  0.00  0.00    +0.000 C 
ATOM     35  N   UNL     1      -6.095  11.992  21.629  0.00  0.00    +0.000 NA
ATOM     36  H   UNL     1      -5.600  12.074  20.737  0.00  0.00    +0.000 HD
ENDBRANCH  25  28
ENDBRANCH  23  24
BRANCH  23  37
ATOM     37  C   UNL     1      -1.008  13.287  22.559  0.00  0.00    +0.000 C 
ATOM     38  N   UNL     1      -0.418  14.029  23.231  0.00  0.00    +0.000 NA
ENDBRANCH  23  37
ENDBRANCH  22  23
ENDBRANCH   4  22
TORSDOF 9
ENDMDL
MODEL 3
REMARK VINA RESULT:      -8.2      8.076     11.457
REMARK  Name = 
REMARK  10 active torsions:
REMARK  status: ('A' for Active; 'I' for Inactive)
REMARK    1  A    between atoms: C_1  and  O_2
REMARK    2  A    between atoms: O_2  and  C_3
REMARK    3  A    between atoms: C_3  and  C_4
REMARK    4  A    between atoms: C_4  and  N_5
REMARK    5  A    between atoms: C_12  and  C_13
REMARK    6  A    between atoms: C_16  and  C_17
REMARK    7  A    between atoms: C_17  and  C_18
REMARK    8  A    between atoms: C_18  and  C_19
REMARK    9  A    between atoms: C_18  and  N_21
REMARK   10  A    between atoms: C_22  and  C_24
REMARK                            x       y       z     vdW  Elec       q    Type
REMARK                         _______ _______ _______ _____ _____    ______ ____
ROOT
ATOM      1  C   UNL     1       8.535   8.932  18.470  0.00  0.00    +0.000 A 
ATOM      2  C   UNL     1       7.900   8.754  17.226  0.00  0.00    +0.000 A 
ATOM      3  C   UNL     1       7.441   7.500  16.812  0.00  0.00    +0.000 A 
ATOM      4  C   UNL     1       7.598   6.388  17.642  0.00  0.00    +0.000 A 
ATOM      5  C   UNL     1       8.252   6.556  18.863  0.00  0.00    +0.000 A 
ATOM      6  F   UNL     1       8.446   5.504  19.670  0.00  0.00    +0.000 F 
ATOM      7  C   UNL     1       8.703   7.800  19.279  0.00  0.00    +0.000 A 
ENDROOT
BRANCH   1  15
ATOM      8  N   UNL     1       9.232  12.553  21.847  0.00  0.00    +0.000 N 
ATOM      9  C   UNL     1       9.791  13.835  21.791  0.00  0.00    +0.000 C 
ATOM     10  O   UNL     1       9.851  14.661  22.696  0.00  0.00    +0.000 OA
ATOM     11  C   UNL     1      10.280  14.063  20.360  0.00  0.00    +0.000 C 
ATOM     12  C   UNL     1       9.931  12.775  19.689  0.00  0.00    +0.000 A 
ATOM     13  C   UNL     1      10.122  12.397  18.377  0.00  0.00    +0.000 A 
ATOM     14  C   UNL     1       9.685  11.126  17.995  0.00  0.00    +0.000 A 
ATOM     15  C   UNL     1       9.040  10.248  18.904  0.00  0.00    +0.000 A 
ATOM     16  C   UNL     1       8.854  10.679  20.229  0.00  0.00    +0.000 A 
ATOM     17  C   UNL     1       9.312  11.926  20.602  0.00  0.00    +0.000 A 
BRANCH   8  18
ATOM     18  C   UNL     1       8.596  11.999  23.025  0.00  0.00    +0.000 C 
BRANCH  18  19
ATOM     19  C   UNL     1       7.116  12.367  23.189  0.00  0.00    +0.000 C 
BRANCH  19  21
ATOM     20  C   UNL     1       7.994  12.752  25.335  0.00  0.00    +0.000 C 
ATOM     21  O   UNL     1       6.812  12.656  24.552  0.00  0.00    +0.000 OA
ENDBRANCH  19  21
ENDBRANCH  18  19
ENDBRANCH   8  18
ENDBRANCH   1  15
BRANCH   4  22
ATOM     22  C   UNL     1       7.044   5.044  17.240  0.00  0.00    +0.000 C 
BRANCH  22  23
ATOM     23  C   UNL     1       5.643   5.120  16.600  0.00  0.00    +0.000 C 
BRANCH  23  24
ATOM     24  N   UNL     1       4.667   4.453  17.459  0.00  0.00    +0.000 N 
ATOM     25  C   UNL     1       3.575   5.117  17.979  0.00  0.00    +0.000 C 
ATOM     26  O   UNL     1       3.397   6.318  17.795  0.00  0.00    +0.000 OA
ATOM     27  H   UNL     1       4.754   3.463  17.691  0.00  0.00    +0.000 HD
BRANCH  25  28
ATOM     28  C   UNL     1       2.651   4.241  18.854  0.00  0.00    +0.000 C 
ATOM     29  C   UNL     1       1.687   3.422  17.970  0.00  0.00    +0.000 C 
ATOM     30  C   UNL     1       0.778   2.549  18.843  0.00  0.00    +0.000 C 
ATOM     31  C   UNL     1       1.124   2.775  20.323  0.00  0.00    +0.000 C 
ATOM     32  C   UNL     1       0.894   4.256  20.663  0.00  0.00    +0.000 C 
ATOM     33  C   UNL     1       1.832   5.127  19.813  0.00  0.00    +0.000 C 
ATOM     34  C   UNL     1       2.616   2.455  20.522  0.00  0.00    +0.000 C 
ATOM     35  N   UNL     1       3.479   3.312  19.688  0.00  0.00    +0.000 NA
ATOM     36  H   UNL     1       4.017   2.710  19.059  0.00  0.00    +0.000 HD
ENDBRANCH  25  28
ENDBRANCH  23  24
BRANCH  23  37
ATOM     37  C   UNL     1       5.643   4.528  15.245  0.00  0.00    +0.000 C 
ATOM     38  N   UNL     1       5.638   4.064  14.180  0.00  0.00    +0.000 NA
ENDBRANCH  23  37
ENDBRANCH  22  23
ENDBRANCH   4  22
TORSDOF 9
ENDMDL
MODEL 4
REMARK VINA RESULT:      -8.2      2.350      3.405
REMARK  Name = 
REMARK  10 active torsions:
REMARK  status: ('A' for Active; 'I' for Inactive)
REMARK    1  A    between atoms: C_1  and  O_2
REMARK    2  A    between atoms: O_2  and  C_3
REMARK    3  A    between atoms: C_3  and  C_4
REMARK    4  A    between atoms: C_4  and  N_5
REMARK    5  A    between atoms: C_12  and  C_13
REMARK    6  A    between atoms: C_16  and  C_17
REMARK    7  A    between atoms: C_17  and  C_18
REMARK    8  A    between atoms: C_18  and  C_19
REMARK    9  A    between atoms: C_18  and  N_21
REMARK   10  A    between atoms: C_22  and  C_24
REMARK                            x       y       z     vdW  Elec       q    Type
REMARK                         _______ _______ _______ _____ _____    ______ ____
ROOT
ATOM      1  C   UNL     1       0.569  10.202  20.427  0.00  0.00    +0.000 A 
ATOM      2  C   UNL     1       0.314  11.507  19.960  0.00  0.00    +0.000 A 
ATOM      3  C   UNL     1      -0.410  12.427  20.724  0.00  0.00    +0.000 A 
ATOM      4  C   UNL     1      -0.891  12.067  21.984  0.00  0.00    +0.000 A 
ATOM      5  C   UNL     1      -0.665  10.767  22.437  0.00  0.00    +0.000 A 
ATOM      6  F   UNL     1      -1.139  10.380  23.629  0.00  0.00    +0.000 F 
ATOM      7  C   UNL     1       0.058   9.853  21.684  0.00  0.00    +0.000 A 
ENDROOT
BRANCH   1  15
ATOM      8  N   UNL     1       2.554   5.687  19.605  0.00  0.00    +0.000 N 
ATOM      9  C   UNL     1       3.338   5.146  18.580  0.00  0.00    +0.000 C 
ATOM     10  O   UNL     1       3.817   4.018  18.524  0.00  0.00    +0.000 OA
ATOM     11  C   UNL     1       3.553   6.242  17.535  0.00  0.00    +0.000 C 
ATOM     12  C   UNL     1       2.795   7.393  18.113  0.00  0.00    +0.000 A 
ATOM     13  C   UNL     1       2.639   8.669  17.616  0.00  0.00    +0.000 A 
ATOM     14  C   UNL     1       1.885   9.574  18.369  0.00  0.00    +0.000 A 
ATOM     15  C   UNL     1       1.314   9.219  19.618  0.00  0.00    +0.000 A 
ATOM     16  C   UNL     1       1.510   7.911  20.094  0.00  0.00    +0.000 A 
ATOM     17  C   UNL     1       2.234   7.018  19.331  0.00  0.00    +0.000 A 
BRANCH   8  18
ATOM     18  C   UNL     1       2.195   4.971  20.812  0.00  0.00    +0.000 C 
BRANCH  18  19
ATOM     19  C   UNL     1       0.988   4.037  20.671  0.00  0.00    +0.000 C 
BRANCH  19  21
ATOM     20  C   UNL     1       2.634   2.608  21.551  0.00  0.00    +0.000 C 
ATOM     21  O   UNL     1       1.359   2.684  20.928  0.00  0.00    +0.000 OA
ENDBRANCH  19  21
ENDBRANCH  18  19
ENDBRANCH   8  18
ENDBRANCH   1  15
BRANCH   4  22
ATOM     22  C   UNL     1      -1.612  13.072  22.848  0.00  0.00    +0.000 C 
BRANCH  22  23
ATOM     23  C   UNL     1      -3.136  12.847  22.916  0.00  0.00    +0.000 C 
BRANCH  23  24
ATOM     24  N   UNL     1      -3.680  12.713  21.566  0.00  0.00    +0.000 N 
ATOM     25  C   UNL     1      -5.015  12.444  21.339  0.00  0.00    +0.000 C 
ATOM     26  O   UNL     1      -5.803  12.246  22.258  0.00  0.00    +0.000 OA
ATOM     27  H   UNL     1      -3.090  12.829  20.742  0.00  0.00    +0.000 HD
BRANCH  25  28
ATOM     28  C   UNL     1      -5.402  12.350  19.846  0.00  0.00    +0.000 C 
ATOM     29  C   UNL     1      -6.515  11.301  19.642  0.00  0.00    +0.000 C 
ATOM     30  C   UNL     1      -6.900  11.217  18.160  0.00  0.00    +0.000 C 
ATOM     31  C   UNL     1      -6.046  12.208  17.356  0.00  0.00    +0.000 C 
ATOM     32  C   UNL     1      -4.565  11.834  17.524  0.00  0.00    +0.000 C 
ATOM     33  C   UNL     1      -4.172  11.955  19.004  0.00  0.00    +0.000 C 
ATOM     34  C   UNL     1      -6.263  13.615  17.941  0.00  0.00    +0.000 C 
ATOM     35  N   UNL     1      -5.874  13.685  19.362  0.00  0.00    +0.000 NA
ATOM     36  H   UNL     1      -6.699  13.950  19.907  0.00  0.00    +0.000 HD
ENDBRANCH  25  28
ENDBRANCH  23  24
BRANCH  23  37
ATOM     37  C   UNL     1      -3.805  13.945  23.646  0.00  0.00    +0.000 C 
ATOM     38  N   UNL     1      -4.326  14.810  24.220  0.00  0.00    +0.000 NA
ENDBRANCH  23  37
ENDBRANCH  22  23
ENDBRANCH   4  22
TORSDOF 9
ENDMDL
MODEL 5
REMARK VINA RESULT:      -8.1      2.824      4.333
REMARK  Name = 
REMARK  10 active torsions:
REMARK  status: ('A' for Active; 'I' for Inactive)
REMARK    1  A    between atoms: C_1  and  O_2
REMARK    2  A    between atoms: O_2  and  C_3
REMARK    3  A    between atoms: C_3  and  C_4
REMARK    4  A    between atoms: C_4  and  N_5
REMARK    5  A    between atoms: C_12  and  C_13
REMARK    6  A    between atoms: C_16  and  C_17
REMARK    7  A    between atoms: C_17  and  C_18
REMARK    8  A    between atoms: C_18  and  C_19
REMARK    9  A    between atoms: C_18  and  N_21
REMARK   10  A    between atoms: C_22  and  C_24
REMARK                            x       y       z     vdW  Elec       q    Type
REMARK                         _______ _______ _______ _____ _____    ______ ____
ROOT
ATOM      1  C   UNL     1       2.079   7.946  18.724  0.00  0.00    +0.000 A 
ATOM      2  C   UNL     1       1.585   8.939  17.856  0.00  0.00    +0.000 A 
ATOM      3  C   UNL     1       0.779   9.981  18.322  0.00  0.00    +0.000 A 
ATOM      4  C   UNL     1       0.454  10.063  19.678  0.00  0.00    +0.000 A 
ATOM      5  C   UNL     1       0.919   9.065  20.535  0.00  0.00    +0.000 A 
ATOM      6  F   UNL     1       0.599   9.097  21.836  0.00  0.00    +0.000 F 
ATOM      7  C   UNL     1       1.723   8.032  20.077  0.00  0.00    +0.000 A 
ENDROOT
BRANCH   1  15
ATOM      8  N   UNL     1       6.390   5.944  17.169  0.00  0.00    +0.000 N 
ATOM      9  C   UNL     1       6.751   4.684  16.679  0.00  0.00    +0.000 C 
ATOM     10  O   UNL     1       7.854   4.332  16.271  0.00  0.00    +0.000 OA
ATOM     11  C   UNL     1       5.497   3.809  16.686  0.00  0.00    +0.000 C 
ATOM     12  C   UNL     1       4.461   4.733  17.236  0.00  0.00    +0.000 A 
ATOM     13  C   UNL     1       3.121   4.502  17.462  0.00  0.00    +0.000 A 
ATOM     14  C   UNL     1       2.355   5.553  17.975  0.00  0.00    +0.000 A 
ATOM     15  C   UNL     1       2.913   6.831  18.236  0.00  0.00    +0.000 A 
ATOM     16  C   UNL     1       4.281   7.027  17.978  0.00  0.00    +0.000 A 
ATOM     17  C   UNL     1       5.033   5.975  17.496  0.00  0.00    +0.000 A 
BRANCH   8  18
ATOM     18  C   UNL     1       7.296   7.072  17.248  0.00  0.00    +0.000 C 
BRANCH  18  19
ATOM     19  C   UNL     1       8.167   7.110  18.510  0.00  0.00    +0.000 C 
BRANCH  19  21
ATOM     20  C   UNL     1       8.121   9.354  17.812  0.00  0.00    +0.000 C 
ATOM     21  O   UNL     1       8.621   8.436  18.774  0.00  0.00    +0.000 OA
ENDBRANCH  19  21
ENDBRANCH  18  19
ENDBRANCH   8  18
ENDBRANCH   1  15
BRANCH   4  22
ATOM     22  C   UNL     1      -0.355  11.220  20.206  0.00  0.00    +0.000 C 
BRANCH  22  23
ATOM     23  C   UNL     1       0.448  12.169  21.120  0.00  0.00    +0.000 C 
BRANCH  23  24
ATOM     24  N   UNL     1      -0.439  13.183  21.687  0.00  0.00    +0.000 N 
ATOM     25  C   UNL     1      -1.144  12.968  22.853  0.00  0.00    +0.000 C 
ATOM     26  O   UNL     1      -1.108  11.894  23.446  0.00  0.00    +0.000 OA
ATOM     27  H   UNL     1      -0.554  14.095  21.243  0.00  0.00    +0.000 HD
BRANCH  25  28
ATOM     28  C   UNL     1      -2.019  14.162  23.299  0.00  0.00    +0.000 C 
ATOM     29  C   UNL     1      -2.108  15.215  22.175  0.00  0.00    +0.000 C 
ATOM     30  C   UNL     1      -2.983  16.393  22.620  0.00  0.00    +0.000 C 
ATOM     31  C   UNL     1      -3.488  16.140  24.049  0.00  0.00    +0.000 C 
ATOM     32  C   UNL     1      -2.276  16.018  24.986  0.00  0.00    +0.000 C 
ATOM     33  C   UNL     1      -1.420  14.815  24.561  0.00  0.00    +0.000 C 
ATOM     34  C   UNL     1      -4.250  14.804  24.060  0.00  0.00    +0.000 C 
ATOM     35  N   UNL     1      -3.392  13.678  23.645  0.00  0.00    +0.000 NA
ATOM     36  H   UNL     1      -3.803  13.254  22.809  0.00  0.00    +0.000 HD
ENDBRANCH  25  28
ENDBRANCH  23  24
BRANCH  23  37
ATOM     37  C   UNL     1       1.565  12.800  20.383  0.00  0.00    +0.000 C 
ATOM     38  N   UNL     1       2.439  13.299  19.804  0.00  0.00    +0.000 NA
ENDBRANCH  23  37
ENDBRANCH  22  23
ENDBRANCH   4  22
TORSDOF 9
ENDMDL
MODEL 6
REMARK VINA RESULT:      -8.1      2.379      2.950
REMARK  Name = 
REMARK  10 active torsions:
REMARK  status: ('A' for Active; 'I' for Inactive)
REMARK    1  A    between atoms: C_1  and  O_2
REMARK    2  A    between atoms: O_2  and  C_3
REMARK    3  A    between atoms: C_3  and  C_4
REMARK    4  A    between atoms: C_4  and  N_5
REMARK    5  A    between atoms: C_12  and  C_13
REMARK    6  A    between atoms: C_16  and  C_17
REMARK    7  A    between atoms: C_17  and  C_18
REMARK    8  A    between atoms: C_18  and  C_19
REMARK    9  A    between atoms: C_18  and  N_21
REMARK   10  A    between atoms: C_22  and  C_24
REMARK                            x       y       z     vdW  Elec       q    Type
REMARK                         _______ _______ _______ _____ _____    ______ ____
ROOT
ATOM      1  C   UNL     1       1.493   8.677  19.064  0.00  0.00    +0.000 A 
ATOM      2  C   UNL     1       0.961   9.440  18.006  0.00  0.00    +0.000 A 
ATOM      3  C   UNL     1       0.088  10.505  18.241  0.00  0.00    +0.000 A 
ATOM      4  C   UNL     1      -0.270  10.843  19.549  0.00  0.00    +0.000 A 
ATOM      5  C   UNL     1       0.233  10.072  20.596  0.00  0.00    +0.000 A 
ATOM      6  F   UNL     1      -0.114  10.350  21.860  0.00  0.00    +0.000 F 
ATOM      7  C   UNL     1       1.105   9.017  20.367  0.00  0.00    +0.000 A 
ENDROOT
BRANCH   1  15
ATOM      8  N   UNL     1       3.355   4.155  20.107  0.00  0.00    +0.000 N 
ATOM      9  C   UNL     1       4.396   3.389  19.570  0.00  0.00    +0.000 C 
ATOM     10  O   UNL     1       4.795   2.297  19.962  0.00  0.00    +0.000 OA
ATOM     11  C   UNL     1       5.007   4.184  18.416  0.00  0.00    +0.000 C 
ATOM     12  C   UNL     1       4.174   5.425  18.402  0.00  0.00    +0.000 A 
ATOM     13  C   UNL     1       4.268   6.526  17.577  0.00  0.00    +0.000 A 
ATOM     14  C   UNL     1       3.367   7.574  17.786  0.00  0.00    +0.000 A 
ATOM     15  C   UNL     1       2.399   7.538  18.822  0.00  0.00    +0.000 A 
ATOM     16  C   UNL     1       2.348   6.402  19.648  0.00  0.00    +0.000 A 
ATOM     17  C   UNL     1       3.225   5.362  19.418  0.00  0.00    +0.000 A 
BRANCH   8  18
ATOM     18  C   UNL     1       2.579   3.765  21.266  0.00  0.00    +0.000 C 
BRANCH  18  19
ATOM     19  C   UNL     1       1.442   2.777  20.977  0.00  0.00    +0.000 C 
BRANCH  19  21
ATOM     20  C   UNL     1       0.801   2.274  18.772  0.00  0.00    +0.000 C 
ATOM     21  O   UNL     1       0.680   3.196  19.846  0.00  0.00    +0.000 OA
ENDBRANCH  19  21
ENDBRANCH  18  19
ENDBRANCH   8  18
ENDBRANCH   1  15
BRANCH   4  22
ATOM     22  C   UNL     1      -1.154  12.034  19.821  0.00  0.00    +0.000 C 
BRANCH  22  23
ATOM     23  C   UNL     1      -0.384  13.272  20.324  0.00  0.00    +0.000 C 
BRANCH  23  24
ATOM     24  N   UNL     1      -1.078  13.858  21.469  0.00  0.00    +0.000 N 
ATOM     25  C   UNL     1      -0.398  14.460  22.507  0.00  0.00    +0.000 C 
ATOM     26  O   UNL     1       0.828  14.484  22.553  0.00  0.00    +0.000 OA
ATOM     27  H   UNL     1      -2.097  13.854  21.530  0.00  0.00    +0.000 HD
BRANCH  25  28
ATOM     28  C   UNL     1      -1.305  15.030  23.620  0.00  0.00    +0.000 C 
ATOM     29  C   UNL     1      -2.446  14.042  23.946  0.00  0.00    +0.000 C 
ATOM     30  C   UNL     1      -3.339  14.609  25.056  0.00  0.00    +0.000 C 
ATOM     31  C   UNL     1      -2.806  15.985  25.483  0.00  0.00    +0.000 C 
ATOM     32  C   UNL     1      -2.836  16.926  24.269  0.00  0.00    +0.000 C 
ATOM     33  C   UNL     1      -1.912  16.375  23.172  0.00  0.00    +0.000 C 
ATOM     34  C   UNL     1      -1.345  15.817  25.934  0.00  0.00    +0.000 C 
ATOM     35  N   UNL     1      -0.494  15.285  24.852  0.00  0.00    +0.000 NA
ATOM     36  H   UNL     1      -0.098  14.395  25.165  0.00  0.00    +0.000 HD
ENDBRANCH  25  28
ENDBRANCH  23  24
BRANCH  23  37
ATOM     37  C   UNL     1      -0.215  14.270  19.245  0.00  0.00    +0.000 C 
ATOM     38  N   UNL     1      -0.076  15.051  18.397  0.00  0.00    +0.000 NA
ENDBRANCH  23  37
ENDBRANCH  22  23
ENDBRANCH   4  22
TORSDOF 9
ENDMDL
MODEL 7
REMARK VINA RESULT:      -8.1      8.091     11.507
REMARK  Name = 
REMARK  10 active torsions:
REMARK  status: ('A' for Active; 'I' for Inactive)
REMARK    1  A    between atoms: C_1  and  O_2
REMARK    2  A    between atoms: O_2  and  C_3
REMARK    3  A    between atoms: C_3  and  C_4
REMARK    4  A    between atoms: C_4  and  N_5
REMARK    5  A    between atoms: C_12  and  C_13
REMARK    6  A    between atoms: C_16  and  C_17
REMARK    7  A    between atoms: C_17  and  C_18
REMARK    8  A    between atoms: C_18  and  C_19
REMARK    9  A    between atoms: C_18  and  N_21
REMARK   10  A    between atoms: C_22  and  C_24
REMARK                            x       y       z     vdW  Elec       q    Type
REMARK                         _______ _______ _______ _____ _____    ______ ____
ROOT
ATOM      1  C   UNL     1       8.538   8.885  18.482  0.00  0.00    +0.000 A 
ATOM      2  C   UNL     1       7.909   8.678  17.240  0.00  0.00    +0.000 A 
ATOM      3  C   UNL     1       7.457   7.414  16.851  0.00  0.00    +0.000 A 
ATOM      4  C   UNL     1       7.614   6.320  17.705  0.00  0.00    +0.000 A 
ATOM      5  C   UNL     1       8.262   6.516  18.925  0.00  0.00    +0.000 A 
ATOM      6  F   UNL     1       8.457   5.482  19.754  0.00  0.00    +0.000 F 
ATOM      7  C   UNL     1       8.707   7.771  19.316  0.00  0.00    +0.000 A 
ENDROOT
BRANCH   1  15
ATOM      8  N   UNL     1       9.243  12.561  21.797  0.00  0.00    +0.000 N 
ATOM      9  C   UNL     1       9.789  13.848  21.716  0.00  0.00    +0.000 C 
ATOM     10  O   UNL     1       9.853  14.688  22.608  0.00  0.00    +0.000 OA
ATOM     11  C   UNL     1      10.258  14.060  20.275  0.00  0.00    +0.000 C 
ATOM     12  C   UNL     1       9.913  12.758  19.628  0.00  0.00    +0.000 A 
ATOM     13  C   UNL     1      10.090  12.363  18.319  0.00  0.00    +0.000 A 
ATOM     14  C   UNL     1       9.661  11.082  17.961  0.00  0.00    +0.000 A 
ATOM     15  C   UNL     1       9.036  10.212  18.891  0.00  0.00    +0.000 A 
ATOM     16  C   UNL     1       8.863  10.660  20.212  0.00  0.00    +0.000 A 
ATOM     17  C   UNL     1       9.313  11.917  20.561  0.00  0.00    +0.000 A 
BRANCH   8  18
ATOM     18  C   UNL     1       8.627  12.019  22.991  0.00  0.00    +0.000 C 
BRANCH  18  19
ATOM     19  C   UNL     1       7.167  12.435  23.206  0.00  0.00    +0.000 C 
BRANCH  19  21
ATOM     20  C   UNL     1       8.163  12.906  25.283  0.00  0.00    +0.000 C 
ATOM     21  O   UNL     1       6.942  12.819  24.561  0.00  0.00    +0.000 OA
ENDBRANCH  19  21
ENDBRANCH  18  19
ENDBRANCH   8  18
ENDBRANCH   1  15
BRANCH   4  22
ATOM     22  C   UNL     1       7.068   4.966  17.329  0.00  0.00    +0.000 C 
BRANCH  22  23
ATOM     23  C   UNL     1       5.693   5.027  16.632  0.00  0.00    +0.000 C 
BRANCH  23  24
ATOM     24  N   UNL     1       4.683   4.380  17.467  0.00  0.00    +0.000 N 
ATOM     25  C   UNL     1       3.547   5.042  17.886  0.00  0.00    +0.000 C 
ATOM     26  O   UNL     1       3.352   6.226  17.628  0.00  0.00    +0.000 OA
ATOM     27  H   UNL     1       4.779   3.407  17.757  0.00  0.00    +0.000 HD
BRANCH  25  28
ATOM     28  C   UNL     1       2.594   4.188  18.752  0.00  0.00    +0.000 C 
ATOM     29  C   UNL     1       1.841   5.077  19.764  0.00  0.00    +0.000 C 
ATOM     30  C   UNL     1       0.892   4.226  20.615  0.00  0.00    +0.000 C 
ATOM     31  C   UNL     1       1.000   2.757  20.182  0.00  0.00    +0.000 C 
ATOM     32  C   UNL     1       2.446   2.284  20.397  0.00  0.00    +0.000 C 
ATOM     33  C   UNL     1       3.392   3.113  19.516  0.00  0.00    +0.000 C 
ATOM     34  C   UNL     1       0.678   2.673  18.680  0.00  0.00    +0.000 C 
ATOM     35  N   UNL     1       1.608   3.484  17.872  0.00  0.00    +0.000 NA
ATOM     36  H   UNL     1       1.064   4.190  17.370  0.00  0.00    +0.000 HD
ENDBRANCH  25  28
ENDBRANCH  23  24
BRANCH  23  37
ATOM     37  C   UNL     1       5.746   4.403  15.292  0.00  0.00    +0.000 C 
ATOM     38  N   UNL     1       5.791   3.916  14.238  0.00  0.00    +0.000 NA
ENDBRANCH  23  37
ENDBRANCH  22  23
ENDBRANCH   4  22
TORSDOF 9
ENDMDL
MODEL 8
REMARK VINA RESULT:      -8.1      1.220      1.743
REMARK  Name = 
REMARK  10 active torsions:
REMARK  status: ('A' for Active; 'I' for Inactive)
REMARK    1  A    between atoms: C_1  and  O_2
REMARK    2  A    between atoms: O_2  and  C_3
REMARK    3  A    between atoms: C_3  and  C_4
REMARK    4  A    between atoms: C_4  and  N_5
REMARK    5  A    between atoms: C_12  and  C_13
REMARK    6  A    between atoms: C_16  and  C_17
REMARK    7  A    between atoms: C_17  and  C_18
REMARK    8  A    between atoms: C_18  and  C_19
REMARK    9  A    between atoms: C_18  and  N_21
REMARK   10  A    between atoms: C_22  and  C_24
REMARK                            x       y       z     vdW  Elec       q    Type
REMARK                         _______ _______ _______ _____ _____    ______ ____
ROOT
ATOM      1  C   UNL     1       1.718   8.566  19.067  0.00  0.00    +0.000 A 
ATOM      2  C   UNL     1       1.590   9.610  18.130  0.00  0.00    +0.000 A 
ATOM      3  C   UNL     1       0.755  10.705  18.366  0.00  0.00    +0.000 A 
ATOM      4  C   UNL     1       0.030  10.790  19.557  0.00  0.00    +0.000 A 
ATOM      5  C   UNL     1       0.133   9.745  20.475  0.00  0.00    +0.000 A 
ATOM      6  F   UNL     1      -0.572   9.780  21.613  0.00  0.00    +0.000 F 
ATOM      7  C   UNL     1       0.966   8.658  20.246  0.00  0.00    +0.000 A 
ENDROOT
BRANCH   1  15
ATOM      8  N   UNL     1       3.433   3.982  20.091  0.00  0.00    +0.000 N 
ATOM      9  C   UNL     1       4.442   3.181  19.544  0.00  0.00    +0.000 C 
ATOM     10  O   UNL     1       4.808   2.076  19.931  0.00  0.00    +0.000 OA
ATOM     11  C   UNL     1       5.068   3.956  18.383  0.00  0.00    +0.000 C 
ATOM     12  C   UNL     1       4.279   5.224  18.378  0.00  0.00    +0.000 A 
ATOM     13  C   UNL     1       4.402   6.322  17.553  0.00  0.00    +0.000 A 
ATOM     14  C   UNL     1       3.540   7.400  17.771  0.00  0.00    +0.000 A 
ATOM     15  C   UNL     1       2.582   7.397  18.816  0.00  0.00    +0.000 A 
ATOM     16  C   UNL     1       2.500   6.263  19.643  0.00  0.00    +0.000 A 
ATOM     17  C   UNL     1       3.339   5.194  19.403  0.00  0.00    +0.000 A 
BRANCH   8  18
ATOM     18  C   UNL     1       2.656   3.618  21.258  0.00  0.00    +0.000 C 
BRANCH  18  19
ATOM     19  C   UNL     1       1.533   2.609  20.993  0.00  0.00    +0.000 C 
BRANCH  19  21
ATOM     20  C   UNL     1       0.597   2.647  18.837  0.00  0.00    +0.000 C 
ATOM     21  O   UNL     1       1.613   2.096  19.664  0.00  0.00    +0.000 OA
ENDBRANCH  19  21
ENDBRANCH  18  19
ENDBRANCH   8  18
ENDBRANCH   1  15
BRANCH   4  22
ATOM     22  C   UNL     1      -0.819  11.999  19.855  0.00  0.00    +0.000 C 
BRANCH  22  23
ATOM     23  C   UNL     1      -0.894  12.346  21.356  0.00  0.00    +0.000 C 
BRANCH  23  24
ATOM     24  N   UNL     1      -2.237  12.816  21.692  0.00  0.00    +0.000 N 
ATOM     25  C   UNL     1      -2.918  12.352  22.799  0.00  0.00    +0.000 C 
ATOM     26  O   UNL     1      -2.456  11.479  23.528  0.00  0.00    +0.000 OA
ATOM     27  H   UNL     1      -2.712  13.517  21.123  0.00  0.00    +0.000 HD
BRANCH  25  28
ATOM     28  C   UNL     1      -4.319  12.974  22.993  0.00  0.00    +0.000 C 
ATOM     29  C   UNL     1      -5.086  13.007  21.654  0.00  0.00    +0.000 C 
ATOM     30  C   UNL     1      -6.478  13.618  21.854  0.00  0.00    +0.000 C 
ATOM     31  C   UNL     1      -6.657  14.003  23.330  0.00  0.00    +0.000 C 
ATOM     32  C   UNL     1      -5.583  15.037  23.704  0.00  0.00    +0.000 C 
ATOM     33  C   UNL     1      -4.190  14.411  23.539  0.00  0.00    +0.000 C 
ATOM     34  C   UNL     1      -6.440  12.743  24.186  0.00  0.00    +0.000 C 
ATOM     35  N   UNL     1      -5.092  12.174  23.995  0.00  0.00    +0.000 NA
ATOM     36  H   UNL     1      -5.194  11.222  23.635  0.00  0.00    +0.000 HD
ENDBRANCH  25  28
ENDBRANCH  23  24
BRANCH  23  37
ATOM     37  C   UNL     1       0.123  13.357  21.722  0.00  0.00    +0.000 C 
ATOM     38  N   UNL     1       0.921  14.151  22.004  0.00  0.00    +0.000 NA
ENDBRANCH  23  37
ENDBRANCH  22  23
ENDBRANCH   4  22
TORSDOF 9
ENDMDL
MODEL 9
REMARK VINA RESULT:      -8.1      3.790      6.250
REMARK  Name = 
REMARK  10 active torsions:
REMARK  status: ('A' for Active; 'I' for Inactive)
REMARK    1  A    between atoms: C_1  and  O_2
REMARK    2  A    between atoms: O_2  and  C_3
REMARK    3  A    between atoms: C_3  and  C_4
REMARK    4  A    between atoms: C_4  and  N_5
REMARK    5  A    between atoms: C_12  and  C_13
REMARK    6  A    between atoms: C_16  and  C_17
REMARK    7  A    between atoms: C_17  and  C_18
REMARK    8  A    between atoms: C_18  and  C_19
REMARK    9  A    between atoms: C_18  and  N_21
REMARK   10  A    between atoms: C_22  and  C_24
REMARK                            x       y       z     vdW  Elec       q    Type
REMARK                         _______ _______ _______ _____ _____    ______ ____
ROOT
ATOM      1  C   UNL     1       2.101   7.735  19.100  0.00  0.00    +0.000 A 
ATOM      2  C   UNL     1       1.588   8.846  18.404  0.00  0.00    +0.000 A 
ATOM      3  C   UNL     1       0.826   9.825  19.049  0.00  0.00    +0.000 A 
ATOM      4  C   UNL     1       0.566   9.722  20.417  0.00  0.00    +0.000 A 
ATOM      5  C   UNL     1       1.049   8.608  21.104  0.00  0.00    +0.000 A 
ATOM      6  F   UNL     1       0.792   8.462  22.410  0.00  0.00    +0.000 F 
ATOM      7  C   UNL     1       1.810   7.637  20.468  0.00  0.00    +0.000 A 
ENDROOT
BRANCH   1  15
ATOM      8  N   UNL     1       6.280   5.925  17.036  0.00  0.00    +0.000 N 
ATOM      9  C   UNL     1       6.594   4.737  16.367  0.00  0.00    +0.000 C 
ATOM     10  O   UNL     1       7.664   4.433  15.849  0.00  0.00    +0.000 OA
ATOM     11  C   UNL     1       5.330   3.875  16.340  0.00  0.00    +0.000 C 
ATOM     12  C   UNL     1       4.342   4.727  17.067  0.00  0.00    +0.000 A 
ATOM     13  C   UNL     1       3.015   4.477  17.345  0.00  0.00    +0.000 A 
ATOM     14  C   UNL     1       2.298   5.458  18.035  0.00  0.00    +0.000 A 
ATOM     15  C   UNL     1       2.888   6.688  18.422  0.00  0.00    +0.000 A 
ATOM     16  C   UNL     1       4.240   6.907  18.107  0.00  0.00    +0.000 A 
ATOM     17  C   UNL     1       4.946   5.922  17.448  0.00  0.00    +0.000 A 
BRANCH   8  18
ATOM     18  C   UNL     1       7.206   7.028  17.202  0.00  0.00    +0.000 C 
BRANCH  18  19
ATOM     19  C   UNL     1       8.057   6.966  18.475  0.00  0.00    +0.000 C 
BRANCH  19  21
ATOM     20  C   UNL     1       8.153   9.236  17.872  0.00  0.00    +0.000 C 
ATOM     21  O   UNL     1       8.631   8.240  18.765  0.00  0.00    +0.000 OA
ENDBRANCH  19  21
ENDBRANCH  18  19
ENDBRANCH   8  18
ENDBRANCH   1  15
BRANCH   4  22
ATOM     22  C   UNL     1      -0.193  10.805  21.139  0.00  0.00    +0.000 C 
BRANCH  22  23
ATOM     23  C   UNL     1      -0.773  11.883  20.200  0.00  0.00    +0.000 C 
BRANCH  23  24
ATOM     24  N   UNL     1       0.156  13.008  20.100  0.00  0.00    +0.000 N 
ATOM     25  C   UNL     1       0.306  13.731  18.935  0.00  0.00    +0.000 C 
ATOM     26  O   UNL     1      -0.289  13.432  17.904  0.00  0.00    +0.000 OA
ATOM     27  H   UNL     1       0.716  13.306  20.899  0.00  0.00    +0.000 HD
BRANCH  25  28
ATOM     28  C   UNL     1       1.326  14.888  19.028  0.00  0.00    +0.000 C 
ATOM     29  C   UNL     1       2.563  14.589  18.155  0.00  0.00    +0.000 C 
ATOM     30  C   UNL     1       3.568  15.744  18.246  0.00  0.00    +0.000 C 
ATOM     31  C   UNL     1       3.014  16.827  19.184  0.00  0.00    +0.000 C 
ATOM     32  C   UNL     1       2.808  16.215  20.578  0.00  0.00    +0.000 C 
ATOM     33  C   UNL     1       1.773  15.083  20.491  0.00  0.00    +0.000 C 
ATOM     34  C   UNL     1       1.647  17.279  18.642  0.00  0.00    +0.000 C 
ATOM     35  N   UNL     1       0.686  16.162  18.574  0.00  0.00    +0.000 NA
ATOM     36  H   UNL     1       0.398  16.047  17.599  0.00  0.00    +0.000 HD
ENDBRANCH  25  28
ENDBRANCH  23  24
BRANCH  23  37
ATOM     37  C   UNL     1      -2.101  12.338  20.666  0.00  0.00    +0.000 C 
ATOM     38  N   UNL     1      -3.142  12.700  21.034  0.00  0.00    +0.000 NA
ENDBRANCH  23  37
ENDBRANCH  22  23
ENDBRANCH   4  22
TORSDOF 9
ENDMDL
