MODEL 1
REMARK VINA RESULT:      -8.3      0.000      0.000
REMARK  Name = 
REMARK  7 active torsions:
REMARK  status: ('A' for Active; 'I' for Inactive)
REMARK    1  A    between atoms: C_2  and  C_3
REMARK    2  A    between atoms: C_5  and  S_6
REMARK    3  A    between atoms: S_6  and  N_9
REMARK    4  A    between atoms: C_18  and  O_19
REMARK    5  A    between atoms: O_19  and  C_20
REMARK    6  A    between atoms: C_25  and  C_26
REMARK    7  A    between atoms: C_26  and  N_27
REMARK                            x       y       z     vdW  Elec       q    Type
REMARK                         _______ _______ _______ _____ _____    ______ ____
ROOT
ATOM      1  C   UNL     1       1.337   8.864  20.353  0.00  0.00    +0.000 A 
ATOM      2  C   UNL     1       1.971   7.611  20.334  0.00  0.00    +0.000 A 
ATOM      3  C   UNL     1       2.376   7.043  19.126  0.00  0.00    +0.000 A 
ATOM      4  C   UNL     1       2.149   7.712  17.922  0.00  0.00    +0.000 A 
ATOM      5  C   UNL     1       1.568   8.983  17.942  0.00  0.00    +0.000 A 
ATOM      6  C   UNL     1       1.189   9.586  19.153  0.00  0.00    +0.000 A 
ENDROOT
BRANCH   3   7
ATOM      7  S   UNL     1       3.020   5.387  19.109  0.00  0.00    +0.000 S 
ATOM      8  O   UNL     1       2.726   4.801  20.402  0.00  0.00    +0.000 OA
ATOM      9  O   UNL     1       2.572   4.766  17.884  0.00  0.00    +0.000 OA
BRANCH   7  10
ATOM     10  N   UNL     1       4.693   5.667  19.095  0.00  0.00    +0.000 N 
ATOM     11  C   UNL     1       5.246   5.375  17.828  0.00  0.00    +0.000 A 
ATOM     12  N   UNL     1       5.862   4.232  17.655  0.00  0.00    +0.000 NA
ATOM     13  C   UNL     1       6.266   4.154  16.331  0.00  0.00    +0.000 A 
ATOM     14  C   UNL     1       6.040   5.287  15.591  0.00  0.00    +0.000 A 
ATOM     15  F   UNL     1       6.377   5.430  14.338  0.00  0.00    +0.000 F 
ATOM     16  S   UNL     1       5.266   6.478  16.520  0.00  0.00    +0.000 S 
ATOM     17  H   UNL     1       5.085   5.009  19.772  0.00  0.00    +0.000 HD
ENDBRANCH   7  10
ENDBRANCH   3   7
BRANCH   1  19
ATOM     18  N   UNL     1       0.475   9.732  22.643  0.00  0.00    +0.000 NA
ATOM     19  C   UNL     1       0.844   9.302  21.628  0.00  0.00    +0.000 C 
ENDBRANCH   1  19
BRANCH   6  20
ATOM     20  O   UNL     1       0.618  10.835  18.984  0.00  0.00    +0.000 OA
BRANCH  20  21
ATOM     21  C   UNL     1      -0.748  10.983  18.940  0.00  0.00    +0.000 A 
ATOM     22  C   UNL     1      -1.595  10.165  18.197  0.00  0.00    +0.000 A 
ATOM     23  C   UNL     1      -2.925  10.543  18.020  0.00  0.00    +0.000 A 
ATOM     24  C   UNL     1      -3.441  11.654  18.693  0.00  0.00    +0.000 A 
ATOM     25 CL   UNL     1      -5.063  12.118  18.330  0.00  0.00    +0.000 Cl
ATOM     26  C   UNL     1      -2.653  12.354  19.617  0.00  0.00    +0.000 A 
ATOM     27  C   UNL     1      -1.285  12.025  19.703  0.00  0.00    +0.000 A 
BRANCH  26  28
ATOM     28  C   UNL     1      -3.217  13.430  20.514  0.00  0.00    +0.000 C 
BRANCH  28  29
ATOM     29  N   UNL     1      -3.531  12.938  21.840  0.00  0.00    +0.000 N 
ATOM     30  C   UNL     1      -2.697  12.807  22.910  0.00  0.00    +0.000 A 
ATOM     31  C   UNL     1      -3.518  12.329  23.903  0.00  0.00    +0.000 A 
ATOM     32  N   UNL     1      -4.798  12.243  23.436  0.00  0.00    +0.000 NA
ATOM     33  N   UNL     1      -4.801  12.641  22.171  0.00  0.00    +0.000 NA
ENDBRANCH  28  29
ENDBRANCH  26  28
ENDBRANCH  20  21
ENDBRANCH   6  20
TORSDOF 7
ENDMDL
MODEL 2
REMARK VINA RESULT:      -8.2      4.891      9.938
REMARK  Name = 
REMARK  7 active torsions:
REMARK  status: ('A' for Active; 'I' for Inactive)
REMARK    1  A    between atoms: C_2  and  C_3
REMARK    2  A    between atoms: C_5  and  S_6
REMARK    3  A    between atoms: S_6  and  N_9
REMARK    4  A    between atoms: C_18  and  O_19
REMARK    5  A    between atoms: O_19  and  C_20
REMARK    6  A    between atoms: C_25  and  C_26
REMARK    7  A    between atoms: C_26  and  N_27
REMARK                            x       y       z     vdW  Elec       q    Type
REMARK                         _______ _______ _______ _____ _____    ______ ____
ROOT
ATOM      1  C   UNL     1       0.594   9.499  20.671  0.00  0.00    +0.000 A 
ATOM      2  C   UNL     1      -0.491  10.299  20.277  0.00  0.00    +0.000 A 
ATOM      3  C   UNL     1      -0.779  10.480  18.924  0.00  0.00    +0.000 A 
ATOM      4  C   UNL     1       0.013   9.874  17.947  0.00  0.00    +0.000 A 
ATOM      5  C   UNL     1       1.060   9.034  18.337  0.00  0.00    +0.000 A 
ATOM      6  C   UNL     1       1.340   8.810  19.695  0.00  0.00    +0.000 A 
ENDROOT
BRANCH   3   7
ATOM      7  S   UNL     1      -2.049  11.628  18.445  0.00  0.00    +0.000 S 
ATOM      8  O   UNL     1      -2.786  11.974  19.644  0.00  0.00    +0.000 OA
ATOM      9  O   UNL     1      -1.422  12.643  17.629  0.00  0.00    +0.000 OA
BRANCH   7  10
ATOM     10  N   UNL     1      -3.082  10.640  17.533  0.00  0.00    +0.000 N 
ATOM     11  C   UNL     1      -4.436  10.963  17.774  0.00  0.00    +0.000 A 
ATOM     12  N   UNL     1      -5.129  10.211  18.593  0.00  0.00    +0.000 NA
ATOM     13  C   UNL     1      -6.400  10.753  18.708  0.00  0.00    +0.000 A 
ATOM     14  C   UNL     1      -6.648  11.823  17.884  0.00  0.00    +0.000 A 
ATOM     15  F   UNL     1      -7.790  12.452  17.815  0.00  0.00    +0.000 F 
ATOM     16  S   UNL     1      -5.275  12.217  16.968  0.00  0.00    +0.000 S 
ATOM     17  H   UNL     1      -2.917   9.689  17.870  0.00  0.00    +0.000 HD
ENDBRANCH   7  10
ENDBRANCH   3   7
BRANCH   1  19
ATOM     18  N   UNL     1       1.188   9.509  23.198  0.00  0.00    +0.000 NA
ATOM     19  C   UNL     1       0.885   9.480  22.077  0.00  0.00    +0.000 C 
ENDBRANCH   1  19
BRANCH   6  20
ATOM     20  O   UNL     1       2.417   7.966  19.897  0.00  0.00    +0.000 OA
BRANCH  20  21
ATOM     21  C   UNL     1       2.273   6.604  19.784  0.00  0.00    +0.000 A 
ATOM     22  C   UNL     1       1.426   5.842  20.584  0.00  0.00    +0.000 A 
ATOM     23  C   UNL     1       1.533   4.453  20.562  0.00  0.00    +0.000 A 
ATOM     24  C   UNL     1       2.381   3.823  19.648  0.00  0.00    +0.000 A 
ATOM     25 CL   UNL     1       2.538   2.108  19.763  0.00  0.00    +0.000 Cl
ATOM     26  C   UNL     1       3.073   4.573  18.687  0.00  0.00    +0.000 A 
ATOM     27  C   UNL     1       3.036   5.978  18.793  0.00  0.00    +0.000 A 
BRANCH  26  28
ATOM     28  C   UNL     1       3.840   3.932  17.555  0.00  0.00    +0.000 C 
BRANCH  28  29
ATOM     29  N   UNL     1       5.259   4.214  17.617  0.00  0.00    +0.000 N 
ATOM     30  C   UNL     1       6.073   4.669  16.622  0.00  0.00    +0.000 A 
ATOM     31  C   UNL     1       7.298   4.785  17.234  0.00  0.00    +0.000 A 
ATOM     32  N   UNL     1       7.181   4.462  18.556  0.00  0.00    +0.000 NA
ATOM     33  N   UNL     1       5.917   4.132  18.788  0.00  0.00    +0.000 NA
ENDBRANCH  28  29
ENDBRANCH  26  28
ENDBRANCH  20  21
ENDBRANCH   6  20
TORSDOF 7
ENDMDL
MODEL 3
REMARK VINA RESULT:      -8.2      1.249      1.304
REMARK  Name = 
REMARK  7 active torsions:
REMARK  status: ('A' for Active; 'I' for Inactive)
REMARK    1  A    between atoms: C_2  and  C_3
REMARK    2  A    between atoms: C_5  and  S_6
REMARK    3  A    between atoms: S_6  and  N_9
REMARK    4  A    between atoms: C_18  and  O_19
REMARK    5  A    between atoms: O_19  and  C_20
REMARK    6  A    between atoms: C_25  and  C_26
REMARK    7  A    between atoms: C_26  and  N_27
REMARK                            x       y       z     vdW  Elec       q    Type
REMARK                         _______ _______ _______ _____ _____    ______ ____
ROOT
ATOM      1  C   UNL     1       0.926   8.911  20.454  0.00  0.00    +0.000 A 
ATOM      2  C   UNL     1       1.616   7.696  20.314  0.00  0.00    +0.000 A 
ATOM      3  C   UNL     1       2.238   7.373  19.108  0.00  0.00    +0.000 A 
ATOM      4  C   UNL     1       2.176   8.252  18.025  0.00  0.00    +0.000 A 
ATOM      5  C   UNL     1       1.538   9.485  18.178  0.00  0.00    +0.000 A 
ATOM      6  C   UNL     1       0.939   9.843  19.398  0.00  0.00    +0.000 A 
ENDROOT
BRANCH   3   7
ATOM      7  S   UNL     1       2.958   5.761  18.898  0.00  0.00    +0.000 S 
ATOM      8  O   UNL     1       4.061   5.661  19.834  0.00  0.00    +0.000 OA
ATOM      9  O   UNL     1       1.875   4.805  18.908  0.00  0.00    +0.000 OA
BRANCH   7  10
ATOM     10  N   UNL     1       3.663   5.895  17.362  0.00  0.00    +0.000 N 
ATOM     11  C   UNL     1       5.054   5.652  17.419  0.00  0.00    +0.000 A 
ATOM     12  N   UNL     1       5.875   6.673  17.422  0.00  0.00    +0.000 NA
ATOM     13  C   UNL     1       7.168   6.188  17.535  0.00  0.00    +0.000 A 
ATOM     14  C   UNL     1       7.278   4.820  17.498  0.00  0.00    +0.000 A 
ATOM     15  F   UNL     1       8.407   4.168  17.555  0.00  0.00    +0.000 F 
ATOM     16  S   UNL     1       5.751   4.091  17.366  0.00  0.00    +0.000 S 
ATOM     17  H   UNL     1       3.522   6.868  17.081  0.00  0.00    +0.000 HD
ENDBRANCH   7  10
ENDBRANCH   3   7
BRANCH   1  19
ATOM     18  N   UNL     1      -0.295   9.218  22.724  0.00  0.00    +0.000 NA
ATOM     19  C   UNL     1       0.213   9.093  21.686  0.00  0.00    +0.000 C 
ENDBRANCH   1  19
BRANCH   6  20
ATOM     20  O   UNL     1       0.341  11.090  19.366  0.00  0.00    +0.000 OA
BRANCH  20  21
ATOM     21  C   UNL     1      -1.020  11.214  19.225  0.00  0.00    +0.000 A 
ATOM     22  C   UNL     1      -1.789  10.425  18.374  0.00  0.00    +0.000 A 
ATOM     23  C   UNL     1      -3.110  10.787  18.116  0.00  0.00    +0.000 A 
ATOM     24  C   UNL     1      -3.701  11.847  18.809  0.00  0.00    +0.000 A 
ATOM     25 CL   UNL     1      -5.302  12.300  18.349  0.00  0.00    +0.000 Cl
ATOM     26  C   UNL     1      -3.003  12.507  19.829  0.00  0.00    +0.000 A 
ATOM     27  C   UNL     1      -1.638  12.200  20.002  0.00  0.00    +0.000 A 
BRANCH  26  28
ATOM     28  C   UNL     1      -3.658  13.518  20.740  0.00  0.00    +0.000 C 
BRANCH  28  29
ATOM     29  N   UNL     1      -3.892  12.996  22.071  0.00  0.00    +0.000 N 
ATOM     30  C   UNL     1      -3.005  12.877  23.098  0.00  0.00    +0.000 A 
ATOM     31  C   UNL     1      -3.761  12.357  24.120  0.00  0.00    +0.000 A 
ATOM     32  N   UNL     1      -5.058  12.234  23.713  0.00  0.00    +0.000 NA
ATOM     33  N   UNL     1      -5.135  12.651  22.456  0.00  0.00    +0.000 NA
ENDBRANCH  28  29
ENDBRANCH  26  28
ENDBRANCH  20  21
ENDBRANCH   6  20
TORSDOF 7
ENDMDL
MODEL 4
REMARK VINA RESULT:      -8.2      4.253      9.188
REMARK  Name = 
REMARK  7 active torsions:
REMARK  status: ('A' for Active; 'I' for Inactive)
REMARK    1  A    between atoms: C_2  and  C_3
REMARK    2  A    between atoms: C_5  and  S_6
REMARK    3  A    between atoms: S_6  and  N_9
REMARK    4  A    between atoms: C_18  and  O_19
REMARK    5  A    between atoms: O_19  and  C_20
REMARK    6  A    between atoms: C_25  and  C_26
REMARK    7  A    between atoms: C_26  and  N_27
REMARK                            x       y       z     vdW  Elec       q    Type
REMARK                         _______ _______ _______ _____ _____    ______ ____
ROOT
ATOM      1  C   UNL     1       0.545   9.546  21.127  0.00  0.00    +0.000 A 
ATOM      2  C   UNL     1      -0.463  10.425  20.698  0.00  0.00    +0.000 A 
ATOM      3  C   UNL     1      -0.646  10.680  19.339  0.00  0.00    +0.000 A 
ATOM      4  C   UNL     1       0.177  10.069  18.390  0.00  0.00    +0.000 A 
ATOM      5  C   UNL     1       1.144   9.152  18.810  0.00  0.00    +0.000 A 
ATOM      6  C   UNL     1       1.316   8.854  20.173  0.00  0.00    +0.000 A 
ENDROOT
BRANCH   3   7
ATOM      7  S   UNL     1      -1.811  11.922  18.829  0.00  0.00    +0.000 S 
ATOM      8  O   UNL     1      -2.162  12.687  20.009  0.00  0.00    +0.000 OA
ATOM      9  O   UNL     1      -1.267  12.562  17.653  0.00  0.00    +0.000 OA
BRANCH   7  10
ATOM     10  N   UNL     1      -3.175  10.985  18.460  0.00  0.00    +0.000 N 
ATOM     11  C   UNL     1      -3.313  10.818  17.063  0.00  0.00    +0.000 A 
ATOM     12  N   UNL     1      -4.175  11.566  16.420  0.00  0.00    +0.000 NA
ATOM     13  C   UNL     1      -4.092  11.260  15.070  0.00  0.00    +0.000 A 
ATOM     14  C   UNL     1      -3.255  10.215  14.766  0.00  0.00    +0.000 A 
ATOM     15  F   UNL     1      -3.064   9.749  13.562  0.00  0.00    +0.000 F 
ATOM     16  S   UNL     1      -2.504   9.610  16.162  0.00  0.00    +0.000 S 
ATOM     17  H   UNL     1      -3.976  11.524  18.797  0.00  0.00    +0.000 HD
ENDBRANCH   7  10
ENDBRANCH   3   7
BRANCH   1  19
ATOM     18  N   UNL     1       0.807   9.384  23.705  0.00  0.00    +0.000 NA
ATOM     19  C   UNL     1       0.735   9.450  22.546  0.00  0.00    +0.000 C 
ENDBRANCH   1  19
BRANCH   6  20
ATOM     20  O   UNL     1       2.326   7.939  20.407  0.00  0.00    +0.000 OA
BRANCH  20  21
ATOM     21  C   UNL     1       2.178   6.622  20.046  0.00  0.00    +0.000 A 
ATOM     22  C   UNL     1       1.214   5.772  20.580  0.00  0.00    +0.000 A 
ATOM     23  C   UNL     1       1.302   4.402  20.337  0.00  0.00    +0.000 A 
ATOM     24  C   UNL     1       2.261   3.900  19.454  0.00  0.00    +0.000 A 
ATOM     25 CL   UNL     1       2.373   2.185  19.296  0.00  0.00    +0.000 Cl
ATOM     26  C   UNL     1       3.094   4.772  18.738  0.00  0.00    +0.000 A 
ATOM     27  C   UNL     1       3.064   6.140  19.076  0.00  0.00    +0.000 A 
BRANCH  26  28
ATOM     28  C   UNL     1       4.004   4.299  17.630  0.00  0.00    +0.000 C 
BRANCH  28  29
ATOM     29  N   UNL     1       5.378   4.710  17.826  0.00  0.00    +0.000 N 
ATOM     30  C   UNL     1       6.095   5.624  17.114  0.00  0.00    +0.000 A 
ATOM     31  C   UNL     1       7.316   5.640  17.744  0.00  0.00    +0.000 A 
ATOM     32  N   UNL     1       7.285   4.804  18.822  0.00  0.00    +0.000 NA
ATOM     33  N   UNL     1       6.081   4.251  18.879  0.00  0.00    +0.000 NA
ENDBRANCH  28  29
ENDBRANCH  26  28
ENDBRANCH  20  21
ENDBRANCH   6  20
TORSDOF 7
ENDMDL
MODEL 5
REMARK VINA RESULT:      -8.1      1.002      1.112
REMARK  Name = 
REMARK  7 active torsions:
REMARK  status: ('A' for Active; 'I' for Inactive)
REMARK    1  A    between atoms: C_2  and  C_3
REMARK    2  A    between atoms: C_5  and  S_6
REMARK    3  A    between atoms: S_6  and  N_9
REMARK    4  A    between atoms: C_18  and  O_19
REMARK    5  A    between atoms: O_19  and  C_20
REMARK    6  A    between atoms: C_25  and  C_26
REMARK    7  A    between atoms: C_26  and  N_27
REMARK                            x       y       z     vdW  Elec       q    Type
REMARK                         _______ _______ _______ _____ _____    ______ ____
ROOT
ATOM      1  C   UNL     1       1.067   9.134  21.007  0.00  0.00    +0.000 A 
ATOM      2  C   UNL     1       1.601   7.837  20.942  0.00  0.00    +0.000 A 
ATOM      3  C   UNL     1       2.017   7.305  19.721  0.00  0.00    +0.000 A 
ATOM      4  C   UNL     1       1.899   8.055  18.549  0.00  0.00    +0.000 A 
ATOM      5  C   UNL     1       1.419   9.365  18.618  0.00  0.00    +0.000 A 
ATOM      6  C   UNL     1       1.032   9.930  19.845  0.00  0.00    +0.000 A 
ENDROOT
BRANCH   3   7
ATOM      7  S   UNL     1       2.530   5.605  19.635  0.00  0.00    +0.000 S 
ATOM      8  O   UNL     1       2.234   5.005  20.921  0.00  0.00    +0.000 OA
ATOM      9  O   UNL     1       1.995   5.059  18.410  0.00  0.00    +0.000 OA
BRANCH   7  10
ATOM     10  N   UNL     1       4.218   5.757  19.571  0.00  0.00    +0.000 N 
ATOM     11  C   UNL     1       4.704   5.468  18.276  0.00  0.00    +0.000 A 
ATOM     12  N   UNL     1       5.223   4.288  18.045  0.00  0.00    +0.000 NA
ATOM     13  C   UNL     1       5.576   4.225  16.706  0.00  0.00    +0.000 A 
ATOM     14  C   UNL     1       5.415   5.397  16.010  0.00  0.00    +0.000 A 
ATOM     15  F   UNL     1       5.720   5.556  14.751  0.00  0.00    +0.000 F 
ATOM     16  S   UNL     1       4.767   6.611  17.004  0.00  0.00    +0.000 S 
ATOM     17  H   UNL     1       4.580   5.049  20.212  0.00  0.00    +0.000 HD
ENDBRANCH   7  10
ENDBRANCH   3   7
BRANCH   1  19
ATOM     18  N   UNL     1       0.126   9.946  23.286  0.00  0.00    +0.000 NA
ATOM     19  C   UNL     1       0.551   9.540  22.283  0.00  0.00    +0.000 C 
ENDBRANCH   1  19
BRANCH   6  20
ATOM     20  O   UNL     1       0.568  11.228  19.725  0.00  0.00    +0.000 OA
BRANCH  20  21
ATOM     21  C   UNL     1      -0.777  11.501  19.770  0.00  0.00    +0.000 A 
ATOM     22  C   UNL     1      -1.727  10.869  18.972  0.00  0.00    +0.000 A 
ATOM     23  C   UNL     1      -3.021  11.383  18.914  0.00  0.00    +0.000 A 
ATOM     24  C   UNL     1      -3.402  12.434  19.751  0.00  0.00    +0.000 A 
ATOM     25 CL   UNL     1      -4.987  13.085  19.536  0.00  0.00    +0.000 Cl
ATOM     26  C   UNL     1      -2.517  12.932  20.717  0.00  0.00    +0.000 A 
ATOM     27  C   UNL     1      -1.184  12.474  20.689  0.00  0.00    +0.000 A 
BRANCH  26  28
ATOM     28  C   UNL     1      -2.941  13.922  21.775  0.00  0.00    +0.000 C 
BRANCH  28  29
ATOM     29  N   UNL     1      -3.819  13.335  22.765  0.00  0.00    +0.000 N 
ATOM     30  C   UNL     1      -5.096  13.694  23.079  0.00  0.00    +0.000 A 
ATOM     31  C   UNL     1      -5.456  12.793  24.052  0.00  0.00    +0.000 A 
ATOM     32  N   UNL     1      -4.438  11.906  24.252  0.00  0.00    +0.000 NA
ATOM     33  N   UNL     1      -3.442  12.233  23.440  0.00  0.00    +0.000 NA
ENDBRANCH  28  29
ENDBRANCH  26  28
ENDBRANCH  20  21
ENDBRANCH   6  20
TORSDOF 7
ENDMDL
MODEL 6
REMARK VINA RESULT:      -8.1      4.319      9.298
REMARK  Name = 
REMARK  7 active torsions:
REMARK  status: ('A' for Active; 'I' for Inactive)
REMARK    1  A    between atoms: C_2  and  C_3
REMARK    2  A    between atoms: C_5  and  S_6
REMARK    3  A    between atoms: S_6  and  N_9
REMARK    4  A    between atoms: C_18  and  O_19
REMARK    5  A    between atoms: O_19  and  C_20
REMARK    6  A    between atoms: C_25  and  C_26
REMARK    7  A    between atoms: C_26  and  N_27
REMARK                            x       y       z     vdW  Elec       q    Type
REMARK                         _______ _______ _______ _____ _____    ______ ____
ROOT
ATOM      1  C   UNL     1       1.449   8.986  19.017  0.00  0.00    +0.000 A 
ATOM      2  C   UNL     1       0.574  10.052  18.752  0.00  0.00    +0.000 A 
ATOM      3  C   UNL     1      -0.348  10.464  19.714  0.00  0.00    +0.000 A 
ATOM      4  C   UNL     1      -0.416   9.816  20.948  0.00  0.00    +0.000 A 
ATOM      5  C   UNL     1       0.489   8.791  21.236  0.00  0.00    +0.000 A 
ATOM      6  C   UNL     1       1.450   8.389  20.293  0.00  0.00    +0.000 A 
ENDROOT
BRANCH   3   7
ATOM      7  S   UNL     1      -1.556  11.700  19.296  0.00  0.00    +0.000 S 
ATOM      8  O   UNL     1      -1.915  12.378  20.526  0.00  0.00    +0.000 OA
ATOM      9  O   UNL     1      -1.048  12.427  18.157  0.00  0.00    +0.000 OA
BRANCH   7  10
ATOM     10  N   UNL     1      -2.897  10.746  18.884  0.00  0.00    +0.000 N 
ATOM     11  C   UNL     1      -3.085  10.712  17.484  0.00  0.00    +0.000 A 
ATOM     12  N   UNL     1      -4.001  11.483  16.951  0.00  0.00    +0.000 NA
ATOM     13  C   UNL     1      -3.960  11.314  15.575  0.00  0.00    +0.000 A 
ATOM     14  C   UNL     1      -3.096  10.342  15.138  0.00  0.00    +0.000 A 
ATOM     15  F   UNL     1      -2.936  10.005  13.886  0.00  0.00    +0.000 F 
ATOM     16  S   UNL     1      -2.266   9.634  16.438  0.00  0.00    +0.000 S 
ATOM     17  H   UNL     1      -3.704  11.214  19.303  0.00  0.00    +0.000 HD
ENDBRANCH   7  10
ENDBRANCH   3   7
BRANCH   1  19
ATOM     18  N   UNL     1       2.999   8.231  17.076  0.00  0.00    +0.000 NA
ATOM     19  C   UNL     1       2.269   8.555  17.921  0.00  0.00    +0.000 C 
ENDBRANCH   1  19
BRANCH   6  20
ATOM     20  O   UNL     1       2.251   7.353  20.740  0.00  0.00    +0.000 OA
BRANCH  20  21
ATOM     21  C   UNL     1       2.142   6.096  20.196  0.00  0.00    +0.000 A 
ATOM     22  C   UNL     1       1.084   5.228  20.449  0.00  0.00    +0.000 A 
ATOM     23  C   UNL     1       1.185   3.895  20.054  0.00  0.00    +0.000 A 
ATOM     24  C   UNL     1       2.273   3.464  19.291  0.00  0.00    +0.000 A 
ATOM     25 CL   UNL     1       2.378   1.777  18.940  0.00  0.00    +0.000 Cl
ATOM     26  C   UNL     1       3.234   4.381  18.842  0.00  0.00    +0.000 A 
ATOM     27  C   UNL     1       3.173   5.698  19.338  0.00  0.00    +0.000 A 
BRANCH  26  28
ATOM     28  C   UNL     1       4.313   4.008  17.853  0.00  0.00    +0.000 C 
BRANCH  28  29
ATOM     29  N   UNL     1       5.581   4.641  18.149  0.00  0.00    +0.000 N 
ATOM     30  C   UNL     1       6.253   5.570  17.412  0.00  0.00    +0.000 A 
ATOM     31  C   UNL     1       7.367   5.839  18.168  0.00  0.00    +0.000 A 
ATOM     32  N   UNL     1       7.311   5.132  19.334  0.00  0.00    +0.000 NA
ATOM     33  N   UNL     1       6.196   4.412  19.325  0.00  0.00    +0.000 NA
ENDBRANCH  28  29
ENDBRANCH  26  28
ENDBRANCH  20  21
ENDBRANCH   6  20
TORSDOF 7
ENDMDL
MODEL 7
REMARK VINA RESULT:      -8.0      2.653      3.166
REMARK  Name = 
REMARK  7 active torsions:
REMARK  status: ('A' for Active; 'I' for Inactive)
REMARK    1  A    between atoms: C_2  and  C_3
REMARK    2  A    between atoms: C_5  and  S_6
REMARK    3  A    between atoms: S_6  and  N_9
REMARK    4  A    between atoms: C_18  and  O_19
REMARK    5  A    between atoms: O_19  and  C_20
REMARK    6  A    between atoms: C_25  and  C_26
REMARK    7  A    between atoms: C_26  and  N_27
REMARK                            x       y       z     vdW  Elec       q    Type
REMARK                         _______ _______ _______ _____ _____    ______ ____
ROOT
ATOM      1  C   UNL     1       1.095   8.852  20.069  0.00  0.00    +0.000 A 
ATOM      2  C   UNL     1       1.934   7.739  19.891  0.00  0.00    +0.000 A 
ATOM      3  C   UNL     1       2.602   7.546  18.682  0.00  0.00    +0.000 A 
ATOM      4  C   UNL     1       2.439   8.453  17.633  0.00  0.00    +0.000 A 
ATOM      5  C   UNL     1       1.649   9.589  17.826  0.00  0.00    +0.000 A 
ATOM      6  C   UNL     1       0.998   9.820  19.050  0.00  0.00    +0.000 A 
ENDROOT
BRANCH   3   7
ATOM      7  S   UNL     1       3.521   6.047  18.419  0.00  0.00    +0.000 S 
ATOM      8  O   UNL     1       4.292   6.228  17.204  0.00  0.00    +0.000 OA
ATOM      9  O   UNL     1       4.158   5.711  19.671  0.00  0.00    +0.000 OA
BRANCH   7  10
ATOM     10  N   UNL     1       2.288   4.951  18.028  0.00  0.00    +0.000 N 
ATOM     11  C   UNL     1       2.075   4.030  19.078  0.00  0.00    +0.000 A 
ATOM     12  N   UNL     1       2.594   2.831  18.983  0.00  0.00    +0.000 NA
ATOM     13  C   UNL     1       2.297   2.137  20.146  0.00  0.00    +0.000 A 
ATOM     14  C   UNL     1       1.471   2.800  21.019  0.00  0.00    +0.000 A 
ATOM     15  F   UNL     1       1.045   2.308  22.151  0.00  0.00    +0.000 F 
ATOM     16  S   UNL     1       1.075   4.342  20.431  0.00  0.00    +0.000 S 
ATOM     17  H   UNL     1       2.631   4.433  17.216  0.00  0.00    +0.000 HD
ENDBRANCH   7  10
ENDBRANCH   3   7
BRANCH   1  19
ATOM     18  N   UNL     1      -0.268   8.846  22.278  0.00  0.00    +0.000 NA
ATOM     19  C   UNL     1       0.354   8.892  21.298  0.00  0.00    +0.000 C 
ENDBRANCH   1  19
BRANCH   6  20
ATOM     20  O   UNL     1       0.249  10.982  19.058  0.00  0.00    +0.000 OA
BRANCH  20  21
ATOM     21  C   UNL     1      -1.081  10.964  18.712  0.00  0.00    +0.000 A 
ATOM     22  C   UNL     1      -1.603  10.200  17.672  0.00  0.00    +0.000 A 
ATOM     23  C   UNL     1      -2.908  10.435  17.241  0.00  0.00    +0.000 A 
ATOM     24  C   UNL     1      -3.731  11.326  17.934  0.00  0.00    +0.000 A 
ATOM     25 CL   UNL     1      -5.293  11.643  17.269  0.00  0.00    +0.000 Cl
ATOM     26  C   UNL     1      -3.286  11.934  19.116  0.00  0.00    +0.000 A 
ATOM     27  C   UNL     1      -1.934  11.768  19.475  0.00  0.00    +0.000 A 
BRANCH  26  28
ATOM     28  C   UNL     1      -4.199  12.743  20.007  0.00  0.00    +0.000 C 
BRANCH  28  29
ATOM     29  N   UNL     1      -3.524  13.239  21.188  0.00  0.00    +0.000 N 
ATOM     30  C   UNL     1      -3.373  12.623  22.395  0.00  0.00    +0.000 A 
ATOM     31  C   UNL     1      -2.636  13.521  23.127  0.00  0.00    +0.000 A 
ATOM     32  N   UNL     1      -2.321  14.597  22.348  0.00  0.00    +0.000 NA
ATOM     33  N   UNL     1      -2.854  14.406  21.148  0.00  0.00    +0.000 NA
ENDBRANCH  28  29
ENDBRANCH  26  28
ENDBRANCH  20  21
ENDBRANCH   6  20
TORSDOF 7
ENDMDL
MODEL 8
REMARK VINA RESULT:      -7.9      2.448      2.873
REMARK  Name = 
REMARK  7 active torsions:
REMARK  status: ('A' for Active; 'I' for Inactive)
REMARK    1  A    between atoms: C_2  and  C_3
REMARK    2  A    between atoms: C_5  and  S_6
REMARK    3  A    between atoms: S_6  and  N_9
REMARK    4  A    between atoms: C_18  and  O_19
REMARK    5  A    between atoms: O_19  and  C_20
REMARK    6  A    between atoms: C_25  and  C_26
REMARK    7  A    between atoms: C_26  and  N_27
REMARK                            x       y       z     vdW  Elec       q    Type
REMARK                         _______ _______ _______ _____ _____    ______ ____
ROOT
ATOM      1  C   UNL     1       0.804   9.229  20.389  0.00  0.00    +0.000 A 
ATOM      2  C   UNL     1       1.626   8.130  20.089  0.00  0.00    +0.000 A 
ATOM      3  C   UNL     1       2.254   8.037  18.847  0.00  0.00    +0.000 A 
ATOM      4  C   UNL     1       2.067   9.032  17.886  0.00  0.00    +0.000 A 
ATOM      5  C   UNL     1       1.295  10.153  18.201  0.00  0.00    +0.000 A 
ATOM      6  C   UNL     1       0.686  10.282  19.461  0.00  0.00    +0.000 A 
ENDROOT
BRANCH   3   7
ATOM      7  S   UNL     1       3.149   6.559  18.427  0.00  0.00    +0.000 S 
ATOM      8  O   UNL     1       2.235   5.700  17.700  0.00  0.00    +0.000 OA
ATOM      9  O   UNL     1       4.409   6.971  17.854  0.00  0.00    +0.000 OA
BRANCH   7  10
ATOM     10  N   UNL     1       3.356   5.837  19.947  0.00  0.00    +0.000 N 
ATOM     11  C   UNL     1       2.670   4.603  20.021  0.00  0.00    +0.000 A 
ATOM     12  N   UNL     1       1.509   4.560  20.626  0.00  0.00    +0.000 NA
ATOM     13  C   UNL     1       1.015   3.270  20.523  0.00  0.00    +0.000 A 
ATOM     14  C   UNL     1       1.872   2.367  19.945  0.00  0.00    +0.000 A 
ATOM     15  F   UNL     1       1.612   1.098  19.786  0.00  0.00    +0.000 F 
ATOM     16  S   UNL     1       3.316   3.120  19.466  0.00  0.00    +0.000 S 
ATOM     17  H   UNL     1       2.925   6.480  20.616  0.00  0.00    +0.000 HD
ENDBRANCH   7  10
ENDBRANCH   3   7
BRANCH   1  19
ATOM     18  N   UNL     1      -0.391   9.104  22.690  0.00  0.00    +0.000 NA
ATOM     19  C   UNL     1       0.103   9.169  21.640  0.00  0.00    +0.000 C 
ENDBRANCH   1  19
BRANCH   6  20
ATOM     20  O   UNL     1      -0.051  11.445  19.593  0.00  0.00    +0.000 OA
BRANCH  20  21
ATOM     21  C   UNL     1      -1.401  11.455  19.336  0.00  0.00    +0.000 A 
ATOM     22  C   UNL     1      -2.020  10.633  18.398  0.00  0.00    +0.000 A 
ATOM     23  C   UNL     1      -3.341  10.888  18.035  0.00  0.00    +0.000 A 
ATOM     24  C   UNL     1      -4.083  11.866  18.702  0.00  0.00    +0.000 A 
ATOM     25 CL   UNL     1      -5.673  12.194  18.116  0.00  0.00    +0.000 Cl
ATOM     26  C   UNL     1      -3.537  12.547  19.799  0.00  0.00    +0.000 A 
ATOM     27  C   UNL     1      -2.170  12.353  20.083  0.00  0.00    +0.000 A 
BRANCH  26  28
ATOM     28  C   UNL     1      -4.356  13.462  20.677  0.00  0.00    +0.000 C 
BRANCH  28  29
ATOM     29  N   UNL     1      -4.238  13.136  22.083  0.00  0.00    +0.000 N 
ATOM     30  C   UNL     1      -3.311  13.584  22.977  0.00  0.00    +0.000 A 
ATOM     31  C   UNL     1      -3.685  12.986  24.157  0.00  0.00    +0.000 A 
ATOM     32  N   UNL     1      -4.826  12.262  23.961  0.00  0.00    +0.000 NA
ATOM     33  N   UNL     1      -5.172  12.378  22.685  0.00  0.00    +0.000 NA
ENDBRANCH  28  29
ENDBRANCH  26  28
ENDBRANCH  20  21
ENDBRANCH   6  20
TORSDOF 7
ENDMDL
MODEL 9
REMARK VINA RESULT:      -7.7      4.323      9.333
REMARK  Name = 
REMARK  7 active torsions:
REMARK  status: ('A' for Active; 'I' for Inactive)
REMARK    1  A    between atoms: C_2  and  C_3
REMARK    2  A    between atoms: C_5  and  S_6
REMARK    3  A    between atoms: S_6  and  N_9
REMARK    4  A    between atoms: C_18  and  O_19
REMARK    5  A    between atoms: O_19  and  C_20
REMARK    6  A    between atoms: C_25  and  C_26
REMARK    7  A    between atoms: C_26  and  N_27
REMARK                            x       y       z     vdW  Elec       q    Type
REMARK                         _______ _______ _______ _____ _____    ______ ____
ROOT
ATOM      1  C   UNL     1       1.573   8.867  19.114  0.00  0.00    +0.000 A 
ATOM      2  C   UNL     1       0.729   9.952  18.825  0.00  0.00    +0.000 A 
ATOM      3  C   UNL     1      -0.246  10.350  19.740  0.00  0.00    +0.000 A 
ATOM      4  C   UNL     1      -0.399   9.669  20.949  0.00  0.00    +0.000 A 
ATOM      5  C   UNL     1       0.474   8.624  21.263  0.00  0.00    +0.000 A 
ATOM      6  C   UNL     1       1.487   8.235  20.370  0.00  0.00    +0.000 A 
ENDROOT
BRANCH   3   7
ATOM      7  S   UNL     1      -1.411  11.613  19.284  0.00  0.00    +0.000 S 
ATOM      8  O   UNL     1      -1.776  12.316  20.498  0.00  0.00    +0.000 OA
ATOM      9  O   UNL     1      -0.860  12.313  18.147  0.00  0.00    +0.000 OA
BRANCH   7  10
ATOM     10  N   UNL     1      -2.769  10.691  18.855  0.00  0.00    +0.000 N 
ATOM     11  C   UNL     1      -2.945  10.668  17.453  0.00  0.00    +0.000 A 
ATOM     12  N   UNL     1      -3.839  11.462  16.916  0.00  0.00    +0.000 NA
ATOM     13  C   UNL     1      -3.790  11.299  15.540  0.00  0.00    +0.000 A 
ATOM     14  C   UNL     1      -2.944  10.310  15.105  0.00  0.00    +0.000 A 
ATOM     15  F   UNL     1      -2.780   9.976  13.854  0.00  0.00    +0.000 F 
ATOM     16  S   UNL     1      -2.142   9.577  16.409  0.00  0.00    +0.000 S 
ATOM     17  H   UNL     1      -3.569  11.175  19.269  0.00  0.00    +0.000 HD
ENDBRANCH   7  10
ENDBRANCH   3   7
BRANCH   1  19
ATOM     18  N   UNL     1       3.110   8.067  17.181  0.00  0.00    +0.000 NA
ATOM     19  C   UNL     1       2.454   8.456  18.058  0.00  0.00    +0.000 C 
ENDBRANCH   1  19
BRANCH   6  20
ATOM     20  O   UNL     1       2.246   7.177  20.835  0.00  0.00    +0.000 OA
BRANCH  20  21
ATOM     21  C   UNL     1       2.312   5.997  20.134  0.00  0.00    +0.000 A 
ATOM     22  C   UNL     1       1.210   5.193  19.858  0.00  0.00    +0.000 A 
ATOM     23  C   UNL     1       1.410   3.906  19.363  0.00  0.00    +0.000 A 
ATOM     24  C   UNL     1       2.692   3.474  19.014  0.00  0.00    +0.000 A 
ATOM     25 CL   UNL     1       2.867   1.831  18.515  0.00  0.00    +0.000 Cl
ATOM     26  C   UNL     1       3.781   4.354  19.080  0.00  0.00    +0.000 A 
ATOM     27  C   UNL     1       3.579   5.612  19.682  0.00  0.00    +0.000 A 
BRANCH  26  28
ATOM     28  C   UNL     1       5.143   4.004  18.529  0.00  0.00    +0.000 C 
BRANCH  28  29
ATOM     29  N   UNL     1       5.451   4.725  17.311  0.00  0.00    +0.000 N 
ATOM     30  C   UNL     1       4.976   4.498  16.053  0.00  0.00    +0.000 A 
ATOM     31  C   UNL     1       5.568   5.484  15.302  0.00  0.00    +0.000 A 
ATOM     32  N   UNL     1       6.315   6.290  16.111  0.00  0.00    +0.000 NA
ATOM     33  N   UNL     1       6.221   5.829  17.351  0.00  0.00    +0.000 NA
ENDBRANCH  28  29
ENDBRANCH  26  28
ENDBRANCH  20  21
ENDBRANCH   6  20
TORSDOF 7
ENDMDL
