MODEL 1
REMARK VINA RESULT:      -8.4      0.000      0.000
REMARK  Name = 
REMARK  7 active torsions:
REMARK  status: ('A' for Active; 'I' for Inactive)
REMARK    1  A    between atoms: N_1  and  C_2
REMARK    2  A    between atoms: C_2  and  C_3
REMARK    3  A    between atoms: C_3  and  C_4
REMARK    4  A    between atoms: C_4  and  C_5
REMARK    5  A    between atoms: C_5  and  N_6
REMARK    6  A    between atoms: C_8  and  C_9
REMARK    7  A    between atoms: C_11  and  C_12
REMARK                            x       y       z     vdW  Elec       q    Type
REMARK                         _______ _______ _______ _____ _____    ______ ____
ROOT
ATOM      1  N   UNL     1       3.670   6.531  17.766  0.00  0.00    +0.000 N 
ATOM      2  C   UNL     1       3.209   7.730  18.251  0.00  0.00    +0.000 A 
ATOM      3  C   UNL     1       2.264   7.467  19.229  0.00  0.00    +0.000 A 
ATOM      4  C   UNL     1       2.160   6.047  19.327  0.00  0.00    +0.000 A 
ATOM      5  N   UNL     1       1.393   5.292  20.144  0.00  0.00    +0.000 NA
ATOM      6  C   UNL     1       1.560   3.978  20.005  0.00  0.00    +0.000 A 
ATOM      7  N   UNL     1       0.869   3.157  20.873  0.00  0.00    +0.000 N 
ATOM      8  N   UNL     1       2.361   3.370  19.119  0.00  0.00    +0.000 NA
ATOM      9  C   UNL     1       3.117   4.124  18.299  0.00  0.00    +0.000 A 
ATOM     10  C   UNL     1       3.033   5.500  18.399  0.00  0.00    +0.000 A 
ATOM     11  H   UNL     1       0.067   3.607  21.288  0.00  0.00    +0.000 HD
ATOM     12  H   UNL     1       0.794   2.212  20.532  0.00  0.00    +0.000 HD
ENDROOT
BRANCH   3  13
ATOM     13  C   UNL     1       1.615   8.514  19.996  0.00  0.00    +0.000 A 
ATOM     14  C   UNL     1       1.629   9.835  19.529  0.00  0.00    +0.000 A 
ATOM     15  C   UNL     1       0.983  10.866  20.225  0.00  0.00    +0.000 A 
ATOM     16  C   UNL     1       0.311  10.506  21.405  0.00  0.00    +0.000 A 
ATOM     17  N   UNL     1      -0.444  11.232  22.292  0.00  0.00    +0.000 N 
ATOM     18  N   UNL     1      -0.915  10.529  23.332  0.00  0.00    +0.000 NA
ATOM     19  C   UNL     1      -0.461   9.298  23.095  0.00  0.00    +0.000 A 
ATOM     20  C   UNL     1       0.294   9.215  21.905  0.00  0.00    +0.000 A 
ATOM     21  C   UNL     1       0.955   8.202  21.199  0.00  0.00    +0.000 A 
ATOM     22  H   UNL     1      -0.649  12.225  22.236  0.00  0.00    +0.000 HD
BRANCH  15  23
ATOM     23  C   UNL     1       0.974  12.245  19.748  0.00  0.00    +0.000 A 
ATOM     24  C   UNL     1      -0.093  13.109  19.596  0.00  0.00    +0.000 A 
ATOM     25  C   UNL     1       0.294  14.399  19.097  0.00  0.00    +0.000 A 
ATOM     26  C   UNL     1      -0.473  15.548  18.808  0.00  0.00    +0.000 A 
ATOM     27  C   UNL     1       0.155  16.702  18.327  0.00  0.00    +0.000 A 
ATOM     28  C   UNL     1       1.530  16.736  18.139  0.00  0.00    +0.000 A 
ATOM     29  C   UNL     1       2.309  15.620  18.417  0.00  0.00    +0.000 A 
ATOM     30  C   UNL     1       1.669  14.461  18.884  0.00  0.00    +0.000 A 
ATOM     31  S   UNL     1       2.430  12.981  19.234  0.00  0.00    +0.000 S 
ENDBRANCH  15  23
ENDBRANCH   3  13
BRANCH   1  32
ATOM     32  C   UNL     1       4.701   6.420  16.746  0.00  0.00    +0.000 C 
BRANCH  32  33
ATOM     33  C   UNL     1       6.041   6.981  17.219  0.00  0.00    +0.000 C 
BRANCH  33  34
ATOM     34  C   UNL     1       6.950   5.871  17.737  0.00  0.00    +0.000 C 
BRANCH  34  35
ATOM     35  C   UNL     1       6.630   5.543  19.192  0.00  0.00    +0.000 C 
BRANCH  35  36
ATOM     36  N   UNL     1       7.852   5.557  19.982  0.00  0.00    +0.000 NA
ATOM     37  H   UNL     1       8.659   5.565  19.358  0.00  0.00    +0.000 HD
ATOM     38  H   UNL     1       7.924   4.699  20.527  0.00  0.00    +0.000 HD
ENDBRANCH  35  36
ENDBRANCH  34  35
ENDBRANCH  33  34
ENDBRANCH  32  33
ENDBRANCH   1  32
TORSDOF 7
ENDMDL
MODEL 2
REMARK VINA RESULT:      -8.4      0.654      1.101
REMARK  Name = 
REMARK  7 active torsions:
REMARK  status: ('A' for Active; 'I' for Inactive)
REMARK    1  A    between atoms: N_1  and  C_2
REMARK    2  A    between atoms: C_2  and  C_3
REMARK    3  A    between atoms: C_3  and  C_4
REMARK    4  A    between atoms: C_4  and  C_5
REMARK    5  A    between atoms: C_5  and  N_6
REMARK    6  A    between atoms: C_8  and  C_9
REMARK    7  A    between atoms: C_11  and  C_12
REMARK                            x       y       z     vdW  Elec       q    Type
REMARK                         _______ _______ _______ _____ _____    ______ ____
ROOT
ATOM      1  N   UNL     1       3.596   6.455  17.795  0.00  0.00    +0.000 N 
ATOM      2  C   UNL     1       3.137   7.659  18.267  0.00  0.00    +0.000 A 
ATOM      3  C   UNL     1       2.233   7.408  19.288  0.00  0.00    +0.000 A 
ATOM      4  C   UNL     1       2.155   5.990  19.425  0.00  0.00    +0.000 A 
ATOM      5  N   UNL     1       1.430   5.246  20.290  0.00  0.00    +0.000 NA
ATOM      6  C   UNL     1       1.611   3.931  20.177  0.00  0.00    +0.000 A 
ATOM      7  N   UNL     1       0.966   3.123  21.091  0.00  0.00    +0.000 N 
ATOM      8  N   UNL     1       2.386   3.312  19.276  0.00  0.00    +0.000 NA
ATOM      9  C   UNL     1       3.099   4.054  18.410  0.00  0.00    +0.000 A 
ATOM     10  C   UNL     1       3.000   5.432  18.477  0.00  0.00    +0.000 A 
ATOM     11  H   UNL     1       0.173   3.572  21.525  0.00  0.00    +0.000 HD
ATOM     12  H   UNL     1       0.892   2.169  20.777  0.00  0.00    +0.000 HD
ENDROOT
BRANCH   3  13
ATOM     13  C   UNL     1       1.599   8.466  20.052  0.00  0.00    +0.000 A 
ATOM     14  C   UNL     1       1.635   9.786  19.584  0.00  0.00    +0.000 A 
ATOM     15  C   UNL     1       1.003  10.827  20.279  0.00  0.00    +0.000 A 
ATOM     16  C   UNL     1       0.322  10.479  21.457  0.00  0.00    +0.000 A 
ATOM     17  N   UNL     1      -0.424  11.216  22.341  0.00  0.00    +0.000 N 
ATOM     18  N   UNL     1      -0.908  10.520  23.381  0.00  0.00    +0.000 NA
ATOM     19  C   UNL     1      -0.473   9.283  23.146  0.00  0.00    +0.000 A 
ATOM     20  C   UNL     1       0.284   9.187  21.957  0.00  0.00    +0.000 A 
ATOM     21  C   UNL     1       0.931   8.164  21.253  0.00  0.00    +0.000 A 
ATOM     22  H   UNL     1      -0.613  12.212  22.285  0.00  0.00    +0.000 HD
BRANCH  15  23
ATOM     23  C   UNL     1       1.017  12.206  19.801  0.00  0.00    +0.000 A 
ATOM     24  C   UNL     1       2.095  13.009  19.485  0.00  0.00    +0.000 A 
ATOM     25  C   UNL     1       1.711  14.320  19.042  0.00  0.00    +0.000 A 
ATOM     26  C   UNL     1       2.489  15.423  18.628  0.00  0.00    +0.000 A 
ATOM     27  C   UNL     1       1.860  16.609  18.234  0.00  0.00    +0.000 A 
ATOM     28  C   UNL     1       0.476  16.713  18.232  0.00  0.00    +0.000 A 
ATOM     29  C   UNL     1      -0.313  15.642  18.632  0.00  0.00    +0.000 A 
ATOM     30  C   UNL     1       0.324  14.461  19.043  0.00  0.00    +0.000 A 
ATOM     31  S   UNL     1      -0.453  13.060  19.613  0.00  0.00    +0.000 S 
ENDBRANCH  15  23
ENDBRANCH   3  13
BRANCH   1  32
ATOM     32  C   UNL     1       4.589   6.332  16.739  0.00  0.00    +0.000 C 
BRANCH  32  33
ATOM     33  C   UNL     1       5.912   6.997  17.114  0.00  0.00    +0.000 C 
BRANCH  33  34
ATOM     34  C   UNL     1       7.003   5.958  17.349  0.00  0.00    +0.000 C 
BRANCH  34  35
ATOM     35  C   UNL     1       7.616   6.120  18.737  0.00  0.00    +0.000 C 
BRANCH  35  36
ATOM     36  N   UNL     1       6.861   5.341  19.707  0.00  0.00    +0.000 NA
ATOM     37  H   UNL     1       7.226   4.389  19.734  0.00  0.00    +0.000 HD
ATOM     38  H   UNL     1       5.889   5.263  19.408  0.00  0.00    +0.000 HD
ENDBRANCH  35  36
ENDBRANCH  34  35
ENDBRANCH  33  34
ENDBRANCH  32  33
ENDBRANCH   1  32
TORSDOF 7
ENDMDL
MODEL 3
REMARK VINA RESULT:      -8.3      1.057      1.183
REMARK  Name = 
REMARK  7 active torsions:
REMARK  status: ('A' for Active; 'I' for Inactive)
REMARK    1  A    between atoms: N_1  and  C_2
REMARK    2  A    between atoms: C_2  and  C_3
REMARK    3  A    between atoms: C_3  and  C_4
REMARK    4  A    between atoms: C_4  and  C_5
REMARK    5  A    between atoms: C_5  and  N_6
REMARK    6  A    between atoms: C_8  and  C_9
REMARK    7  A    between atoms: C_11  and  C_12
REMARK                            x       y       z     vdW  Elec       q    Type
REMARK                         _______ _______ _______ _____ _____    ______ ____
ROOT
ATOM      1  N   UNL     1       3.582   6.584  17.861  0.00  0.00    +0.000 N 
ATOM      2  C   UNL     1       2.997   7.761  18.256  0.00  0.00    +0.000 A 
ATOM      3  C   UNL     1       2.283   7.521  19.419  0.00  0.00    +0.000 A 
ATOM      4  C   UNL     1       2.453   6.138  19.726  0.00  0.00    +0.000 A 
ATOM      5  N   UNL     1       1.974   5.420  20.765  0.00  0.00    +0.000 NA
ATOM      6  C   UNL     1       2.349   4.142  20.777  0.00  0.00    +0.000 A 
ATOM      7  N   UNL     1       1.964   3.379  21.861  0.00  0.00    +0.000 N 
ATOM      8  N   UNL     1       3.094   3.526  19.848  0.00  0.00    +0.000 NA
ATOM      9  C   UNL     1       3.562   4.241  18.809  0.00  0.00    +0.000 A 
ATOM     10  C   UNL     1       3.250   5.586  18.734  0.00  0.00    +0.000 A 
ATOM     11  H   UNL     1       1.171   3.763  22.352  0.00  0.00    +0.000 HD
ATOM     12  H   UNL     1       2.007   2.391  21.671  0.00  0.00    +0.000 HD
ENDROOT
BRANCH   3  13
ATOM     13  C   UNL     1       1.588   8.569  20.143  0.00  0.00    +0.000 A 
ATOM     14  C   UNL     1       1.602   9.883  19.659  0.00  0.00    +0.000 A 
ATOM     15  C   UNL     1       0.913  10.914  20.314  0.00  0.00    +0.000 A 
ATOM     16  C   UNL     1       0.197  10.560  21.469  0.00  0.00    +0.000 A 
ATOM     17  N   UNL     1      -0.605  11.286  22.313  0.00  0.00    +0.000 N 
ATOM     18  N   UNL     1      -1.109  10.589  23.343  0.00  0.00    +0.000 NA
ATOM     19  C   UNL     1      -0.628   9.363  23.142  0.00  0.00    +0.000 A 
ATOM     20  C   UNL     1       0.177   9.275  21.985  0.00  0.00    +0.000 A 
ATOM     21  C   UNL     1       0.882   8.263  21.321  0.00  0.00    +0.000 A 
ATOM     22  H   UNL     1      -0.821  12.275  22.236  0.00  0.00    +0.000 HD
BRANCH  15  23
ATOM     23  C   UNL     1       0.905  12.286  19.818  0.00  0.00    +0.000 A 
ATOM     24  C   UNL     1      -0.170  13.119  19.572  0.00  0.00    +0.000 A 
ATOM     25  C   UNL     1       0.220  14.413  19.086  0.00  0.00    +0.000 A 
ATOM     26  C   UNL     1      -0.553  15.537  18.723  0.00  0.00    +0.000 A 
ATOM     27  C   UNL     1       0.080  16.702  18.275  0.00  0.00    +0.000 A 
ATOM     28  C   UNL     1       1.464  16.771  18.192  0.00  0.00    +0.000 A 
ATOM     29  C   UNL     1       2.248  15.679  18.545  0.00  0.00    +0.000 A 
ATOM     30  C   UNL     1       1.606  14.509  18.977  0.00  0.00    +0.000 A 
ATOM     31  S   UNL     1       2.376  13.055  19.406  0.00  0.00    +0.000 S 
ENDBRANCH  15  23
ENDBRANCH   3  13
BRANCH   1  32
ATOM     32  C   UNL     1       4.440   6.465  16.692  0.00  0.00    +0.000 C 
BRANCH  32  33
ATOM     33  C   UNL     1       5.862   6.946  16.972  0.00  0.00    +0.000 C 
BRANCH  33  34
ATOM     34  C   UNL     1       6.830   5.771  17.074  0.00  0.00    +0.000 C 
BRANCH  34  35
ATOM     35  C   UNL     1       6.664   4.827  15.887  0.00  0.00    +0.000 C 
BRANCH  35  36
ATOM     36  N   UNL     1       7.468   5.294  14.767  0.00  0.00    +0.000 NA
ATOM     37  H   UNL     1       6.899   5.297  13.921  0.00  0.00    +0.000 HD
ATOM     38  H   UNL     1       8.232   4.642  14.593  0.00  0.00    +0.000 HD
ENDBRANCH  35  36
ENDBRANCH  34  35
ENDBRANCH  33  34
ENDBRANCH  32  33
ENDBRANCH   1  32
TORSDOF 7
ENDMDL
MODEL 4
REMARK VINA RESULT:      -8.3      1.148      1.534
REMARK  Name = 
REMARK  7 active torsions:
REMARK  status: ('A' for Active; 'I' for Inactive)
REMARK    1  A    between atoms: N_1  and  C_2
REMARK    2  A    between atoms: C_2  and  C_3
REMARK    3  A    between atoms: C_3  and  C_4
REMARK    4  A    between atoms: C_4  and  C_5
REMARK    5  A    between atoms: C_5  and  N_6
REMARK    6  A    between atoms: C_8  and  C_9
REMARK    7  A    between atoms: C_11  and  C_12
REMARK                            x       y       z     vdW  Elec       q    Type
REMARK                         _______ _______ _______ _____ _____    ______ ____
ROOT
ATOM      1  N   UNL     1       3.601   6.487  17.759  0.00  0.00    +0.000 N 
ATOM      2  C   UNL     1       3.132   7.688  18.230  0.00  0.00    +0.000 A 
ATOM      3  C   UNL     1       2.244   7.432  19.263  0.00  0.00    +0.000 A 
ATOM      4  C   UNL     1       2.185   6.013  19.409  0.00  0.00    +0.000 A 
ATOM      5  N   UNL     1       1.481   5.266  20.287  0.00  0.00    +0.000 NA
ATOM      6  C   UNL     1       1.677   3.953  20.180  0.00  0.00    +0.000 A 
ATOM      7  N   UNL     1       1.053   3.142  21.106  0.00  0.00    +0.000 N 
ATOM      8  N   UNL     1       2.449   3.338  19.273  0.00  0.00    +0.000 NA
ATOM      9  C   UNL     1       3.142   4.084  18.394  0.00  0.00    +0.000 A 
ATOM     10  C   UNL     1       3.026   5.461  18.455  0.00  0.00    +0.000 A 
ATOM     11  H   UNL     1       0.260   3.583  21.547  0.00  0.00    +0.000 HD
ATOM     12  H   UNL     1       0.987   2.185  20.799  0.00  0.00    +0.000 HD
ENDROOT
BRANCH   3  13
ATOM     13  C   UNL     1       1.606   8.486  20.029  0.00  0.00    +0.000 A 
ATOM     14  C   UNL     1       1.641   9.808  19.566  0.00  0.00    +0.000 A 
ATOM     15  C   UNL     1       1.005  10.846  20.262  0.00  0.00    +0.000 A 
ATOM     16  C   UNL     1       0.322  10.492  21.437  0.00  0.00    +0.000 A 
ATOM     17  N   UNL     1      -0.428  11.226  22.322  0.00  0.00    +0.000 N 
ATOM     18  N   UNL     1      -0.913  10.526  23.358  0.00  0.00    +0.000 NA
ATOM     19  C   UNL     1      -0.474   9.290  23.120  0.00  0.00    +0.000 A 
ATOM     20  C   UNL     1       0.285   9.199  21.933  0.00  0.00    +0.000 A 
ATOM     21  C   UNL     1       0.936   8.180  21.228  0.00  0.00    +0.000 A 
ATOM     22  H   UNL     1      -0.618  12.221  22.268  0.00  0.00    +0.000 HD
BRANCH  15  23
ATOM     23  C   UNL     1       1.018  12.226  19.789  0.00  0.00    +0.000 A 
ATOM     24  C   UNL     1       2.096  13.040  19.499  0.00  0.00    +0.000 A 
ATOM     25  C   UNL     1       1.710  14.348  19.051  0.00  0.00    +0.000 A 
ATOM     26  C   UNL     1       2.488  15.459  18.659  0.00  0.00    +0.000 A 
ATOM     27  C   UNL     1       1.858  16.641  18.253  0.00  0.00    +0.000 A 
ATOM     28  C   UNL     1       0.474  16.733  18.220  0.00  0.00    +0.000 A 
ATOM     29  C   UNL     1      -0.315  15.653  18.599  0.00  0.00    +0.000 A 
ATOM     30  C   UNL     1       0.323  14.477  19.021  0.00  0.00    +0.000 A 
ATOM     31  S   UNL     1      -0.454  13.068  19.569  0.00  0.00    +0.000 S 
ENDBRANCH  15  23
ENDBRANCH   3  13
BRANCH   1  32
ATOM     32  C   UNL     1       4.582   6.370  16.692  0.00  0.00    +0.000 C 
BRANCH  32  33
ATOM     33  C   UNL     1       6.014   6.478  17.213  0.00  0.00    +0.000 C 
BRANCH  33  34
ATOM     34  C   UNL     1       6.732   5.135  17.130  0.00  0.00    +0.000 C 
BRANCH  34  35
ATOM     35  C   UNL     1       6.711   4.596  15.703  0.00  0.00    +0.000 C 
BRANCH  35  36
ATOM     36  N   UNL     1       7.614   5.372  14.867  0.00  0.00    +0.000 NA
ATOM     37  H   UNL     1       7.699   6.315  15.246  0.00  0.00    +0.000 HD
ATOM     38  H   UNL     1       7.218   5.477  13.933  0.00  0.00    +0.000 HD
ENDBRANCH  35  36
ENDBRANCH  34  35
ENDBRANCH  33  34
ENDBRANCH  32  33
ENDBRANCH   1  32
TORSDOF 7
ENDMDL
MODEL 5
REMARK VINA RESULT:      -8.2      2.917      8.579
REMARK  Name = 
REMARK  7 active torsions:
REMARK  status: ('A' for Active; 'I' for Inactive)
REMARK    1  A    between atoms: N_1  and  C_2
REMARK    2  A    between atoms: C_2  and  C_3
REMARK    3  A    between atoms: C_3  and  C_4
REMARK    4  A    between atoms: C_4  and  C_5
REMARK    5  A    between atoms: C_5  and  N_6
REMARK    6  A    between atoms: C_8  and  C_9
REMARK    7  A    between atoms: C_11  and  C_12
REMARK                            x       y       z     vdW  Elec       q    Type
REMARK                         _______ _______ _______ _____ _____    ______ ____
ROOT
ATOM      1  N   UNL     1       0.490  10.466  19.187  0.00  0.00    +0.000 N 
ATOM      2  C   UNL     1       1.116   9.338  18.719  0.00  0.00    +0.000 A 
ATOM      3  C   UNL     1       1.381   8.510  19.799  0.00  0.00    +0.000 A 
ATOM      4  C   UNL     1       0.890   9.181  20.959  0.00  0.00    +0.000 A 
ATOM      5  N   UNL     1       0.891   8.783  22.250  0.00  0.00    +0.000 NA
ATOM      6  C   UNL     1       0.318   9.638  23.095  0.00  0.00    +0.000 A 
ATOM      7  N   UNL     1       0.211   9.249  24.414  0.00  0.00    +0.000 N 
ATOM      8  N   UNL     1      -0.195  10.837  22.783  0.00  0.00    +0.000 NA
ATOM      9  C   UNL     1      -0.187  11.235  21.498  0.00  0.00    +0.000 A 
ATOM     10  C   UNL     1       0.358  10.393  20.546  0.00  0.00    +0.000 A 
ATOM     11  H   UNL     1       0.865   8.524  24.667  0.00  0.00    +0.000 HD
ATOM     12  H   UNL     1       0.060  10.028  25.035  0.00  0.00    +0.000 HD
ENDROOT
BRANCH   3  13
ATOM     13  C   UNL     1       1.985   7.199  19.653  0.00  0.00    +0.000 A 
ATOM     14  C   UNL     1       2.807   6.925  18.552  0.00  0.00    +0.000 A 
ATOM     15  C   UNL     1       3.435   5.681  18.397  0.00  0.00    +0.000 A 
ATOM     16  C   UNL     1       3.211   4.730  19.406  0.00  0.00    +0.000 A 
ATOM     17  N   UNL     1       3.689   3.458  19.595  0.00  0.00    +0.000 N 
ATOM     18  N   UNL     1       3.220   2.841  20.690  0.00  0.00    +0.000 NA
ATOM     19  C   UNL     1       2.425   3.760  21.237  0.00  0.00    +0.000 A 
ATOM     20  C   UNL     1       2.389   4.961  20.497  0.00  0.00    +0.000 A 
ATOM     21  C   UNL     1       1.762   6.208  20.626  0.00  0.00    +0.000 A 
ATOM     22  H   UNL     1       4.327   2.958  18.984  0.00  0.00    +0.000 HD
BRANCH  15  23
ATOM     23  C   UNL     1       4.306   5.382  17.265  0.00  0.00    +0.000 A 
ATOM     24  C   UNL     1       4.127   4.470  16.243  0.00  0.00    +0.000 A 
ATOM     25  C   UNL     1       5.209   4.461  15.299  0.00  0.00    +0.000 A 
ATOM     26  C   UNL     1       5.413   3.696  14.131  0.00  0.00    +0.000 A 
ATOM     27  C   UNL     1       6.571   3.882  13.369  0.00  0.00    +0.000 A 
ATOM     28  C   UNL     1       7.522   4.822  13.742  0.00  0.00    +0.000 A 
ATOM     29  C   UNL     1       7.346   5.591  14.886  0.00  0.00    +0.000 A 
ATOM     30  C   UNL     1       6.189   5.385  15.655  0.00  0.00    +0.000 A 
ATOM     31  S   UNL     1       5.809   6.182  17.108  0.00  0.00    +0.000 S 
ENDBRANCH  15  23
ENDBRANCH   3  13
BRANCH   1  32
ATOM     32  C   UNL     1       0.031  11.546  18.327  0.00  0.00    +0.000 C 
BRANCH  32  33
ATOM     33  C   UNL     1      -1.482  11.511  18.119  0.00  0.00    +0.000 C 
BRANCH  33  34
ATOM     34  C   UNL     1      -1.941  10.133  17.652  0.00  0.00    +0.000 C 
BRANCH  34  35
ATOM     35  C   UNL     1      -2.482  10.197  16.227  0.00  0.00    +0.000 C 
BRANCH  35  36
ATOM     36  N   UNL     1      -2.846  11.566  15.895  0.00  0.00    +0.000 NA
ATOM     37  H   UNL     1      -2.015  12.156  15.936  0.00  0.00    +0.000 HD
ATOM     38  H   UNL     1      -3.489  11.934  16.595  0.00  0.00    +0.000 HD
ENDBRANCH  35  36
ENDBRANCH  34  35
ENDBRANCH  33  34
ENDBRANCH  32  33
ENDBRANCH   1  32
TORSDOF 7
ENDMDL
MODEL 6
REMARK VINA RESULT:      -8.1      3.151      5.159
REMARK  Name = 
REMARK  7 active torsions:
REMARK  status: ('A' for Active; 'I' for Inactive)
REMARK    1  A    between atoms: N_1  and  C_2
REMARK    2  A    between atoms: C_2  and  C_3
REMARK    3  A    between atoms: C_3  and  C_4
REMARK    4  A    between atoms: C_4  and  C_5
REMARK    5  A    between atoms: C_5  and  N_6
REMARK    6  A    between atoms: C_8  and  C_9
REMARK    7  A    between atoms: C_11  and  C_12
REMARK                            x       y       z     vdW  Elec       q    Type
REMARK                         _______ _______ _______ _____ _____    ______ ____
ROOT
ATOM      1  N   UNL     1       2.253   6.004  19.949  0.00  0.00    +0.000 N 
ATOM      2  C   UNL     1       1.648   7.233  20.029  0.00  0.00    +0.000 A 
ATOM      3  C   UNL     1       2.130   8.021  18.995  0.00  0.00    +0.000 A 
ATOM      4  C   UNL     1       3.063   7.219  18.271  0.00  0.00    +0.000 A 
ATOM      5  N   UNL     1       3.787   7.520  17.171  0.00  0.00    +0.000 NA
ATOM      6  C   UNL     1       4.548   6.526  16.717  0.00  0.00    +0.000 A 
ATOM      7  N   UNL     1       5.243   6.745  15.546  0.00  0.00    +0.000 N 
ATOM      8  N   UNL     1       4.684   5.314  17.275  0.00  0.00    +0.000 NA
ATOM      9  C   UNL     1       3.969   5.020  18.376  0.00  0.00    +0.000 A 
ATOM     10  C   UNL     1       3.124   5.983  18.897  0.00  0.00    +0.000 A 
ATOM     11  H   UNL     1       5.372   7.723  15.340  0.00  0.00    +0.000 HD
ATOM     12  H   UNL     1       6.010   6.101  15.427  0.00  0.00    +0.000 HD
ENDROOT
BRANCH   3  13
ATOM     13  C   UNL     1       1.653   9.368  18.747  0.00  0.00    +0.000 A 
ATOM     14  C   UNL     1       0.277   9.629  18.710  0.00  0.00    +0.000 A 
ATOM     15  C   UNL     1      -0.219  10.924  18.508  0.00  0.00    +0.000 A 
ATOM     16  C   UNL     1       0.731  11.948  18.359  0.00  0.00    +0.000 A 
ATOM     17  N   UNL     1       0.604  13.304  18.193  0.00  0.00    +0.000 N 
ATOM     18  N   UNL     1       1.765  13.963  18.063  0.00  0.00    +0.000 NA
ATOM     19  C   UNL     1       2.675  12.995  18.169  0.00  0.00    +0.000 A 
ATOM     20  C   UNL     1       2.097  11.722  18.370  0.00  0.00    +0.000 A 
ATOM     21  C   UNL     1       2.571  10.418  18.563  0.00  0.00    +0.000 A 
ATOM     22  H   UNL     1      -0.266  13.825  18.140  0.00  0.00    +0.000 HD
BRANCH  15  23
ATOM     23  C   UNL     1      -1.648  11.218  18.481  0.00  0.00    +0.000 A 
ATOM     24  C   UNL     1      -2.443  11.781  19.460  0.00  0.00    +0.000 A 
ATOM     25  C   UNL     1      -3.816  11.917  19.063  0.00  0.00    +0.000 A 
ATOM     26  C   UNL     1      -4.933  12.436  19.753  0.00  0.00    +0.000 A 
ATOM     27  C   UNL     1      -6.186  12.459  19.132  0.00  0.00    +0.000 A 
ATOM     28  C   UNL     1      -6.346  11.987  17.836  0.00  0.00    +0.000 A 
ATOM     29  C   UNL     1      -5.263  11.473  17.134  0.00  0.00    +0.000 A 
ATOM     30  C   UNL     1      -4.012  11.437  17.770  0.00  0.00    +0.000 A 
ATOM     31  S   UNL     1      -2.579  10.805  17.107  0.00  0.00    +0.000 S 
ENDBRANCH  15  23
ENDBRANCH   3  13
BRANCH   1  32
ATOM     32  C   UNL     1       1.962   4.905  20.857  0.00  0.00    +0.000 C 
BRANCH  32  33
ATOM     33  C   UNL     1       0.867   3.987  20.317  0.00  0.00    +0.000 C 
BRANCH  33  34
ATOM     34  C   UNL     1       1.408   2.587  20.044  0.00  0.00    +0.000 C 
BRANCH  34  35
ATOM     35  C   UNL     1       1.587   2.358  18.546  0.00  0.00    +0.000 C 
BRANCH  35  36
ATOM     36  N   UNL     1       2.747   1.512  18.309  0.00  0.00    +0.000 NA
ATOM     37  H   UNL     1       2.752   0.748  18.986  0.00  0.00    +0.000 HD
ATOM     38  H   UNL     1       3.602   2.041  18.473  0.00  0.00    +0.000 HD
ENDBRANCH  35  36
ENDBRANCH  34  35
ENDBRANCH  33  34
ENDBRANCH  32  33
ENDBRANCH   1  32
TORSDOF 7
ENDMDL
MODEL 7
REMARK VINA RESULT:      -8.1      3.143      5.179
REMARK  Name = 
REMARK  7 active torsions:
REMARK  status: ('A' for Active; 'I' for Inactive)
REMARK    1  A    between atoms: N_1  and  C_2
REMARK    2  A    between atoms: C_2  and  C_3
REMARK    3  A    between atoms: C_3  and  C_4
REMARK    4  A    between atoms: C_4  and  C_5
REMARK    5  A    between atoms: C_5  and  N_6
REMARK    6  A    between atoms: C_8  and  C_9
REMARK    7  A    between atoms: C_11  and  C_12
REMARK                            x       y       z     vdW  Elec       q    Type
REMARK                         _______ _______ _______ _____ _____    ______ ____
ROOT
ATOM      1  N   UNL     1       2.227   6.040  20.019  0.00  0.00    +0.000 N 
ATOM      2  C   UNL     1       1.614   7.265  20.099  0.00  0.00    +0.000 A 
ATOM      3  C   UNL     1       2.081   8.052  19.058  0.00  0.00    +0.000 A 
ATOM      4  C   UNL     1       3.013   7.255  18.329  0.00  0.00    +0.000 A 
ATOM      5  N   UNL     1       3.725   7.558  17.221  0.00  0.00    +0.000 NA
ATOM      6  C   UNL     1       4.490   6.567  16.764  0.00  0.00    +0.000 A 
ATOM      7  N   UNL     1       5.173   6.787  15.586  0.00  0.00    +0.000 N 
ATOM      8  N   UNL     1       4.639   5.359  17.325  0.00  0.00    +0.000 NA
ATOM      9  C   UNL     1       3.936   5.063  18.433  0.00  0.00    +0.000 A 
ATOM     10  C   UNL     1       3.090   6.022  18.958  0.00  0.00    +0.000 A 
ATOM     11  H   UNL     1       5.293   7.766  15.375  0.00  0.00    +0.000 HD
ATOM     12  H   UNL     1       5.943   6.149  15.462  0.00  0.00    +0.000 HD
ENDROOT
BRANCH   3  13
ATOM     13  C   UNL     1       1.592   9.396  18.810  0.00  0.00    +0.000 A 
ATOM     14  C   UNL     1       0.215   9.652  18.821  0.00  0.00    +0.000 A 
ATOM     15  C   UNL     1      -0.292  10.944  18.619  0.00  0.00    +0.000 A 
ATOM     16  C   UNL     1       0.650  11.968  18.422  0.00  0.00    +0.000 A 
ATOM     17  N   UNL     1       0.513  13.322  18.243  0.00  0.00    +0.000 N 
ATOM     18  N   UNL     1       1.667  13.981  18.061  0.00  0.00    +0.000 NA
ATOM     19  C   UNL     1       2.583  13.016  18.147  0.00  0.00    +0.000 A 
ATOM     20  C   UNL     1       2.016  11.745  18.386  0.00  0.00    +0.000 A 
ATOM     21  C   UNL     1       2.500  10.445  18.579  0.00  0.00    +0.000 A 
ATOM     22  H   UNL     1      -0.359  13.840  18.215  0.00  0.00    +0.000 HD
BRANCH  15  23
ATOM     23  C   UNL     1      -1.721  11.234  18.640  0.00  0.00    +0.000 A 
ATOM     24  C   UNL     1      -2.702  10.858  17.743  0.00  0.00    +0.000 A 
ATOM     25  C   UNL     1      -4.008  11.334  18.102  0.00  0.00    +0.000 A 
ATOM     26  C   UNL     1      -5.259  11.172  17.470  0.00  0.00    +0.000 A 
ATOM     27  C   UNL     1      -6.405  11.744  18.035  0.00  0.00    +0.000 A 
ATOM     28  C   UNL     1      -6.329  12.462  19.220  0.00  0.00    +0.000 A 
ATOM     29  C   UNL     1      -5.110  12.634  19.865  0.00  0.00    +0.000 A 
ATOM     30  C   UNL     1      -3.963  12.073  19.283  0.00  0.00    +0.000 A 
ATOM     31  S   UNL     1      -2.378  12.209  19.883  0.00  0.00    +0.000 S 
ENDBRANCH  15  23
ENDBRANCH   3  13
BRANCH   1  32
ATOM     32  C   UNL     1       1.953   4.942  20.933  0.00  0.00    +0.000 C 
BRANCH  32  33
ATOM     33  C   UNL     1       0.894   3.987  20.384  0.00  0.00    +0.000 C 
BRANCH  33  34
ATOM     34  C   UNL     1       1.481   2.603  20.127  0.00  0.00    +0.000 C 
BRANCH  34  35
ATOM     35  C   UNL     1       1.407   2.249  18.645  0.00  0.00    +0.000 C 
BRANCH  35  36
ATOM     36  N   UNL     1       2.657   1.639  18.217  0.00  0.00    +0.000 NA
ATOM     37  H   UNL     1       2.558   0.624  18.225  0.00  0.00    +0.000 HD
ATOM     38  H   UNL     1       3.395   1.856  18.885  0.00  0.00    +0.000 HD
ENDBRANCH  35  36
ENDBRANCH  34  35
ENDBRANCH  33  34
ENDBRANCH  32  33
ENDBRANCH   1  32
TORSDOF 7
ENDMDL
MODEL 8
REMARK VINA RESULT:      -7.8      4.722      8.687
REMARK  Name = 
REMARK  7 active torsions:
REMARK  status: ('A' for Active; 'I' for Inactive)
REMARK    1  A    between atoms: N_1  and  C_2
REMARK    2  A    between atoms: C_2  and  C_3
REMARK    3  A    between atoms: C_3  and  C_4
REMARK    4  A    between atoms: C_4  and  C_5
REMARK    5  A    between atoms: C_5  and  N_6
REMARK    6  A    between atoms: C_8  and  C_9
REMARK    7  A    between atoms: C_11  and  C_12
REMARK                            x       y       z     vdW  Elec       q    Type
REMARK                         _______ _______ _______ _____ _____    ______ ____
ROOT
ATOM      1  N   UNL     1      -3.287  10.807  16.123  0.00  0.00    +0.000 N 
ATOM      2  C   UNL     1      -2.149  10.268  16.671  0.00  0.00    +0.000 A 
ATOM      3  C   UNL     1      -2.134  10.571  18.023  0.00  0.00    +0.000 A 
ATOM      4  C   UNL     1      -3.317  11.325  18.287  0.00  0.00    +0.000 A 
ATOM      5  N   UNL     1      -3.770  11.838  19.452  0.00  0.00    +0.000 NA
ATOM      6  C   UNL     1      -4.940  12.468  19.363  0.00  0.00    +0.000 A 
ATOM      7  N   UNL     1      -5.497  12.937  20.534  0.00  0.00    +0.000 N 
ATOM      8  N   UNL     1      -5.650  12.668  18.243  0.00  0.00    +0.000 NA
ATOM      9  C   UNL     1      -5.191  12.164  17.082  0.00  0.00    +0.000 A 
ATOM     10  C   UNL     1      -3.999  11.463  17.088  0.00  0.00    +0.000 A 
ATOM     11  H   UNL     1      -4.822  13.056  21.274  0.00  0.00    +0.000 HD
ATOM     12  H   UNL     1      -6.195  13.646  20.373  0.00  0.00    +0.000 HD
ENDROOT
BRANCH   3  13
ATOM     13  C   UNL     1      -1.097  10.099  18.922  0.00  0.00    +0.000 A 
ATOM     14  C   UNL     1      -0.067   9.283  18.435  0.00  0.00    +0.000 A 
ATOM     15  C   UNL     1       0.971   8.838  19.267  0.00  0.00    +0.000 A 
ATOM     16  C   UNL     1       0.933   9.262  20.605  0.00  0.00    +0.000 A 
ATOM     17  N   UNL     1       1.788   9.058  21.659  0.00  0.00    +0.000 N 
ATOM     18  N   UNL     1       1.396   9.618  22.813  0.00  0.00    +0.000 NA
ATOM     19  C   UNL     1       0.255  10.222  22.483  0.00  0.00    +0.000 A 
ATOM     20  C   UNL     1      -0.080  10.053  21.122  0.00  0.00    +0.000 A 
ATOM     21  C   UNL     1      -1.112  10.477  20.277  0.00  0.00    +0.000 A 
ATOM     22  H   UNL     1       2.648   8.520  21.641  0.00  0.00    +0.000 HD
BRANCH  15  23
ATOM     23  C   UNL     1       2.059   7.999  18.776  0.00  0.00    +0.000 A 
ATOM     24  C   UNL     1       2.882   8.188  17.683  0.00  0.00    +0.000 A 
ATOM     25  C   UNL     1       3.849   7.139  17.518  0.00  0.00    +0.000 A 
ATOM     26  C   UNL     1       4.858   6.954  16.548  0.00  0.00    +0.000 A 
ATOM     27  C   UNL     1       5.687   5.828  16.611  0.00  0.00    +0.000 A 
ATOM     28  C   UNL     1       5.536   4.892  17.625  0.00  0.00    +0.000 A 
ATOM     29  C   UNL     1       4.552   5.051  18.593  0.00  0.00    +0.000 A 
ATOM     30  C   UNL     1       3.714   6.173  18.513  0.00  0.00    +0.000 A 
ATOM     31  S   UNL     1       2.424   6.525  19.564  0.00  0.00    +0.000 S 
ENDBRANCH  15  23
ENDBRANCH   3  13
BRANCH   1  32
ATOM     32  C   UNL     1      -3.653  10.657  14.724  0.00  0.00    +0.000 C 
BRANCH  32  33
ATOM     33  C   UNL     1      -2.796   9.612  14.013  0.00  0.00    +0.000 C 
BRANCH  33  34
ATOM     34  C   UNL     1      -3.004   9.663  12.503  0.00  0.00    +0.000 C 
BRANCH  34  35
ATOM     35  C   UNL     1      -4.488   9.767  12.163  0.00  0.00    +0.000 C 
BRANCH  35  36
ATOM     36  N   UNL     1      -4.724   9.264  10.819  0.00  0.00    +0.000 NA
ATOM     37  H   UNL     1      -4.619  10.026  10.149  0.00  0.00    +0.000 HD
ATOM     38  H   UNL     1      -5.688   8.943  10.732  0.00  0.00    +0.000 HD
ENDBRANCH  35  36
ENDBRANCH  34  35
ENDBRANCH  33  34
ENDBRANCH  32  33
ENDBRANCH   1  32
TORSDOF 7
ENDMDL
MODEL 9
REMARK VINA RESULT:      -7.8      2.366      2.618
REMARK  Name = 
REMARK  7 active torsions:
REMARK  status: ('A' for Active; 'I' for Inactive)
REMARK    1  A    between atoms: N_1  and  C_2
REMARK    2  A    between atoms: C_2  and  C_3
REMARK    3  A    between atoms: C_3  and  C_4
REMARK    4  A    between atoms: C_4  and  C_5
REMARK    5  A    between atoms: C_5  and  N_6
REMARK    6  A    between atoms: C_8  and  C_9
REMARK    7  A    between atoms: C_11  and  C_12
REMARK                            x       y       z     vdW  Elec       q    Type
REMARK                         _______ _______ _______ _____ _____    ______ ____
ROOT
ATOM      1  N   UNL     1       4.689   6.592  17.547  0.00  0.00    +0.000 N 
ATOM      2  C   UNL     1       4.019   7.774  17.347  0.00  0.00    +0.000 A 
ATOM      3  C   UNL     1       2.832   7.725  18.060  0.00  0.00    +0.000 A 
ATOM      4  C   UNL     1       2.798   6.455  18.712  0.00  0.00    +0.000 A 
ATOM      5  N   UNL     1       1.864   5.934  19.537  0.00  0.00    +0.000 NA
ATOM      6  C   UNL     1       2.154   4.723  20.009  0.00  0.00    +0.000 A 
ATOM      7  N   UNL     1       1.279   4.175  20.925  0.00  0.00    +0.000 N 
ATOM      8  N   UNL     1       3.233   3.990  19.702  0.00  0.00    +0.000 NA
ATOM      9  C   UNL     1       4.158   4.507  18.873  0.00  0.00    +0.000 A 
ATOM     10  C   UNL     1       3.955   5.776  18.361  0.00  0.00    +0.000 A 
ATOM     11  H   UNL     1       0.359   4.586  20.888  0.00  0.00    +0.000 HD
ATOM     12  H   UNL     1       1.380   3.176  21.005  0.00  0.00    +0.000 HD
ENDROOT
BRANCH   3  13
ATOM     13  C   UNL     1       1.905   8.840  18.119  0.00  0.00    +0.000 A 
ATOM     14  C   UNL     1       2.356  10.104  18.519  0.00  0.00    +0.000 A 
ATOM     15  C   UNL     1       1.497  11.212  18.554  0.00  0.00    +0.000 A 
ATOM     16  C   UNL     1       0.168  10.993  18.155  0.00  0.00    +0.000 A 
ATOM     17  N   UNL     1      -0.906  11.838  18.028  0.00  0.00    +0.000 N 
ATOM     18  N   UNL     1      -2.041  11.243  17.631  0.00  0.00    +0.000 NA
ATOM     19  C   UNL     1      -1.678   9.970  17.479  0.00  0.00    +0.000 A 
ATOM     20  C   UNL     1      -0.315   9.752  17.773  0.00  0.00    +0.000 A 
ATOM     21  C   UNL     1       0.558   8.657  17.756  0.00  0.00    +0.000 A 
ATOM     22  H   UNL     1      -0.914  12.833  18.223  0.00  0.00    +0.000 HD
BRANCH  15  23
ATOM     23  C   UNL     1       1.950  12.540  18.954  0.00  0.00    +0.000 A 
ATOM     24  C   UNL     1       2.638  13.485  18.219  0.00  0.00    +0.000 A 
ATOM     25  C   UNL     1       2.910  14.686  18.958  0.00  0.00    +0.000 A 
ATOM     26  C   UNL     1       3.574  15.874  18.584  0.00  0.00    +0.000 A 
ATOM     27  C   UNL     1       3.706  16.918  19.506  0.00  0.00    +0.000 A 
ATOM     28  C   UNL     1       3.182  16.805  20.786  0.00  0.00    +0.000 A 
ATOM     29  C   UNL     1       2.521  15.648  21.180  0.00  0.00    +0.000 A 
ATOM     30  C   UNL     1       2.408  14.598  20.255  0.00  0.00    +0.000 A 
ATOM     31  S   UNL     1       1.685  13.088  20.552  0.00  0.00    +0.000 S 
ENDBRANCH  15  23
ENDBRANCH   3  13
BRANCH   1  32
ATOM     32  C   UNL     1       5.996   6.303  16.976  0.00  0.00    +0.000 C 
BRANCH  32  33
ATOM     33  C   UNL     1       7.003   7.418  17.251  0.00  0.00    +0.000 C 
BRANCH  33  34
ATOM     34  C   UNL     1       7.970   7.024  18.362  0.00  0.00    +0.000 C 
BRANCH  34  35
ATOM     35  C   UNL     1       7.739   5.580  18.796  0.00  0.00    +0.000 C 
BRANCH  35  36
ATOM     36  N   UNL     1       7.862   5.470  20.241  0.00  0.00    +0.000 NA
ATOM     37  H   UNL     1       6.932   5.480  20.661  0.00  0.00    +0.000 HD
ATOM     38  H   UNL     1       8.347   6.286  20.612  0.00  0.00    +0.000 HD
ENDBRANCH  35  36
ENDBRANCH  34  35
ENDBRANCH  33  34
ENDBRANCH  32  33
ENDBRANCH   1  32
TORSDOF 7
ENDMDL
