MODEL 1
REMARK VINA RESULT:      -8.4      0.000      0.000
REMARK  Name = 
REMARK  8 active torsions:
REMARK  status: ('A' for Active; 'I' for Inactive)
REMARK    1  A    between atoms: C_1  and  C_2
REMARK    2  A    between atoms: C_4  and  C_5
REMARK    3  A    between atoms: C_5  and  C_6
REMARK    4  A    between atoms: C_5  and  C_7
REMARK    5  A    between atoms: C_5  and  N_8
REMARK    6  A    between atoms: C_9  and  C_11
REMARK    7  A    between atoms: C_14  and  C_15
REMARK    8  A    between atoms: C_20  and  C_21
REMARK                            x       y       z     vdW  Elec       q    Type
REMARK                         _______ _______ _______ _____ _____    ______ ____
ROOT
ATOM      1  C   UNL     1       2.628   7.186  18.390  0.00  0.00    +0.000 A 
ATOM      2  C   UNL     1       2.159   6.378  19.413  0.00  0.00    +0.000 A 
ATOM      3  C   UNL     1       2.700   5.103  19.548  0.00  0.00    +0.000 A 
ATOM      4  C   UNL     1       3.696   4.655  18.657  0.00  0.00    +0.000 A 
ATOM      5  C   UNL     1       4.096   5.537  17.626  0.00  0.00    +0.000 A 
ATOM      6  N   UNL     1       3.573   6.796  17.496  0.00  0.00    +0.000 NA
ENDROOT
BRANCH   5   7
ATOM      7  C   UNL     1       5.145   5.248  16.611  0.00  0.00    +0.000 A 
ATOM      8  C   UNL     1       6.499   5.586  16.785  0.00  0.00    +0.000 A 
ATOM      9  C   UNL     1       7.433   5.442  15.755  0.00  0.00    +0.000 A 
ATOM     10  C   UNL     1       7.055   4.852  14.555  0.00  0.00    +0.000 A 
ATOM     11  C   UNL     1       5.748   4.401  14.399  0.00  0.00    +0.000 A 
ATOM     12 CL   UNL     1       5.299   3.581  12.953  0.00  0.00    +0.000 Cl
ATOM     13  C   UNL     1       4.801   4.607  15.404  0.00  0.00    +0.000 A 
ENDBRANCH   5   7
BRANCH   4  14
ATOM     14  C   UNL     1       4.269   3.272  18.846  0.00  0.00    +0.000 C 
ATOM     15  C   UNL     1       3.351   2.136  18.415  0.00  0.00    +0.000 C 
ATOM     16  C   UNL     1       4.121   0.949  18.944  0.00  0.00    +0.000 C 
ATOM     17  C   UNL     1       4.752   1.494  20.221  0.00  0.00    +0.000 C 
ATOM     18  O   UNL     1       4.562   2.927  20.213  0.00  0.00    +0.000 OA
ENDBRANCH   4  14
BRANCH   1  20
ATOM     19  N   UNL     1       1.250   9.021  19.259  0.00  0.00    +0.000 N 
ATOM     20  C   UNL     1       2.076   8.574  18.241  0.00  0.00    +0.000 C 
ATOM     21  O   UNL     1       2.360   9.243  17.254  0.00  0.00    +0.000 OA
ATOM     22  H   UNL     1       1.093   8.398  20.044  0.00  0.00    +0.000 HD
BRANCH  19  23
ATOM     23  C   UNL     1       0.651  10.369  19.308  0.00  0.00    +0.000 C 
ATOM     24  C   UNL     1      -0.553  10.463  18.347  0.00  0.00    +0.000 C 
ATOM     25  C   UNL     1       1.709  11.429  18.940  0.00  0.00    +0.000 C 
BRANCH  23  29
ATOM     26  C   UNL     1      -1.955  11.867  23.312  0.00  0.00    +0.000 C 
ATOM     27  C   UNL     1      -0.995  11.305  22.342  0.00  0.00    +0.000 A 
ATOM     28  N   UNL     1      -1.002  11.319  21.028  0.00  0.00    +0.000 NA
ATOM     29  C   UNL     1       0.162  10.637  20.729  0.00  0.00    +0.000 A 
ATOM     30  N   UNL     1       0.849  10.221  21.807  0.00  0.00    +0.000 NA
ATOM     31  O   UNL     1       0.079  10.666  22.877  0.00  0.00    +0.000 OA
ENDBRANCH  23  29
ENDBRANCH  19  23
ENDBRANCH   1  20
TORSDOF 5
ENDMDL
MODEL 2
REMARK VINA RESULT:      -8.1      2.689      4.734
REMARK  Name = 
REMARK  8 active torsions:
REMARK  status: ('A' for Active; 'I' for Inactive)
REMARK    1  A    between atoms: C_1  and  C_2
REMARK    2  A    between atoms: C_4  and  C_5
REMARK    3  A    between atoms: C_5  and  C_6
REMARK    4  A    between atoms: C_5  and  C_7
REMARK    5  A    between atoms: C_5  and  N_8
REMARK    6  A    between atoms: C_9  and  C_11
REMARK    7  A    between atoms: C_14  and  C_15
REMARK    8  A    between atoms: C_20  and  C_21
REMARK                            x       y       z     vdW  Elec       q    Type
REMARK                         _______ _______ _______ _____ _____    ______ ____
ROOT
ATOM      1  C   UNL     1       1.551   8.841  18.996  0.00  0.00    +0.000 A 
ATOM      2  C   UNL     1       2.471   9.169  18.014  0.00  0.00    +0.000 A 
ATOM      3  C   UNL     1       3.319   8.170  17.543  0.00  0.00    +0.000 A 
ATOM      4  C   UNL     1       3.237   6.864  18.066  0.00  0.00    +0.000 A 
ATOM      5  C   UNL     1       2.287   6.626  19.085  0.00  0.00    +0.000 A 
ATOM      6  N   UNL     1       1.444   7.604  19.544  0.00  0.00    +0.000 NA
ENDROOT
BRANCH   5   7
ATOM      7  C   UNL     1       2.042   5.311  19.738  0.00  0.00    +0.000 A 
ATOM      8  C   UNL     1       2.367   5.045  21.081  0.00  0.00    +0.000 A 
ATOM      9  C   UNL     1       2.269   3.761  21.624  0.00  0.00    +0.000 A 
ATOM     10  C   UNL     1       1.737   2.727  20.862  0.00  0.00    +0.000 A 
ATOM     11  C   UNL     1       1.298   2.989  19.568  0.00  0.00    +0.000 A 
ATOM     12 CL   UNL     1       0.549   1.737  18.655  0.00  0.00    +0.000 Cl
ATOM     13  C   UNL     1       1.460   4.257  19.007  0.00  0.00    +0.000 A 
ENDBRANCH   5   7
BRANCH   4  14
ATOM     14  C   UNL     1       4.162   5.805  17.519  0.00  0.00    +0.000 C 
ATOM     15  C   UNL     1       5.361   5.487  18.402  0.00  0.00    +0.000 C 
ATOM     16  C   UNL     1       6.156   4.599  17.473  0.00  0.00    +0.000 C 
ATOM     17  C   UNL     1       5.867   5.198  16.101  0.00  0.00    +0.000 C 
ATOM     18  O   UNL     1       4.787   6.144  16.266  0.00  0.00    +0.000 OA
ENDBRANCH   4  14
BRANCH   1  20
ATOM     19  N   UNL     1       0.763  11.165  18.964  0.00  0.00    +0.000 N 
ATOM     20  C   UNL     1       0.610   9.897  19.501  0.00  0.00    +0.000 C 
ATOM     21  O   UNL     1      -0.230   9.614  20.346  0.00  0.00    +0.000 OA
ATOM     22  H   UNL     1       1.476  11.291  18.254  0.00  0.00    +0.000 HD
BRANCH  19  23
ATOM     23  C   UNL     1      -0.095  12.316  19.304  0.00  0.00    +0.000 C 
ATOM     24  C   UNL     1       0.397  13.590  18.585  0.00  0.00    +0.000 C 
ATOM     25  C   UNL     1      -0.102  12.535  20.831  0.00  0.00    +0.000 C 
BRANCH  23  29
ATOM     26  C   UNL     1      -4.147  11.094  16.629  0.00  0.00    +0.000 C 
ATOM     27  C   UNL     1      -3.156  11.493  17.647  0.00  0.00    +0.000 A 
ATOM     28  N   UNL     1      -1.850  11.614  17.566  0.00  0.00    +0.000 NA
ATOM     29  C   UNL     1      -1.520  12.018  18.845  0.00  0.00    +0.000 A 
ATOM     30  N   UNL     1      -2.572  12.137  19.673  0.00  0.00    +0.000 NA
ATOM     31  O   UNL     1      -3.657  11.788  18.875  0.00  0.00    +0.000 OA
ENDBRANCH  23  29
ENDBRANCH  19  23
ENDBRANCH   1  20
TORSDOF 5
ENDMDL
MODEL 3
REMARK VINA RESULT:      -8.1      2.930      4.740
REMARK  Name = 
REMARK  8 active torsions:
REMARK  status: ('A' for Active; 'I' for Inactive)
REMARK    1  A    between atoms: C_1  and  C_2
REMARK    2  A    between atoms: C_4  and  C_5
REMARK    3  A    between atoms: C_5  and  C_6
REMARK    4  A    between atoms: C_5  and  C_7
REMARK    5  A    between atoms: C_5  and  N_8
REMARK    6  A    between atoms: C_9  and  C_11
REMARK    7  A    between atoms: C_14  and  C_15
REMARK    8  A    between atoms: C_20  and  C_21
REMARK                            x       y       z     vdW  Elec       q    Type
REMARK                         _______ _______ _______ _____ _____    ______ ____
ROOT
ATOM      1  C   UNL     1       2.146   8.179  18.512  0.00  0.00    +0.000 A 
ATOM      2  C   UNL     1       3.162   8.672  17.709  0.00  0.00    +0.000 A 
ATOM      3  C   UNL     1       4.047   7.765  17.132  0.00  0.00    +0.000 A 
ATOM      4  C   UNL     1       3.906   6.383  17.372  0.00  0.00    +0.000 A 
ATOM      5  C   UNL     1       2.857   5.972  18.227  0.00  0.00    +0.000 A 
ATOM      6  N   UNL     1       1.979   6.860  18.788  0.00  0.00    +0.000 NA
ENDROOT
BRANCH   5   7
ATOM      7  C   UNL     1       2.542   4.560  18.578  0.00  0.00    +0.000 A 
ATOM      8  C   UNL     1       2.556   3.512  17.639  0.00  0.00    +0.000 A 
ATOM      9  C   UNL     1       2.109   2.228  17.961  0.00  0.00    +0.000 A 
ATOM     10  C   UNL     1       1.735   1.932  19.267  0.00  0.00    +0.000 A 
ATOM     11  C   UNL     1       1.823   2.920  20.242  0.00  0.00    +0.000 A 
ATOM     12 CL   UNL     1       1.456   2.534  21.879  0.00  0.00    +0.000 Cl
ATOM     13  C   UNL     1       2.206   4.220  19.903  0.00  0.00    +0.000 A 
ENDBRANCH   5   7
BRANCH   4  14
ATOM     14  C   UNL     1       4.875   5.431  16.717  0.00  0.00    +0.000 C 
ATOM     15  C   UNL     1       6.185   5.236  17.469  0.00  0.00    +0.000 C 
ATOM     16  C   UNL     1       6.969   4.442  16.449  0.00  0.00    +0.000 C 
ATOM     17  C   UNL     1       6.479   5.015  15.124  0.00  0.00    +0.000 C 
ATOM     18  O   UNL     1       5.329   5.840  15.414  0.00  0.00    +0.000 OA
ENDBRANCH   4  14
BRANCH   1  20
ATOM     19  N   UNL     1       0.799  10.223  18.346  0.00  0.00    +0.000 N 
ATOM     20  C   UNL     1       1.166   9.137  19.124  0.00  0.00    +0.000 C 
ATOM     21  O   UNL     1       0.740   8.937  20.256  0.00  0.00    +0.000 OA
ATOM     22  H   UNL     1       1.192  10.286  17.414  0.00  0.00    +0.000 HD
BRANCH  19  23
ATOM     23  C   UNL     1      -0.184  11.243  18.760  0.00  0.00    +0.000 C 
ATOM     24  C   UNL     1       0.293  12.652  18.350  0.00  0.00    +0.000 C 
ATOM     25  C   UNL     1      -0.400  11.177  20.286  0.00  0.00    +0.000 C 
BRANCH  23  29
ATOM     26  C   UNL     1      -4.944  11.359  17.212  0.00  0.00    +0.000 C 
ATOM     27  C   UNL     1      -3.518  11.083  17.476  0.00  0.00    +0.000 A 
ATOM     28  N   UNL     1      -2.661  11.697  18.262  0.00  0.00    +0.000 NA
ATOM     29  C   UNL     1      -1.512  10.956  18.064  0.00  0.00    +0.000 A 
ATOM     30  N   UNL     1      -1.654   9.940  17.197  0.00  0.00    +0.000 NA
ATOM     31  O   UNL     1      -2.988  10.026  16.808  0.00  0.00    +0.000 OA
ENDBRANCH  23  29
ENDBRANCH  19  23
ENDBRANCH   1  20
TORSDOF 5
ENDMDL
MODEL 4
REMARK VINA RESULT:      -8.1      3.009      5.162
REMARK  Name = 
REMARK  8 active torsions:
REMARK  status: ('A' for Active; 'I' for Inactive)
REMARK    1  A    between atoms: C_1  and  C_2
REMARK    2  A    between atoms: C_4  and  C_5
REMARK    3  A    between atoms: C_5  and  C_6
REMARK    4  A    between atoms: C_5  and  C_7
REMARK    5  A    between atoms: C_5  and  N_8
REMARK    6  A    between atoms: C_9  and  C_11
REMARK    7  A    between atoms: C_14  and  C_15
REMARK    8  A    between atoms: C_20  and  C_21
REMARK                            x       y       z     vdW  Elec       q    Type
REMARK                         _______ _______ _______ _____ _____    ______ ____
ROOT
ATOM      1  C   UNL     1       1.659   8.854  18.777  0.00  0.00    +0.000 A 
ATOM      2  C   UNL     1       2.654   9.145  17.858  0.00  0.00    +0.000 A 
ATOM      3  C   UNL     1       3.535   8.131  17.495  0.00  0.00    +0.000 A 
ATOM      4  C   UNL     1       3.412   6.846  18.060  0.00  0.00    +0.000 A 
ATOM      5  C   UNL     1       2.385   6.645  19.011  0.00  0.00    +0.000 A 
ATOM      6  N   UNL     1       1.509   7.638  19.363  0.00  0.00    +0.000 NA
ENDROOT
BRANCH   5   7
ATOM      7  C   UNL     1       2.089   5.356  19.694  0.00  0.00    +0.000 A 
ATOM      8  C   UNL     1       2.404   5.109  21.043  0.00  0.00    +0.000 A 
ATOM      9  C   UNL     1       2.256   3.843  21.614  0.00  0.00    +0.000 A 
ATOM     10  C   UNL     1       1.683   2.813  20.877  0.00  0.00    +0.000 A 
ATOM     11  C   UNL     1       1.253   3.062  19.578  0.00  0.00    +0.000 A 
ATOM     12 CL   UNL     1       0.455   1.820  18.693  0.00  0.00    +0.000 Cl
ATOM     13  C   UNL     1       1.465   4.310  18.987  0.00  0.00    +0.000 A 
ENDBRANCH   5   7
BRANCH   4  14
ATOM     14  C   UNL     1       4.377   5.769  17.630  0.00  0.00    +0.000 C 
ATOM     15  C   UNL     1       5.549   6.260  16.791  0.00  0.00    +0.000 C 
ATOM     16  C   UNL     1       6.149   4.941  16.362  0.00  0.00    +0.000 C 
ATOM     17  C   UNL     1       4.925   4.044  16.212  0.00  0.00    +0.000 C 
ATOM     18  O   UNL     1       3.804   4.752  16.788  0.00  0.00    +0.000 OA
ENDBRANCH   4  14
BRANCH   1  20
ATOM     19  N   UNL     1      -0.150  10.393  18.160  0.00  0.00    +0.000 N 
ATOM     20  C   UNL     1       0.682   9.926  19.164  0.00  0.00    +0.000 C 
ATOM     21  O   UNL     1       0.657  10.343  20.316  0.00  0.00    +0.000 OA
ATOM     22  H   UNL     1      -0.063   9.967  17.244  0.00  0.00    +0.000 HD
BRANCH  19  23
ATOM     23  C   UNL     1      -1.199  11.410  18.361  0.00  0.00    +0.000 C 
ATOM     24  C   UNL     1      -0.624  12.829  18.168  0.00  0.00    +0.000 C 
ATOM     25  C   UNL     1      -1.806  11.269  19.772  0.00  0.00    +0.000 C 
BRANCH  23  29
ATOM     26  C   UNL     1      -3.819  10.062  14.312  0.00  0.00    +0.000 C 
ATOM     27  C   UNL     1      -3.315  10.581  15.598  0.00  0.00    +0.000 A 
ATOM     28  N   UNL     1      -2.119  10.511  16.138  0.00  0.00    +0.000 NA
ATOM     29  C   UNL     1      -2.303  11.187  17.329  0.00  0.00    +0.000 A 
ATOM     30  N   UNL     1      -3.551  11.647  17.514  0.00  0.00    +0.000 NA
ATOM     31  O   UNL     1      -4.222  11.244  16.363  0.00  0.00    +0.000 OA
ENDBRANCH  23  29
ENDBRANCH  19  23
ENDBRANCH   1  20
TORSDOF 5
ENDMDL
MODEL 5
REMARK VINA RESULT:      -8.0      1.441      2.319
REMARK  Name = 
REMARK  8 active torsions:
REMARK  status: ('A' for Active; 'I' for Inactive)
REMARK    1  A    between atoms: C_1  and  C_2
REMARK    2  A    between atoms: C_4  and  C_5
REMARK    3  A    between atoms: C_5  and  C_6
REMARK    4  A    between atoms: C_5  and  C_7
REMARK    5  A    between atoms: C_5  and  N_8
REMARK    6  A    between atoms: C_9  and  C_11
REMARK    7  A    between atoms: C_14  and  C_15
REMARK    8  A    between atoms: C_20  and  C_21
REMARK                            x       y       z     vdW  Elec       q    Type
REMARK                         _______ _______ _______ _____ _____    ______ ____
ROOT
ATOM      1  C   UNL     1       2.577   7.443  18.406  0.00  0.00    +0.000 A 
ATOM      2  C   UNL     1       2.033   6.628  19.386  0.00  0.00    +0.000 A 
ATOM      3  C   UNL     1       2.526   5.332  19.514  0.00  0.00    +0.000 A 
ATOM      4  C   UNL     1       3.547   4.872  18.660  0.00  0.00    +0.000 A 
ATOM      5  C   UNL     1       4.024   5.763  17.671  0.00  0.00    +0.000 A 
ATOM      6  N   UNL     1       3.549   7.042  17.548  0.00  0.00    +0.000 NA
ENDROOT
BRANCH   5   7
ATOM      7  C   UNL     1       5.109   5.462  16.698  0.00  0.00    +0.000 A 
ATOM      8  C   UNL     1       6.450   5.839  16.899  0.00  0.00    +0.000 A 
ATOM      9  C   UNL     1       7.418   5.680  15.904  0.00  0.00    +0.000 A 
ATOM     10  C   UNL     1       7.090   5.037  14.716  0.00  0.00    +0.000 A 
ATOM     11  C   UNL     1       5.800   4.548  14.539  0.00  0.00    +0.000 A 
ATOM     12 CL   UNL     1       5.413   3.665  13.113  0.00  0.00    +0.000 Cl
ATOM     13  C   UNL     1       4.818   4.769  15.507  0.00  0.00    +0.000 A 
ENDBRANCH   5   7
BRANCH   4  14
ATOM     14  C   UNL     1       4.065   3.466  18.842  0.00  0.00    +0.000 C 
ATOM     15  C   UNL     1       3.261   2.392  18.122  0.00  0.00    +0.000 C 
ATOM     16  C   UNL     1       3.898   1.147  18.694  0.00  0.00    +0.000 C 
ATOM     17  C   UNL     1       4.239   1.564  20.120  0.00  0.00    +0.000 C 
ATOM     18  O   UNL     1       4.056   2.995  20.202  0.00  0.00    +0.000 OA
ENDBRANCH   4  14
BRANCH   1  20
ATOM     19  N   UNL     1       1.282   9.329  19.294  0.00  0.00    +0.000 N 
ATOM     20  C   UNL     1       2.078   8.852  18.266  0.00  0.00    +0.000 C 
ATOM     21  O   UNL     1       2.376   9.511  17.276  0.00  0.00    +0.000 OA
ATOM     22  H   UNL     1       1.111   8.711  20.080  0.00  0.00    +0.000 HD
BRANCH  19  23
ATOM     23  C   UNL     1       0.738  10.699  19.352  0.00  0.00    +0.000 C 
ATOM     24  C   UNL     1       1.683  11.689  18.640  0.00  0.00    +0.000 C 
ATOM     25  C   UNL     1       0.533  11.122  20.821  0.00  0.00    +0.000 C 
BRANCH  23  29
ATOM     26  C   UNL     1      -3.098   9.841  16.251  0.00  0.00    +0.000 C 
ATOM     27  C   UNL     1      -2.162  10.295  17.297  0.00  0.00    +0.000 A 
ATOM     28  N   UNL     1      -0.926   9.928  17.555  0.00  0.00    +0.000 NA
ATOM     29  C   UNL     1      -0.614  10.720  18.643  0.00  0.00    +0.000 A 
ATOM     30  N   UNL     1      -1.609  11.533  19.036  0.00  0.00    +0.000 NA
ATOM     31  O   UNL     1      -2.636  11.249  18.141  0.00  0.00    +0.000 OA
ENDBRANCH  23  29
ENDBRANCH  19  23
ENDBRANCH   1  20
TORSDOF 5
ENDMDL
MODEL 6
REMARK VINA RESULT:      -8.0      2.478      4.165
REMARK  Name = 
REMARK  8 active torsions:
REMARK  status: ('A' for Active; 'I' for Inactive)
REMARK    1  A    between atoms: C_1  and  C_2
REMARK    2  A    between atoms: C_4  and  C_5
REMARK    3  A    between atoms: C_5  and  C_6
REMARK    4  A    between atoms: C_5  and  C_7
REMARK    5  A    between atoms: C_5  and  N_8
REMARK    6  A    between atoms: C_9  and  C_11
REMARK    7  A    between atoms: C_14  and  C_15
REMARK    8  A    between atoms: C_20  and  C_21
REMARK                            x       y       z     vdW  Elec       q    Type
REMARK                         _______ _______ _______ _____ _____    ______ ____
ROOT
ATOM      1  C   UNL     1       1.588   8.864  18.823  0.00  0.00    +0.000 A 
ATOM      2  C   UNL     1       2.566   9.176  17.892  0.00  0.00    +0.000 A 
ATOM      3  C   UNL     1       3.449   8.174  17.502  0.00  0.00    +0.000 A 
ATOM      4  C   UNL     1       3.345   6.880  18.051  0.00  0.00    +0.000 A 
ATOM      5  C   UNL     1       2.335   6.659  19.015  0.00  0.00    +0.000 A 
ATOM      6  N   UNL     1       1.457   7.640  19.394  0.00  0.00    +0.000 NA
ENDROOT
BRANCH   5   7
ATOM      7  C   UNL     1       2.060   5.359  19.685  0.00  0.00    +0.000 A 
ATOM      8  C   UNL     1       2.357   5.111  21.038  0.00  0.00    +0.000 A 
ATOM      9  C   UNL     1       2.231   3.838  21.600  0.00  0.00    +0.000 A 
ATOM     10  C   UNL     1       1.698   2.798  20.846  0.00  0.00    +0.000 A 
ATOM     11  C   UNL     1       1.286   3.044  19.540  0.00  0.00    +0.000 A 
ATOM     12 CL   UNL     1       0.536   1.787  18.634  0.00  0.00    +0.000 Cl
ATOM     13  C   UNL     1       1.476   4.301  18.960  0.00  0.00    +0.000 A 
ENDBRANCH   5   7
BRANCH   4  14
ATOM     14  C   UNL     1       4.312   5.817  17.591  0.00  0.00    +0.000 C 
ATOM     15  C   UNL     1       5.427   5.498  18.577  0.00  0.00    +0.000 C 
ATOM     16  C   UNL     1       6.298   4.605  17.724  0.00  0.00    +0.000 C 
ATOM     17  C   UNL     1       6.133   5.200  16.330  0.00  0.00    +0.000 C 
ATOM     18  O   UNL     1       5.045   6.150  16.398  0.00  0.00    +0.000 OA
ENDBRANCH   4  14
BRANCH   1  20
ATOM     19  N   UNL     1       0.998  11.237  19.034  0.00  0.00    +0.000 N 
ATOM     20  C   UNL     1       0.610   9.924  19.240  0.00  0.00    +0.000 C 
ATOM     21  O   UNL     1      -0.464   9.603  19.737  0.00  0.00    +0.000 OA
ATOM     22  H   UNL     1       1.899  11.396  18.596  0.00  0.00    +0.000 HD
BRANCH  19  23
ATOM     23  C   UNL     1       0.154  12.408  19.339  0.00  0.00    +0.000 C 
ATOM     24  C   UNL     1      -1.047  12.477  18.373  0.00  0.00    +0.000 C 
ATOM     25  C   UNL     1       0.991  13.700  19.242  0.00  0.00    +0.000 C 
BRANCH  23  29
ATOM     26  C   UNL     1      -2.772  12.054  23.386  0.00  0.00    +0.000 C 
ATOM     27  C   UNL     1      -1.680  12.133  22.398  0.00  0.00    +0.000 A 
ATOM     28  N   UNL     1      -1.718  12.254  21.090  0.00  0.00    +0.000 NA
ATOM     29  C   UNL     1      -0.375  12.273  20.765  0.00  0.00    +0.000 A 
ATOM     30  N   UNL     1       0.448  12.165  21.821  0.00  0.00    +0.000 NA
ATOM     31  O   UNL     1      -0.420  12.073  22.905  0.00  0.00    +0.000 OA
ENDBRANCH  23  29
ENDBRANCH  19  23
ENDBRANCH   1  20
TORSDOF 5
ENDMDL
MODEL 7
REMARK VINA RESULT:      -7.9      2.629      4.428
REMARK  Name = 
REMARK  8 active torsions:
REMARK  status: ('A' for Active; 'I' for Inactive)
REMARK    1  A    between atoms: C_1  and  C_2
REMARK    2  A    between atoms: C_4  and  C_5
REMARK    3  A    between atoms: C_5  and  C_6
REMARK    4  A    between atoms: C_5  and  C_7
REMARK    5  A    between atoms: C_5  and  N_8
REMARK    6  A    between atoms: C_9  and  C_11
REMARK    7  A    between atoms: C_14  and  C_15
REMARK    8  A    between atoms: C_20  and  C_21
REMARK                            x       y       z     vdW  Elec       q    Type
REMARK                         _______ _______ _______ _____ _____    ______ ____
ROOT
ATOM      1  C   UNL     1       2.297   8.038  18.139  0.00  0.00    +0.000 A 
ATOM      2  C   UNL     1       3.434   8.448  17.464  0.00  0.00    +0.000 A 
ATOM      3  C   UNL     1       4.377   7.486  17.113  0.00  0.00    +0.000 A 
ATOM      4  C   UNL     1       4.170   6.133  17.448  0.00  0.00    +0.000 A 
ATOM      5  C   UNL     1       2.994   5.808  18.163  0.00  0.00    +0.000 A 
ATOM      6  N   UNL     1       2.060   6.751  18.501  0.00  0.00    +0.000 NA
ENDROOT
BRANCH   5   7
ATOM      7  C   UNL     1       2.597   4.437  18.582  0.00  0.00    +0.000 A 
ATOM      8  C   UNL     1       2.479   3.360  17.683  0.00  0.00    +0.000 A 
ATOM      9  C   UNL     1       1.958   2.125  18.076  0.00  0.00    +0.000 A 
ATOM     10  C   UNL     1       1.643   1.900  19.412  0.00  0.00    +0.000 A 
ATOM     11  C   UNL     1       1.860   2.910  20.343  0.00  0.00    +0.000 A 
ATOM     12 CL   UNL     1       1.564   2.606  22.011  0.00  0.00    +0.000 Cl
ATOM     13  C   UNL     1       2.317   4.165  19.935  0.00  0.00    +0.000 A 
ENDBRANCH   5   7
BRANCH   4  14
ATOM     14  C   UNL     1       5.208   5.117  17.037  0.00  0.00    +0.000 C 
ATOM     15  C   UNL     1       6.650   5.585  17.179  0.00  0.00    +0.000 C 
ATOM     16  C   UNL     1       7.373   4.453  16.485  0.00  0.00    +0.000 C 
ATOM     17  C   UNL     1       6.398   4.053  15.383  0.00  0.00    +0.000 C 
ATOM     18  O   UNL     1       5.148   4.727  15.652  0.00  0.00    +0.000 OA
ENDBRANCH   4  14
BRANCH   1  20
ATOM     19  N   UNL     1       1.100   9.318  19.857  0.00  0.00    +0.000 N 
ATOM     20  C   UNL     1       1.256   9.056  18.506  0.00  0.00    +0.000 C 
ATOM     21  O   UNL     1       0.596   9.600  17.628  0.00  0.00    +0.000 OA
ATOM     22  H   UNL     1       1.710   8.829  20.503  0.00  0.00    +0.000 HD
BRANCH  19  23
ATOM     23  C   UNL     1       0.161  10.315  20.404  0.00  0.00    +0.000 C 
ATOM     24  C   UNL     1      -0.319   9.896  21.810  0.00  0.00    +0.000 C 
ATOM     25  C   UNL     1      -1.046  10.478  19.457  0.00  0.00    +0.000 C 
BRANCH  23  29
ATOM     26  C   UNL     1       2.836  14.447  19.488  0.00  0.00    +0.000 C 
ATOM     27  C   UNL     1       2.014  13.353  20.039  0.00  0.00    +0.000 A 
ATOM     28  N   UNL     1       1.576  12.247  19.479  0.00  0.00    +0.000 NA
ATOM     29  C   UNL     1       0.880  11.657  20.516  0.00  0.00    +0.000 A 
ATOM     30  N   UNL     1       0.887  12.366  21.657  0.00  0.00    +0.000 NA
ATOM     31  O   UNL     1       1.642  13.491  21.339  0.00  0.00    +0.000 OA
ENDBRANCH  23  29
ENDBRANCH  19  23
ENDBRANCH   1  20
TORSDOF 5
ENDMDL
MODEL 8
REMARK VINA RESULT:      -7.8      2.231      3.317
REMARK  Name = 
REMARK  8 active torsions:
REMARK  status: ('A' for Active; 'I' for Inactive)
REMARK    1  A    between atoms: C_1  and  C_2
REMARK    2  A    between atoms: C_4  and  C_5
REMARK    3  A    between atoms: C_5  and  C_6
REMARK    4  A    between atoms: C_5  and  C_7
REMARK    5  A    between atoms: C_5  and  N_8
REMARK    6  A    between atoms: C_9  and  C_11
REMARK    7  A    between atoms: C_14  and  C_15
REMARK    8  A    between atoms: C_20  and  C_21
REMARK                            x       y       z     vdW  Elec       q    Type
REMARK                         _______ _______ _______ _____ _____    ______ ____
ROOT
ATOM      1  C   UNL     1       1.938   7.275  20.102  0.00  0.00    +0.000 A 
ATOM      2  C   UNL     1       1.471   6.149  20.759  0.00  0.00    +0.000 A 
ATOM      3  C   UNL     1       2.046   4.919  20.452  0.00  0.00    +0.000 A 
ATOM      4  C   UNL     1       3.074   4.835  19.491  0.00  0.00    +0.000 A 
ATOM      5  C   UNL     1       3.469   6.032  18.850  0.00  0.00    +0.000 A 
ATOM      6  N   UNL     1       2.912   7.245  19.157  0.00  0.00    +0.000 NA
ENDROOT
BRANCH   5   7
ATOM      7  C   UNL     1       4.547   6.141  17.830  0.00  0.00    +0.000 A 
ATOM      8  C   UNL     1       4.523   5.448  16.606  0.00  0.00    +0.000 A 
ATOM      9  C   UNL     1       5.616   5.449  15.736  0.00  0.00    +0.000 A 
ATOM     10  C   UNL     1       6.726   6.237  16.020  0.00  0.00    +0.000 A 
ATOM     11  C   UNL     1       6.728   7.024  17.167  0.00  0.00    +0.000 A 
ATOM     12 CL   UNL     1       8.056   8.075  17.474  0.00  0.00    +0.000 Cl
ATOM     13  C   UNL     1       5.662   6.969  18.068  0.00  0.00    +0.000 A 
ENDBRANCH   5   7
BRANCH   4  14
ATOM     14  C   UNL     1       3.683   3.486  19.197  0.00  0.00    +0.000 C 
ATOM     15  C   UNL     1       2.821   2.570  18.339  0.00  0.00    +0.000 C 
ATOM     16  C   UNL     1       3.606   1.283  18.442  0.00  0.00    +0.000 C 
ATOM     17  C   UNL     1       4.165   1.338  19.860  0.00  0.00    +0.000 C 
ATOM     18  O   UNL     1       3.929   2.674  20.360  0.00  0.00    +0.000 OA
ENDBRANCH   4  14
BRANCH   1  20
ATOM     19  N   UNL     1       0.784   9.318  19.384  0.00  0.00    +0.000 N 
ATOM     20  C   UNL     1       1.348   8.615  20.436  0.00  0.00    +0.000 C 
ATOM     21  O   UNL     1       1.388   9.032  21.587  0.00  0.00    +0.000 OA
ATOM     22  H   UNL     1       0.783   8.876  18.471  0.00  0.00    +0.000 HD
BRANCH  19  23
ATOM     23  C   UNL     1       0.119  10.627  19.526  0.00  0.00    +0.000 C 
ATOM     24  C   UNL     1       1.147  11.773  19.417  0.00  0.00    +0.000 C 
ATOM     25  C   UNL     1      -0.618  10.700  20.879  0.00  0.00    +0.000 C 
BRANCH  23  29
ATOM     26  C   UNL     1      -2.896   9.853  15.605  0.00  0.00    +0.000 C 
ATOM     27  C   UNL     1      -2.130  10.365  16.757  0.00  0.00    +0.000 A 
ATOM     28  N   UNL     1      -1.244   9.771  17.525  0.00  0.00    +0.000 NA
ATOM     29  C   UNL     1      -0.904  10.782  18.403  0.00  0.00    +0.000 A 
ATOM     30  N   UNL     1      -1.551  11.940  18.187  0.00  0.00    +0.000 NA
ATOM     31  O   UNL     1      -2.364  11.661  17.093  0.00  0.00    +0.000 OA
ENDBRANCH  23  29
ENDBRANCH  19  23
ENDBRANCH   1  20
TORSDOF 5
ENDMDL
MODEL 9
REMARK VINA RESULT:      -7.8      2.128      2.705
REMARK  Name = 
REMARK  8 active torsions:
REMARK  status: ('A' for Active; 'I' for Inactive)
REMARK    1  A    between atoms: C_1  and  C_2
REMARK    2  A    between atoms: C_4  and  C_5
REMARK    3  A    between atoms: C_5  and  C_6
REMARK    4  A    between atoms: C_5  and  C_7
REMARK    5  A    between atoms: C_5  and  N_8
REMARK    6  A    between atoms: C_9  and  C_11
REMARK    7  A    between atoms: C_14  and  C_15
REMARK    8  A    between atoms: C_20  and  C_21
REMARK                            x       y       z     vdW  Elec       q    Type
REMARK                         _______ _______ _______ _____ _____    ______ ____
ROOT
ATOM      1  C   UNL     1       1.662   8.554  19.535  0.00  0.00    +0.000 A 
ATOM      2  C   UNL     1       0.998   7.985  20.609  0.00  0.00    +0.000 A 
ATOM      3  C   UNL     1       1.210   6.635  20.877  0.00  0.00    +0.000 A 
ATOM      4  C   UNL     1       2.077   5.877  20.064  0.00  0.00    +0.000 A 
ATOM      5  C   UNL     1       2.691   6.533  18.973  0.00  0.00    +0.000 A 
ATOM      6  N   UNL     1       2.492   7.863  18.712  0.00  0.00    +0.000 NA
ENDROOT
BRANCH   5   7
ATOM      7  C   UNL     1       3.649   5.904  18.023  0.00  0.00    +0.000 A 
ATOM      8  C   UNL     1       3.351   4.743  17.285  0.00  0.00    +0.000 A 
ATOM      9  C   UNL     1       4.320   4.088  16.520  0.00  0.00    +0.000 A 
ATOM     10  C   UNL     1       5.588   4.642  16.386  0.00  0.00    +0.000 A 
ATOM     11  C   UNL     1       5.873   5.851  17.011  0.00  0.00    +0.000 A 
ATOM     12 CL   UNL     1       7.409   6.590  16.771  0.00  0.00    +0.000 Cl
ATOM     13  C   UNL     1       4.925   6.468  17.830  0.00  0.00    +0.000 A 
ENDBRANCH   5   7
BRANCH   4  14
ATOM     14  C   UNL     1       2.293   4.421  20.396  0.00  0.00    +0.000 C 
ATOM     15  C   UNL     1       1.217   3.480  19.872  0.00  0.00    +0.000 C 
ATOM     16  C   UNL     1       1.617   2.197  20.562  0.00  0.00    +0.000 C 
ATOM     17  C   UNL     1       2.163   2.687  21.899  0.00  0.00    +0.000 C 
ATOM     18  O   UNL     1       2.301   4.122  21.804  0.00  0.00    +0.000 OA
ENDBRANCH   4  14
BRANCH   1  20
ATOM     19  N   UNL     1       0.848  10.762  20.230  0.00  0.00    +0.000 N 
ATOM     20  C   UNL     1       1.466  10.013  19.242  0.00  0.00    +0.000 C 
ATOM     21  O   UNL     1       1.843  10.479  18.173  0.00  0.00    +0.000 OA
ATOM     22  H   UNL     1       0.593  10.286  21.089  0.00  0.00    +0.000 HD
BRANCH  19  23
ATOM     23  C   UNL     1       0.611  12.215  20.141  0.00  0.00    +0.000 C 
ATOM     24  C   UNL     1      -0.328  12.541  18.961  0.00  0.00    +0.000 C 
ATOM     25  C   UNL     1       1.953  12.959  19.976  0.00  0.00    +0.000 C 
BRANCH  23  29
ATOM     26  C   UNL     1      -1.344  14.967  23.839  0.00  0.00    +0.000 C 
ATOM     27  C   UNL     1      -0.847  13.918  22.929  0.00  0.00    +0.000 A 
ATOM     28  N   UNL     1      -0.277  14.011  21.748  0.00  0.00    +0.000 NA
ATOM     29  C   UNL     1      -0.053  12.684  21.434  0.00  0.00    +0.000 A 
ATOM     30  N   UNL     1      -0.467  11.818  22.374  0.00  0.00    +0.000 NA
ATOM     31  O   UNL     1      -0.994  12.639  23.366  0.00  0.00    +0.000 OA
ENDBRANCH  23  29
ENDBRANCH  19  23
ENDBRANCH   1  20
TORSDOF 5
ENDMDL
