MODEL 1
REMARK VINA RESULT:      -6.7      0.000      0.000
REMARK  Name = 
REMARK  3 active torsions:
REMARK  status: ('A' for Active; 'I' for Inactive)
REMARK    1  A    between atoms: C_5  and  N_6
REMARK    2  A    between atoms: C_15  and  O_16
REMARK    3  A    between atoms: C_19  and  O_20
REMARK                            x       y       z     vdW  Elec       q    Type
REMARK                         _______ _______ _______ _____ _____    ______ ____
ROOT
ATOM      1  O   UNL     1       2.455   7.234  19.206  0.00  0.00    +0.000 OA
ATOM      2  C   UNL     1       2.862   6.157  18.779  0.00  0.00    +0.000 C 
ATOM      3  C   UNL     1       3.828   6.111  17.651  0.00  0.00    +0.000 C 
ATOM      4 CL   UNL     1       4.374   7.656  17.061  0.00  0.00    +0.000 Cl
ATOM      5  C   UNL     1       4.306   4.972  17.122  0.00  0.00    +0.000 C 
ATOM      6  C   UNL     1       3.771   3.669  17.636  0.00  0.00    +0.000 C 
ATOM      7  O   UNL     1       4.077   2.595  17.120  0.00  0.00    +0.000 OA
ATOM      8  C   UNL     1       2.852   3.668  18.789  0.00  0.00    +0.000 A 
ATOM      9  C   UNL     1       2.411   2.443  19.322  0.00  0.00    +0.000 A 
ATOM     10  C   UNL     1       1.569   2.403  20.428  0.00  0.00    +0.000 A 
ATOM     11  C   UNL     1       1.157   3.591  21.021  0.00  0.00    +0.000 A 
ATOM     12  C   UNL     1       1.583   4.812  20.494  0.00  0.00    +0.000 A 
ATOM     13  C   UNL     1       2.426   4.866  19.368  0.00  0.00    +0.000 A 
ENDROOT
BRANCH   5  14
ATOM     14  N   UNL     1       5.294   4.924  16.121  0.00  0.00    +0.000 N 
ATOM     15  C   UNL     1       4.895   4.839  14.706  0.00  0.00    +0.000 C 
ATOM     16  C   UNL     1       5.960   4.064  13.932  0.00  0.00    +0.000 C 
ATOM     17  C   UNL     1       7.348   4.680  14.115  0.00  0.00    +0.000 C 
ATOM     18  C   UNL     1       7.674   4.874  15.596  0.00  0.00    +0.000 C 
ATOM     19  C   UNL     1       6.564   5.643  16.310  0.00  0.00    +0.000 C 
ENDBRANCH   5  14
BRANCH   9  20
ATOM     20  O   UNL     1       2.766   1.223  18.811  0.00  0.00    +0.000 OA
ATOM     21  H   UNL     1       3.321   0.755  19.475  0.00  0.00    +0.000 HD
ENDBRANCH   9  20
BRANCH  12  22
ATOM     22  O   UNL     1       1.167   5.955  21.117  0.00  0.00    +0.000 OA
ATOM     23  H   UNL     1       0.928   6.639  20.471  0.00  0.00    +0.000 HD
ENDBRANCH  12  22
TORSDOF 3
ENDMDL
MODEL 2
REMARK VINA RESULT:      -6.6      0.448      1.173
REMARK  Name = 
REMARK  3 active torsions:
REMARK  status: ('A' for Active; 'I' for Inactive)
REMARK    1  A    between atoms: C_5  and  N_6
REMARK    2  A    between atoms: C_15  and  O_16
REMARK    3  A    between atoms: C_19  and  O_20
REMARK                            x       y       z     vdW  Elec       q    Type
REMARK                         _______ _______ _______ _____ _____    ______ ____
ROOT
ATOM      1  O   UNL     1       2.788   7.206  19.172  0.00  0.00    +0.000 OA
ATOM      2  C   UNL     1       3.088   6.085  18.769  0.00  0.00    +0.000 C 
ATOM      3  C   UNL     1       3.997   5.922  17.605  0.00  0.00    +0.000 C 
ATOM      4 CL   UNL     1       4.641   7.395  16.936  0.00  0.00    +0.000 Cl
ATOM      5  C   UNL     1       4.357   4.730  17.100  0.00  0.00    +0.000 C 
ATOM      6  C   UNL     1       3.740   3.494  17.683  0.00  0.00    +0.000 C 
ATOM      7  O   UNL     1       3.936   2.381  17.195  0.00  0.00    +0.000 OA
ATOM      8  C   UNL     1       2.875   3.607  18.872  0.00  0.00    +0.000 A 
ATOM      9  C   UNL     1       2.360   2.441  19.467  0.00  0.00    +0.000 A 
ATOM     10  C   UNL     1       1.566   2.509  20.607  0.00  0.00    +0.000 A 
ATOM     11  C   UNL     1       1.278   3.745  21.172  0.00  0.00    +0.000 A 
ATOM     12  C   UNL     1       1.779   4.909  20.582  0.00  0.00    +0.000 A 
ATOM     13  C   UNL     1       2.573   4.855  19.422  0.00  0.00    +0.000 A 
ENDROOT
BRANCH   5  14
ATOM     14  N   UNL     1       5.294   4.566  16.062  0.00  0.00    +0.000 N 
ATOM     15  C   UNL     1       6.731   4.521  16.378  0.00  0.00    +0.000 C 
ATOM     16  C   UNL     1       7.519   5.095  15.201  0.00  0.00    +0.000 C 
ATOM     17  C   UNL     1       7.182   4.375  13.895  0.00  0.00    +0.000 C 
ATOM     18  C   UNL     1       5.671   4.325  13.665  0.00  0.00    +0.000 C 
ATOM     19  C   UNL     1       4.946   3.755  14.883  0.00  0.00    +0.000 C 
ENDBRANCH   5  14
BRANCH   9  20
ATOM     20  O   UNL     1       2.591   1.179  18.987  0.00  0.00    +0.000 OA
ATOM     21  H   UNL     1       1.765   0.848  18.567  0.00  0.00    +0.000 HD
ENDBRANCH   9  20
BRANCH  12  22
ATOM     22  O   UNL     1       1.485   6.103  21.179  0.00  0.00    +0.000 OA
ATOM     23  H   UNL     1       2.293   6.596  21.392  0.00  0.00    +0.000 HD
ENDBRANCH  12  22
TORSDOF 3
ENDMDL
MODEL 3
REMARK VINA RESULT:      -6.2      2.083      3.689
REMARK  Name = 
REMARK  3 active torsions:
REMARK  status: ('A' for Active; 'I' for Inactive)
REMARK    1  A    between atoms: C_5  and  N_6
REMARK    2  A    between atoms: C_15  and  O_16
REMARK    3  A    between atoms: C_19  and  O_20
REMARK                            x       y       z     vdW  Elec       q    Type
REMARK                         _______ _______ _______ _____ _____    ______ ____
ROOT
ATOM      1  O   UNL     1       3.642   2.100  16.782  0.00  0.00    +0.000 OA
ATOM      2  C   UNL     1       3.740   3.082  17.514  0.00  0.00    +0.000 C 
ATOM      3  C   UNL     1       4.887   4.016  17.370  0.00  0.00    +0.000 C 
ATOM      4 CL   UNL     1       5.994   3.660  16.074  0.00  0.00    +0.000 Cl
ATOM      5  C   UNL     1       5.068   5.100  18.142  0.00  0.00    +0.000 C 
ATOM      6  C   UNL     1       4.112   5.338  19.272  0.00  0.00    +0.000 C 
ATOM      7  O   UNL     1       4.284   6.244  20.086  0.00  0.00    +0.000 OA
ATOM      8  C   UNL     1       2.931   4.466  19.417  0.00  0.00    +0.000 A 
ATOM      9  C   UNL     1       1.991   4.736  20.429  0.00  0.00    +0.000 A 
ATOM     10  C   UNL     1       0.851   3.954  20.575  0.00  0.00    +0.000 A 
ATOM     11  C   UNL     1       0.631   2.890  19.709  0.00  0.00    +0.000 A 
ATOM     12  C   UNL     1       1.564   2.609  18.706  0.00  0.00    +0.000 A 
ATOM     13  C   UNL     1       2.727   3.386  18.555  0.00  0.00    +0.000 A 
ENDROOT
BRANCH   5  14
ATOM     14  N   UNL     1       6.096   6.042  17.948  0.00  0.00    +0.000 N 
ATOM     15  C   UNL     1       7.484   5.687  18.289  0.00  0.00    +0.000 C 
ATOM     16  C   UNL     1       8.228   6.947  18.730  0.00  0.00    +0.000 C 
ATOM     17  C   UNL     1       8.146   8.047  17.670  0.00  0.00    +0.000 C 
ATOM     18  C   UNL     1       6.700   8.296  17.243  0.00  0.00    +0.000 C 
ATOM     19  C   UNL     1       6.013   6.996  16.830  0.00  0.00    +0.000 C 
ENDBRANCH   5  14
BRANCH   9  20
ATOM     20  O   UNL     1       2.117   5.763  21.326  0.00  0.00    +0.000 OA
ATOM     21  H   UNL     1       2.034   6.615  20.840  0.00  0.00    +0.000 HD
ENDBRANCH   9  20
BRANCH  12  22
ATOM     22  O   UNL     1       1.301   1.564  17.866  0.00  0.00    +0.000 OA
ATOM     23  H   UNL     1       2.097   1.299  17.379  0.00  0.00    +0.000 HD
ENDBRANCH  12  22
TORSDOF 3
ENDMDL
MODEL 4
REMARK VINA RESULT:      -6.0      2.956      6.199
REMARK  Name = 
REMARK  3 active torsions:
REMARK  status: ('A' for Active; 'I' for Inactive)
REMARK    1  A    between atoms: C_5  and  N_6
REMARK    2  A    between atoms: C_15  and  O_16
REMARK    3  A    between atoms: C_19  and  O_20
REMARK                            x       y       z     vdW  Elec       q    Type
REMARK                         _______ _______ _______ _____ _____    ______ ____
ROOT
ATOM      1  O   UNL     1       2.478   3.039  19.043  0.00  0.00    +0.000 OA
ATOM      2  C   UNL     1       2.774   4.180  18.699  0.00  0.00    +0.000 C 
ATOM      3  C   UNL     1       2.086   5.350  19.305  0.00  0.00    +0.000 C 
ATOM      4 CL   UNL     1       0.928   4.983  20.553  0.00  0.00    +0.000 Cl
ATOM      5  C   UNL     1       2.345   6.625  18.969  0.00  0.00    +0.000 C 
ATOM      6  C   UNL     1       3.318   6.885  17.858  0.00  0.00    +0.000 C 
ATOM      7  O   UNL     1       3.515   8.019  17.423  0.00  0.00    +0.000 OA
ATOM      8  C   UNL     1       4.061   5.757  17.267  0.00  0.00    +0.000 A 
ATOM      9  C   UNL     1       5.031   6.008  16.280  0.00  0.00    +0.000 A 
ATOM     10  C   UNL     1       5.773   4.972  15.723  0.00  0.00    +0.000 A 
ATOM     11  C   UNL     1       5.557   3.667  16.148  0.00  0.00    +0.000 A 
ATOM     12  C   UNL     1       4.589   3.407  17.122  0.00  0.00    +0.000 A 
ATOM     13  C   UNL     1       3.825   4.445  17.685  0.00  0.00    +0.000 A 
ENDROOT
BRANCH   5  14
ATOM     14  N   UNL     1       1.769   7.739  19.608  0.00  0.00    +0.000 N 
ATOM     15  C   UNL     1       1.976   7.938  21.052  0.00  0.00    +0.000 C 
ATOM     16  C   UNL     1       0.754   8.645  21.639  0.00  0.00    +0.000 C 
ATOM     17  C   UNL     1       0.454   9.951  20.902  0.00  0.00    +0.000 C 
ATOM     18  C   UNL     1       0.377   9.729  19.391  0.00  0.00    +0.000 C 
ATOM     19  C   UNL     1       1.620   9.007  18.875  0.00  0.00    +0.000 C 
ENDBRANCH   5  14
BRANCH   9  20
ATOM     20  O   UNL     1       5.318   7.259  15.800  0.00  0.00    +0.000 OA
ATOM     21  H   UNL     1       6.231   7.499  16.082  0.00  0.00    +0.000 HD
ENDBRANCH   9  20
BRANCH  12  22
ATOM     22  O   UNL     1       4.420   2.111  17.522  0.00  0.00    +0.000 OA
ATOM     23  H   UNL     1       4.116   1.555  16.789  0.00  0.00    +0.000 HD
ENDBRANCH  12  22
TORSDOF 3
ENDMDL
MODEL 5
REMARK VINA RESULT:      -6.0      3.256      6.206
REMARK  Name = 
REMARK  3 active torsions:
REMARK  status: ('A' for Active; 'I' for Inactive)
REMARK    1  A    between atoms: C_5  and  N_6
REMARK    2  A    between atoms: C_15  and  O_16
REMARK    3  A    between atoms: C_19  and  O_20
REMARK                            x       y       z     vdW  Elec       q    Type
REMARK                         _______ _______ _______ _____ _____    ______ ____
ROOT
ATOM      1  O   UNL     1       3.358   4.109  20.271  0.00  0.00    +0.000 OA
ATOM      2  C   UNL     1       3.383   5.068  19.505  0.00  0.00    +0.000 C 
ATOM      3  C   UNL     1       2.429   6.195  19.679  0.00  0.00    +0.000 C 
ATOM      4 CL   UNL     1       1.368   6.081  21.055  0.00  0.00    +0.000 Cl
ATOM      5  C   UNL     1       2.387   7.269  18.873  0.00  0.00    +0.000 C 
ATOM      6  C   UNL     1       3.292   7.299  17.678  0.00  0.00    +0.000 C 
ATOM      7  O   UNL     1       3.225   8.195  16.838  0.00  0.00    +0.000 OA
ATOM      8  C   UNL     1       4.290   6.228  17.498  0.00  0.00    +0.000 A 
ATOM      9  C   UNL     1       5.191   6.295  16.420  0.00  0.00    +0.000 A 
ATOM     10  C   UNL     1       6.165   5.320  16.237  0.00  0.00    +0.000 A 
ATOM     11  C   UNL     1       6.255   4.261  17.134  0.00  0.00    +0.000 A 
ATOM     12  C   UNL     1       5.358   4.182  18.203  0.00  0.00    +0.000 A 
ATOM     13  C   UNL     1       4.361   5.156  18.391  0.00  0.00    +0.000 A 
ENDROOT
BRANCH   5  14
ATOM     14  N   UNL     1       1.555   8.383  19.091  0.00  0.00    +0.000 N 
ATOM     15  C   UNL     1       1.511   9.012  20.422  0.00  0.00    +0.000 C 
ATOM     16  C   UNL     1       0.119   9.602  20.649  0.00  0.00    +0.000 C 
ATOM     17  C   UNL     1      -0.270  10.568  19.529  0.00  0.00    +0.000 C 
ATOM     18  C   UNL     1      -0.086   9.925  18.155  0.00  0.00    +0.000 C 
ATOM     19  C   UNL     1       1.319   9.344  18.001  0.00  0.00    +0.000 C 
ENDBRANCH   5  14
BRANCH   9  20
ATOM     20  O   UNL     1       5.185   7.300  15.489  0.00  0.00    +0.000 OA
ATOM     21  H   UNL     1       5.944   7.163  14.877  0.00  0.00    +0.000 HD
ENDBRANCH   9  20
BRANCH  12  22
ATOM     22  O   UNL     1       5.491   3.133  19.069  0.00  0.00    +0.000 OA
ATOM     23  H   UNL     1       5.976   2.400  18.660  0.00  0.00    +0.000 HD
ENDBRANCH  12  22
TORSDOF 3
ENDMDL
MODEL 6
REMARK VINA RESULT:      -5.9      2.706      5.457
REMARK  Name = 
REMARK  3 active torsions:
REMARK  status: ('A' for Active; 'I' for Inactive)
REMARK    1  A    between atoms: C_5  and  N_6
REMARK    2  A    between atoms: C_15  and  O_16
REMARK    3  A    between atoms: C_19  and  O_20
REMARK                            x       y       z     vdW  Elec       q    Type
REMARK                         _______ _______ _______ _____ _____    ______ ____
ROOT
ATOM      1  O   UNL     1       4.822   5.531  16.978  0.00  0.00    +0.000 OA
ATOM      2  C   UNL     1       3.902   5.492  17.790  0.00  0.00    +0.000 C 
ATOM      3  C   UNL     1       3.284   6.749  18.287  0.00  0.00    +0.000 C 
ATOM      4 CL   UNL     1       3.897   8.221  17.587  0.00  0.00    +0.000 Cl
ATOM      5  C   UNL     1       2.285   6.786  19.185  0.00  0.00    +0.000 C 
ATOM      6  C   UNL     1       1.823   5.494  19.790  0.00  0.00    +0.000 C 
ATOM      7  O   UNL     1       0.994   5.465  20.699  0.00  0.00    +0.000 OA
ATOM      8  C   UNL     1       2.372   4.221  19.286  0.00  0.00    +0.000 A 
ATOM      9  C   UNL     1       1.883   3.006  19.798  0.00  0.00    +0.000 A 
ATOM     10  C   UNL     1       2.356   1.786  19.325  0.00  0.00    +0.000 A 
ATOM     11  C   UNL     1       3.324   1.764  18.329  0.00  0.00    +0.000 A 
ATOM     12  C   UNL     1       3.823   2.967  17.821  0.00  0.00    +0.000 A 
ATOM     13  C   UNL     1       3.361   4.207  18.300  0.00  0.00    +0.000 A 
ENDROOT
BRANCH   5  14
ATOM     14  N   UNL     1       1.629   7.966  19.585  0.00  0.00    +0.000 N 
ATOM     15  C   UNL     1       1.707   8.403  20.988  0.00  0.00    +0.000 C 
ATOM     16  C   UNL     1       0.423   9.148  21.352  0.00  0.00    +0.000 C 
ATOM     17  C   UNL     1       0.154  10.306  20.389  0.00  0.00    +0.000 C 
ATOM     18  C   UNL     1       0.212   9.840  18.934  0.00  0.00    +0.000 C 
ATOM     19  C   UNL     1       1.512   9.093  18.645  0.00  0.00    +0.000 C 
ENDBRANCH   5  14
BRANCH   9  20
ATOM     20  O   UNL     1       0.926   2.925  20.775  0.00  0.00    +0.000 OA
ATOM     21  H   UNL     1       1.229   3.447  21.553  0.00  0.00    +0.000 HD
ENDBRANCH   9  20
BRANCH  12  22
ATOM     22  O   UNL     1       4.763   2.901  16.832  0.00  0.00    +0.000 OA
ATOM     23  H   UNL     1       5.577   2.482  17.151  0.00  0.00    +0.000 HD
ENDBRANCH  12  22
TORSDOF 3
ENDMDL
MODEL 7
REMARK VINA RESULT:      -5.9     10.298     13.086
REMARK  Name = 
REMARK  3 active torsions:
REMARK  status: ('A' for Active; 'I' for Inactive)
REMARK    1  A    between atoms: C_5  and  N_6
REMARK    2  A    between atoms: C_15  and  O_16
REMARK    3  A    between atoms: C_19  and  O_20
REMARK                            x       y       z     vdW  Elec       q    Type
REMARK                         _______ _______ _______ _____ _____    ______ ____
ROOT
ATOM      1  O   UNL     1      -1.183  12.198  20.345  0.00  0.00    +0.000 OA
ATOM      2  C   UNL     1      -2.392  12.285  20.153  0.00  0.00    +0.000 C 
ATOM      3  C   UNL     1      -3.287  12.813  21.216  0.00  0.00    +0.000 C 
ATOM      4 CL   UNL     1      -2.496  13.352  22.671  0.00  0.00    +0.000 Cl
ATOM      5  C   UNL     1      -4.620  12.924  21.085  0.00  0.00    +0.000 C 
ATOM      6  C   UNL     1      -5.256  12.405  19.830  0.00  0.00    +0.000 C 
ATOM      7  O   UNL     1      -6.479  12.369  19.692  0.00  0.00    +0.000 OA
ATOM      8  C   UNL     1      -4.401  11.922  18.730  0.00  0.00    +0.000 A 
ATOM      9  C   UNL     1      -4.994  11.508  17.523  0.00  0.00    +0.000 A 
ATOM     10  C   UNL     1      -4.217  11.077  16.453  0.00  0.00    +0.000 A 
ATOM     11  C   UNL     1      -2.833  11.055  16.574  0.00  0.00    +0.000 A 
ATOM     12  C   UNL     1      -2.236  11.456  17.772  0.00  0.00    +0.000 A 
ATOM     13  C   UNL     1      -3.012  11.884  18.865  0.00  0.00    +0.000 A 
ENDROOT
BRANCH   5  14
ATOM     14  N   UNL     1      -5.459  13.514  22.048  0.00  0.00    +0.000 N 
ATOM     15  C   UNL     1      -5.664  12.845  23.344  0.00  0.00    +0.000 C 
ATOM     16  C   UNL     1      -7.065  13.172  23.858  0.00  0.00    +0.000 C 
ATOM     17  C   UNL     1      -7.297  14.682  23.933  0.00  0.00    +0.000 C 
ATOM     18  C   UNL     1      -6.948  15.361  22.608  0.00  0.00    +0.000 C 
ATOM     19  C   UNL     1      -5.543  14.980  22.146  0.00  0.00    +0.000 C 
ENDBRANCH   5  14
BRANCH   9  20
ATOM     20  O   UNL     1      -6.347  11.498  17.307  0.00  0.00    +0.000 OA
ATOM     21  H   UNL     1      -6.756  12.206  17.857  0.00  0.00    +0.000 HD
ENDBRANCH   9  20
BRANCH  12  22
ATOM     22  O   UNL     1      -0.872  11.435  17.843  0.00  0.00    +0.000 OA
ATOM     23  H   UNL     1      -0.571  11.123  18.710  0.00  0.00    +0.000 HD
ENDBRANCH  12  22
TORSDOF 3
ENDMDL
MODEL 8
REMARK VINA RESULT:      -5.9      2.548      4.228
REMARK  Name = 
REMARK  3 active torsions:
REMARK  status: ('A' for Active; 'I' for Inactive)
REMARK    1  A    between atoms: C_5  and  N_6
REMARK    2  A    between atoms: C_15  and  O_16
REMARK    3  A    between atoms: C_19  and  O_20
REMARK                            x       y       z     vdW  Elec       q    Type
REMARK                         _______ _______ _______ _____ _____    ______ ____
ROOT
ATOM      1  O   UNL     1       2.196   5.522  21.181  0.00  0.00    +0.000 OA
ATOM      2  C   UNL     1       2.527   6.089  20.143  0.00  0.00    +0.000 C 
ATOM      3  C   UNL     1       3.521   5.467  19.230  0.00  0.00    +0.000 C 
ATOM      4 CL   UNL     1       4.094   3.890  19.698  0.00  0.00    +0.000 Cl
ATOM      5  C   UNL     1       3.943   6.034  18.087  0.00  0.00    +0.000 C 
ATOM      6  C   UNL     1       3.454   7.411  17.753  0.00  0.00    +0.000 C 
ATOM      7  O   UNL     1       3.887   8.034  16.784  0.00  0.00    +0.000 OA
ATOM      8  C   UNL     1       2.427   8.041  18.603  0.00  0.00    +0.000 A 
ATOM      9  C   UNL     1       1.911   9.300  18.246  0.00  0.00    +0.000 A 
ATOM     10  C   UNL     1       0.920   9.911  19.007  0.00  0.00    +0.000 A 
ATOM     11  C   UNL     1       0.428   9.269  20.137  0.00  0.00    +0.000 A 
ATOM     12  C   UNL     1       0.941   8.022  20.504  0.00  0.00    +0.000 A 
ATOM     13  C   UNL     1       1.952   7.400  19.749  0.00  0.00    +0.000 A 
ENDROOT
BRANCH   5  14
ATOM     14  N   UNL     1       4.808   5.407  17.171  0.00  0.00    +0.000 N 
ATOM     15  C   UNL     1       6.247   5.316  17.471  0.00  0.00    +0.000 C 
ATOM     16  C   UNL     1       7.033   5.340  16.161  0.00  0.00    +0.000 C 
ATOM     17  C   UNL     1       6.562   4.245  15.203  0.00  0.00    +0.000 C 
ATOM     18  C   UNL     1       5.045   4.288  15.018  0.00  0.00    +0.000 C 
ATOM     19  C   UNL     1       4.324   4.274  16.364  0.00  0.00    +0.000 C 
ENDBRANCH   5  14
BRANCH   9  20
ATOM     20  O   UNL     1       2.328  10.008  17.149  0.00  0.00    +0.000 OA
ATOM     21  H   UNL     1       1.593  10.596  16.860  0.00  0.00    +0.000 HD
ENDBRANCH   9  20
BRANCH  12  22
ATOM     22  O   UNL     1       0.419   7.419  21.613  0.00  0.00    +0.000 OA
ATOM     23  H   UNL     1      -0.551   7.451  21.605  0.00  0.00    +0.000 HD
ENDBRANCH  12  22
TORSDOF 3
ENDMDL
MODEL 9
REMARK VINA RESULT:      -5.8     10.202     12.992
REMARK  Name = 
REMARK  3 active torsions:
REMARK  status: ('A' for Active; 'I' for Inactive)
REMARK    1  A    between atoms: C_5  and  N_6
REMARK    2  A    between atoms: C_15  and  O_16
REMARK    3  A    between atoms: C_19  and  O_20
REMARK                            x       y       z     vdW  Elec       q    Type
REMARK                         _______ _______ _______ _____ _____    ______ ____
ROOT
ATOM      1  O   UNL     1      -1.130  11.999  20.394  0.00  0.00    +0.000 OA
ATOM      2  C   UNL     1      -2.320  12.150  20.133  0.00  0.00    +0.000 C 
ATOM      3  C   UNL     1      -3.251  12.694  21.156  0.00  0.00    +0.000 C 
ATOM      4 CL   UNL     1      -2.525  13.156  22.670  0.00  0.00    +0.000 Cl
ATOM      5  C   UNL     1      -4.567  12.873  20.949  0.00  0.00    +0.000 C 
ATOM      6  C   UNL     1      -5.151  12.418  19.646  0.00  0.00    +0.000 C 
ATOM      7  O   UNL     1      -6.363  12.446  19.434  0.00  0.00    +0.000 OA
ATOM      8  C   UNL     1      -4.255  11.923  18.584  0.00  0.00    +0.000 A 
ATOM      9  C   UNL     1      -4.793  11.569  17.333  0.00  0.00    +0.000 A 
ATOM     10  C   UNL     1      -3.974  11.128  16.299  0.00  0.00    +0.000 A 
ATOM     11  C   UNL     1      -2.602  11.036  16.500  0.00  0.00    +0.000 A 
ATOM     12  C   UNL     1      -2.060  11.376  17.743  0.00  0.00    +0.000 A 
ATOM     13  C   UNL     1      -2.879  11.813  18.800  0.00  0.00    +0.000 A 
ENDROOT
BRANCH   5  14
ATOM     14  N   UNL     1      -5.434  13.478  21.878  0.00  0.00    +0.000 N 
ATOM     15  C   UNL     1      -5.821  14.888  21.702  0.00  0.00    +0.000 C 
ATOM     16  C   UNL     1      -6.065  15.514  23.075  0.00  0.00    +0.000 C 
ATOM     17  C   UNL     1      -7.093  14.718  23.880  0.00  0.00    +0.000 C 
ATOM     18  C   UNL     1      -6.728  13.235  23.930  0.00  0.00    +0.000 C 
ATOM     19  C   UNL     1      -6.484  12.678  22.529  0.00  0.00    +0.000 C 
ENDBRANCH   5  14
BRANCH   9  20
ATOM     20  O   UNL     1      -6.129  11.631  17.038  0.00  0.00    +0.000 OA
ATOM     21  H   UNL     1      -6.631  11.210  17.772  0.00  0.00    +0.000 HD
ENDBRANCH   9  20
BRANCH  12  22
ATOM     22  O   UNL     1      -0.705  11.286  17.893  0.00  0.00    +0.000 OA
ATOM     23  H   UNL     1      -0.442  10.394  18.171  0.00  0.00    +0.000 HD
ENDBRANCH  12  22
TORSDOF 3
ENDMDL
