MODEL 1
REMARK VINA RESULT:      -7.9      0.000      0.000
REMARK  Name = 
REMARK  7 active torsions:
REMARK  status: ('A' for Active; 'I' for Inactive)
REMARK    1  A    between atoms: C_1  and  O_2
REMARK    2  A    between atoms: O_2  and  C_3
REMARK    3  A    between atoms: C_3  and  C_5
REMARK    4  A    between atoms: C_5  and  N_15
REMARK    5  A    between atoms: C_6  and  C_7
REMARK    6  A    between atoms: C_10  and  N_11
REMARK    7  A    between atoms: C_16  and  C_18
REMARK                            x       y       z     vdW  Elec       q    Type
REMARK                         _______ _______ _______ _____ _____    ______ ____
ROOT
ATOM      1  C   UNL     1       5.515   4.120  16.554  0.00  0.00    +0.000 C 
ATOM      2  C   UNL     1       5.151   3.938  15.268  0.00  0.00    +0.000 C 
ENDROOT
BRANCH   2   3
ATOM      3  C   UNL     1       5.963   4.166  14.126  0.00  0.00    +0.000 A 
ATOM      4  C   UNL     1       6.079   3.375  12.982  0.00  0.00    +0.000 A 
ATOM      5  C   UNL     1       7.068   3.952  12.143  0.00  0.00    +0.000 A 
ATOM      6  C   UNL     1       7.500   5.060  12.823  0.00  0.00    +0.000 A 
ATOM      7  O   UNL     1       6.877   5.190  14.018  0.00  0.00    +0.000 OA
BRANCH   6   8
ATOM      8  N   UNL     1       8.481   6.049  12.510  0.00  0.00    +0.000 N 
ATOM      9  O   UNL     1       9.430   6.147  13.303  0.00  0.00    +0.000 OA
ATOM     10  O   UNL     1       8.314   6.737  11.494  0.00  0.00    +0.000 OA
ENDBRANCH   6   8
ENDBRANCH   2   3
BRANCH   1  11
ATOM     11  N   UNL     1       4.722   3.730  17.640  0.00  0.00    +0.000 N 
ATOM     12  C   UNL     1       3.559   4.322  18.106  0.00  0.00    +0.000 C 
ATOM     13  O   UNL     1       3.025   5.312  17.622  0.00  0.00    +0.000 OA
ATOM     14  H   UNL     1       5.074   2.909  18.124  0.00  0.00    +0.000 HD
BRANCH  12  15
ATOM     15  C   UNL     1       2.937   3.729  19.322  0.00  0.00    +0.000 A 
ATOM     16  C   UNL     1       1.572   3.980  19.534  0.00  0.00    +0.000 A 
ATOM     17  C   UNL     1       0.923   3.473  20.660  0.00  0.00    +0.000 A 
ATOM     18  C   UNL     1       1.632   2.702  21.577  0.00  0.00    +0.000 A 
ATOM     19  C   UNL     1       2.983   2.424  21.361  0.00  0.00    +0.000 A 
ATOM     20  C   UNL     1       3.639   2.931  20.234  0.00  0.00    +0.000 A 
ENDBRANCH  12  15
ENDBRANCH   1  11
BRANCH   1  21
ATOM     21  C   UNL     1       6.810   4.819  16.915  0.00  0.00    +0.000 C 
ATOM     22  O   UNL     1       7.918   4.308  16.943  0.00  0.00    +0.000 OA
BRANCH  21  24
ATOM     23  C   UNL     1       7.561   6.848  17.843  0.00  0.00    +0.000 C 
ATOM     24  O   UNL     1       6.551   6.147  17.109  0.00  0.00    +0.000 OA
ENDBRANCH  21  24
ENDBRANCH   1  21
TORSDOF 6
ENDMDL
MODEL 2
REMARK VINA RESULT:      -7.7      2.490      7.918
REMARK  Name = 
REMARK  7 active torsions:
REMARK  status: ('A' for Active; 'I' for Inactive)
REMARK    1  A    between atoms: C_1  and  O_2
REMARK    2  A    between atoms: O_2  and  C_3
REMARK    3  A    between atoms: C_3  and  C_5
REMARK    4  A    between atoms: C_5  and  N_15
REMARK    5  A    between atoms: C_6  and  C_7
REMARK    6  A    between atoms: C_10  and  N_11
REMARK    7  A    between atoms: C_16  and  C_18
REMARK                            x       y       z     vdW  Elec       q    Type
REMARK                         _______ _______ _______ _____ _____    ______ ____
ROOT
ATOM      1  C   UNL     1       4.079   4.235  17.023  0.00  0.00    +0.000 C 
ATOM      2  C   UNL     1       3.285   3.191  17.333  0.00  0.00    +0.000 C 
ENDROOT
BRANCH   2   3
ATOM      3  C   UNL     1       2.416   3.102  18.454  0.00  0.00    +0.000 A 
ATOM      4  C   UNL     1       1.074   3.475  18.532  0.00  0.00    +0.000 A 
ATOM      5  C   UNL     1       0.638   3.282  19.868  0.00  0.00    +0.000 A 
ATOM      6  C   UNL     1       1.738   2.804  20.530  0.00  0.00    +0.000 A 
ATOM      7  O   UNL     1       2.815   2.716  19.714  0.00  0.00    +0.000 OA
BRANCH   6   8
ATOM      8  N   UNL     1       1.943   2.423  21.890  0.00  0.00    +0.000 N 
ATOM      9  O   UNL     1       3.105   2.120  22.203  0.00  0.00    +0.000 OA
ATOM     10  O   UNL     1       0.964   2.409  22.647  0.00  0.00    +0.000 OA
ENDBRANCH   6   8
ENDBRANCH   2   3
BRANCH   1  11
ATOM     11  N   UNL     1       4.795   4.326  15.823  0.00  0.00    +0.000 N 
ATOM     12  C   UNL     1       6.167   4.270  15.639  0.00  0.00    +0.000 C 
ATOM     13  O   UNL     1       6.996   4.125  16.529  0.00  0.00    +0.000 OA
ATOM     14  H   UNL     1       4.202   4.451  15.008  0.00  0.00    +0.000 HD
BRANCH  12  15
ATOM     15  C   UNL     1       6.672   4.446  14.249  0.00  0.00    +0.000 A 
ATOM     16  C   UNL     1       6.149   3.597  13.261  0.00  0.00    +0.000 A 
ATOM     17  C   UNL     1       6.586   3.690  11.940  0.00  0.00    +0.000 A 
ATOM     18  C   UNL     1       7.543   4.641  11.595  0.00  0.00    +0.000 A 
ATOM     19  C   UNL     1       8.049   5.508  12.564  0.00  0.00    +0.000 A 
ATOM     20  C   UNL     1       7.615   5.419  13.891  0.00  0.00    +0.000 A 
ENDBRANCH  12  15
ENDBRANCH   1  11
BRANCH   1  21
ATOM     21  C   UNL     1       4.295   5.378  17.995  0.00  0.00    +0.000 C 
ATOM     22  O   UNL     1       5.121   5.412  18.892  0.00  0.00    +0.000 OA
BRANCH  21  24
ATOM     23  C   UNL     1       2.643   6.901  18.698  0.00  0.00    +0.000 C 
ATOM     24  O   UNL     1       3.476   6.413  17.640  0.00  0.00    +0.000 OA
ENDBRANCH  21  24
ENDBRANCH   1  21
TORSDOF 6
ENDMDL
MODEL 3
REMARK VINA RESULT:      -7.7      0.177      1.211
REMARK  Name = 
REMARK  7 active torsions:
REMARK  status: ('A' for Active; 'I' for Inactive)
REMARK    1  A    between atoms: C_1  and  O_2
REMARK    2  A    between atoms: O_2  and  C_3
REMARK    3  A    between atoms: C_3  and  C_5
REMARK    4  A    between atoms: C_5  and  N_15
REMARK    5  A    between atoms: C_6  and  C_7
REMARK    6  A    between atoms: C_10  and  N_11
REMARK    7  A    between atoms: C_16  and  C_18
REMARK                            x       y       z     vdW  Elec       q    Type
REMARK                         _______ _______ _______ _____ _____    ______ ____
ROOT
ATOM      1  C   UNL     1       5.368   4.144  16.518  0.00  0.00    +0.000 C 
ATOM      2  C   UNL     1       5.045   3.973  15.220  0.00  0.00    +0.000 C 
ENDROOT
BRANCH   2   3
ATOM      3  C   UNL     1       5.903   4.184  14.108  0.00  0.00    +0.000 A 
ATOM      4  C   UNL     1       6.062   3.378  12.980  0.00  0.00    +0.000 A 
ATOM      5  C   UNL     1       7.083   3.941  12.173  0.00  0.00    +0.000 A 
ATOM      6  C   UNL     1       7.492   5.057  12.854  0.00  0.00    +0.000 A 
ATOM      7  O   UNL     1       6.823   5.205  14.022  0.00  0.00    +0.000 OA
BRANCH   6   8
ATOM      8  N   UNL     1       8.486   6.040  12.566  0.00  0.00    +0.000 N 
ATOM      9  O   UNL     1       8.306   6.716  11.542  0.00  0.00    +0.000 OA
ATOM     10  O   UNL     1       9.450   6.140  13.337  0.00  0.00    +0.000 OA
ENDBRANCH   6   8
ENDBRANCH   2   3
BRANCH   1  11
ATOM     11  N   UNL     1       4.529   3.771  17.575  0.00  0.00    +0.000 N 
ATOM     12  C   UNL     1       3.477   4.486  18.125  0.00  0.00    +0.000 C 
ATOM     13  O   UNL     1       3.105   5.594  17.758  0.00  0.00    +0.000 OA
ATOM     14  H   UNL     1       4.748   2.858  17.963  0.00  0.00    +0.000 HD
BRANCH  12  15
ATOM     15  C   UNL     1       2.775   3.873  19.286  0.00  0.00    +0.000 A 
ATOM     16  C   UNL     1       3.556   3.157  20.206  0.00  0.00    +0.000 A 
ATOM     17  C   UNL     1       2.968   2.540  21.310  0.00  0.00    +0.000 A 
ATOM     18  C   UNL     1       1.593   2.643  21.506  0.00  0.00    +0.000 A 
ATOM     19  C   UNL     1       0.811   3.375  20.612  0.00  0.00    +0.000 A 
ATOM     20  C   UNL     1       1.397   3.995  19.503  0.00  0.00    +0.000 A 
ENDBRANCH  12  15
ENDBRANCH   1  11
BRANCH   1  21
ATOM     21  C   UNL     1       6.667   4.811  16.926  0.00  0.00    +0.000 C 
ATOM     22  O   UNL     1       7.776   4.303  16.894  0.00  0.00    +0.000 OA
BRANCH  21  24
ATOM     23  C   UNL     1       7.573   6.934  17.390  0.00  0.00    +0.000 C 
ATOM     24  O   UNL     1       6.407   6.114  17.244  0.00  0.00    +0.000 OA
ENDBRANCH  21  24
ENDBRANCH   1  21
TORSDOF 6
ENDMDL
MODEL 4
REMARK VINA RESULT:      -7.5      0.911      1.119
REMARK  Name = 
REMARK  7 active torsions:
REMARK  status: ('A' for Active; 'I' for Inactive)
REMARK    1  A    between atoms: C_1  and  O_2
REMARK    2  A    between atoms: O_2  and  C_3
REMARK    3  A    between atoms: C_3  and  C_5
REMARK    4  A    between atoms: C_5  and  N_15
REMARK    5  A    between atoms: C_6  and  C_7
REMARK    6  A    between atoms: C_10  and  N_11
REMARK    7  A    between atoms: C_16  and  C_18
REMARK                            x       y       z     vdW  Elec       q    Type
REMARK                         _______ _______ _______ _____ _____    ______ ____
ROOT
ATOM      1  C   UNL     1       5.359   4.387  16.767  0.00  0.00    +0.000 C 
ATOM      2  C   UNL     1       4.977   4.255  15.480  0.00  0.00    +0.000 C 
ENDROOT
BRANCH   2   3
ATOM      3  C   UNL     1       5.820   4.353  14.341  0.00  0.00    +0.000 A 
ATOM      4  C   UNL     1       5.938   3.455  13.280  0.00  0.00    +0.000 A 
ATOM      5  C   UNL     1       6.959   3.924  12.413  0.00  0.00    +0.000 A 
ATOM      6  C   UNL     1       7.407   5.080  12.995  0.00  0.00    +0.000 A 
ATOM      7  O   UNL     1       6.763   5.339  14.158  0.00  0.00    +0.000 OA
BRANCH   6   8
ATOM      8  N   UNL     1       8.421   6.010  12.613  0.00  0.00    +0.000 N 
ATOM      9  O   UNL     1       8.224   6.629  11.557  0.00  0.00    +0.000 OA
ATOM     10  O   UNL     1       9.415   6.123  13.343  0.00  0.00    +0.000 OA
ENDBRANCH   6   8
ENDBRANCH   2   3
BRANCH   1  11
ATOM     11  N   UNL     1       4.513   4.125  17.850  0.00  0.00    +0.000 N 
ATOM     12  C   UNL     1       3.902   2.929  18.190  0.00  0.00    +0.000 C 
ATOM     13  O   UNL     1       4.015   1.876  17.573  0.00  0.00    +0.000 OA
ATOM     14  H   UNL     1       4.345   4.937  18.437  0.00  0.00    +0.000 HD
BRANCH  12  15
ATOM     15  C   UNL     1       3.002   2.939  19.375  0.00  0.00    +0.000 A 
ATOM     16  C   UNL     1       1.675   3.350  19.172  0.00  0.00    +0.000 A 
ATOM     17  C   UNL     1       0.776   3.402  20.237  0.00  0.00    +0.000 A 
ATOM     18  C   UNL     1       1.196   3.035  21.513  0.00  0.00    +0.000 A 
ATOM     19  C   UNL     1       2.506   2.600  21.721  0.00  0.00    +0.000 A 
ATOM     20  C   UNL     1       3.411   2.546  20.656  0.00  0.00    +0.000 A 
ENDBRANCH  12  15
ENDBRANCH   1  11
BRANCH   1  21
ATOM     21  C   UNL     1       6.744   4.885  17.130  0.00  0.00    +0.000 C 
ATOM     22  O   UNL     1       7.801   4.358  16.822  0.00  0.00    +0.000 OA
BRANCH  21  24
ATOM     23  C   UNL     1       7.581   7.070  17.389  0.00  0.00    +0.000 C 
ATOM     24  O   UNL     1       6.621   6.081  17.780  0.00  0.00    +0.000 OA
ENDBRANCH  21  24
ENDBRANCH   1  21
TORSDOF 6
ENDMDL
MODEL 5
REMARK VINA RESULT:      -7.5      0.866      1.316
REMARK  Name = 
REMARK  7 active torsions:
REMARK  status: ('A' for Active; 'I' for Inactive)
REMARK    1  A    between atoms: C_1  and  O_2
REMARK    2  A    between atoms: O_2  and  C_3
REMARK    3  A    between atoms: C_3  and  C_5
REMARK    4  A    between atoms: C_5  and  N_15
REMARK    5  A    between atoms: C_6  and  C_7
REMARK    6  A    between atoms: C_10  and  N_11
REMARK    7  A    between atoms: C_16  and  C_18
REMARK                            x       y       z     vdW  Elec       q    Type
REMARK                         _______ _______ _______ _____ _____    ______ ____
ROOT
ATOM      1  C   UNL     1       5.251   4.491  16.694  0.00  0.00    +0.000 C 
ATOM      2  C   UNL     1       4.911   4.263  15.409  0.00  0.00    +0.000 C 
ENDROOT
BRANCH   2   3
ATOM      3  C   UNL     1       5.775   4.347  14.285  0.00  0.00    +0.000 A 
ATOM      4  C   UNL     1       5.927   3.426  13.248  0.00  0.00    +0.000 A 
ATOM      5  C   UNL     1       6.959   3.888  12.392  0.00  0.00    +0.000 A 
ATOM      6  C   UNL     1       7.381   5.064  12.955  0.00  0.00    +0.000 A 
ATOM      7  O   UNL     1       6.710   5.341  14.099  0.00  0.00    +0.000 OA
BRANCH   6   8
ATOM      8  N   UNL     1       8.390   5.998  12.573  0.00  0.00    +0.000 N 
ATOM      9  O   UNL     1       9.359   6.100  13.340  0.00  0.00    +0.000 OA
ATOM     10  O   UNL     1       8.225   6.641  11.527  0.00  0.00    +0.000 OA
ENDBRANCH   6   8
ENDBRANCH   2   3
BRANCH   1  11
ATOM     11  N   UNL     1       4.394   4.241  17.772  0.00  0.00    +0.000 N 
ATOM     12  C   UNL     1       3.816   3.038  18.145  0.00  0.00    +0.000 C 
ATOM     13  O   UNL     1       3.973   1.969  17.569  0.00  0.00    +0.000 OA
ATOM     14  H   UNL     1       4.190   5.067  18.326  0.00  0.00    +0.000 HD
BRANCH  12  15
ATOM     15  C   UNL     1       2.894   3.062  19.313  0.00  0.00    +0.000 A 
ATOM     16  C   UNL     1       3.387   2.571  20.533  0.00  0.00    +0.000 A 
ATOM     17  C   UNL     1       2.578   2.545  21.668  0.00  0.00    +0.000 A 
ATOM     18  C   UNL     1       1.271   3.020  21.595  0.00  0.00    +0.000 A 
ATOM     19  C   UNL     1       0.779   3.535  20.394  0.00  0.00    +0.000 A 
ATOM     20  C   UNL     1       1.587   3.563  19.253  0.00  0.00    +0.000 A 
ENDBRANCH  12  15
ENDBRANCH   1  11
BRANCH   1  21
ATOM     21  C   UNL     1       6.594   5.091  17.059  0.00  0.00    +0.000 C 
ATOM     22  O   UNL     1       7.676   4.532  16.982  0.00  0.00    +0.000 OA
BRANCH  21  24
ATOM     23  C   UNL     1       7.612   7.178  17.448  0.00  0.00    +0.000 C 
ATOM     24  O   UNL     1       6.409   6.403  17.397  0.00  0.00    +0.000 OA
ENDBRANCH  21  24
ENDBRANCH   1  21
TORSDOF 6
ENDMDL
MODEL 6
REMARK VINA RESULT:      -7.4      2.475      7.899
REMARK  Name = 
REMARK  7 active torsions:
REMARK  status: ('A' for Active; 'I' for Inactive)
REMARK    1  A    between atoms: C_1  and  O_2
REMARK    2  A    between atoms: O_2  and  C_3
REMARK    3  A    between atoms: C_3  and  C_5
REMARK    4  A    between atoms: C_5  and  N_15
REMARK    5  A    between atoms: C_6  and  C_7
REMARK    6  A    between atoms: C_10  and  N_11
REMARK    7  A    between atoms: C_16  and  C_18
REMARK                            x       y       z     vdW  Elec       q    Type
REMARK                         _______ _______ _______ _____ _____    ______ ____
ROOT
ATOM      1  C   UNL     1       4.047   4.226  16.975  0.00  0.00    +0.000 C 
ATOM      2  C   UNL     1       3.294   3.160  17.314  0.00  0.00    +0.000 C 
ENDROOT
BRANCH   2   3
ATOM      3  C   UNL     1       2.425   3.068  18.433  0.00  0.00    +0.000 A 
ATOM      4  C   UNL     1       1.081   3.436  18.509  0.00  0.00    +0.000 A 
ATOM      5  C   UNL     1       0.643   3.242  19.845  0.00  0.00    +0.000 A 
ATOM      6  C   UNL     1       1.745   2.770  20.509  0.00  0.00    +0.000 A 
ATOM      7  O   UNL     1       2.824   2.687  19.694  0.00  0.00    +0.000 OA
BRANCH   6   8
ATOM      8  N   UNL     1       1.950   2.392  21.870  0.00  0.00    +0.000 N 
ATOM      9  O   UNL     1       0.954   2.448  22.608  0.00  0.00    +0.000 OA
ATOM     10  O   UNL     1       3.088   2.051  22.217  0.00  0.00    +0.000 OA
ENDBRANCH   6   8
ENDBRANCH   2   3
BRANCH   1  11
ATOM     11  N   UNL     1       4.764   4.312  15.776  0.00  0.00    +0.000 N 
ATOM     12  C   UNL     1       6.135   4.227  15.591  0.00  0.00    +0.000 C 
ATOM     13  O   UNL     1       6.960   4.057  16.480  0.00  0.00    +0.000 OA
ATOM     14  H   UNL     1       4.175   4.456  14.962  0.00  0.00    +0.000 HD
BRANCH  12  15
ATOM     15  C   UNL     1       6.644   4.404  14.203  0.00  0.00    +0.000 A 
ATOM     16  C   UNL     1       6.121   3.556  13.213  0.00  0.00    +0.000 A 
ATOM     17  C   UNL     1       6.561   3.650  11.893  0.00  0.00    +0.000 A 
ATOM     18  C   UNL     1       7.521   4.599  11.551  0.00  0.00    +0.000 A 
ATOM     19  C   UNL     1       8.028   5.464  12.522  0.00  0.00    +0.000 A 
ATOM     20  C   UNL     1       7.590   5.374  13.848  0.00  0.00    +0.000 A 
ENDBRANCH  12  15
ENDBRANCH   1  11
BRANCH   1  21
ATOM     21  C   UNL     1       4.211   5.405  17.914  0.00  0.00    +0.000 C 
ATOM     22  O   UNL     1       3.765   6.528  17.741  0.00  0.00    +0.000 OA
BRANCH  21  24
ATOM     23  C   UNL     1       6.189   5.487  19.188  0.00  0.00    +0.000 C 
ATOM     24  O   UNL     1       4.858   4.981  19.041  0.00  0.00    +0.000 OA
ENDBRANCH  21  24
ENDBRANCH   1  21
TORSDOF 6
ENDMDL
MODEL 7
REMARK VINA RESULT:      -7.4      0.789      1.065
REMARK  Name = 
REMARK  7 active torsions:
REMARK  status: ('A' for Active; 'I' for Inactive)
REMARK    1  A    between atoms: C_1  and  O_2
REMARK    2  A    between atoms: O_2  and  C_3
REMARK    3  A    between atoms: C_3  and  C_5
REMARK    4  A    between atoms: C_5  and  N_15
REMARK    5  A    between atoms: C_6  and  C_7
REMARK    6  A    between atoms: C_10  and  N_11
REMARK    7  A    between atoms: C_16  and  C_18
REMARK                            x       y       z     vdW  Elec       q    Type
REMARK                         _______ _______ _______ _____ _____    ______ ____
ROOT
ATOM      1  C   UNL     1       5.096   4.561  16.376  0.00  0.00    +0.000 C 
ATOM      2  C   UNL     1       5.184   3.796  15.270  0.00  0.00    +0.000 C 
ENDROOT
BRANCH   2   3
ATOM      3  C   UNL     1       5.956   4.081  14.112  0.00  0.00    +0.000 A 
ATOM      4  C   UNL     1       6.008   3.364  12.916  0.00  0.00    +0.000 A 
ATOM      5  C   UNL     1       6.976   3.973  12.076  0.00  0.00    +0.000 A 
ATOM      6  C   UNL     1       7.462   5.024  12.808  0.00  0.00    +0.000 A 
ATOM      7  O   UNL     1       6.890   5.089  14.034  0.00  0.00    +0.000 OA
BRANCH   6   8
ATOM      8  N   UNL     1       8.454   6.009  12.520  0.00  0.00    +0.000 N 
ATOM      9  O   UNL     1       9.400   6.082  13.319  0.00  0.00    +0.000 OA
ATOM     10  O   UNL     1       8.298   6.720  11.518  0.00  0.00    +0.000 OA
ENDBRANCH   6   8
ENDBRANCH   2   3
BRANCH   1  11
ATOM     11  N   UNL     1       4.441   4.151  17.544  0.00  0.00    +0.000 N 
ATOM     12  C   UNL     1       3.164   3.630  17.671  0.00  0.00    +0.000 C 
ATOM     13  O   UNL     1       2.382   3.440  16.747  0.00  0.00    +0.000 OA
ATOM     14  H   UNL     1       5.002   4.266  18.383  0.00  0.00    +0.000 HD
BRANCH  12  15
ATOM     15  C   UNL     1       2.691   3.321  19.048  0.00  0.00    +0.000 A 
ATOM     16  C   UNL     1       1.328   3.520  19.321  0.00  0.00    +0.000 A 
ATOM     17  C   UNL     1       0.814   3.269  20.593  0.00  0.00    +0.000 A 
ATOM     18  C   UNL     1       1.658   2.807  21.600  0.00  0.00    +0.000 A 
ATOM     19  C   UNL     1       3.008   2.580  21.331  0.00  0.00    +0.000 A 
ATOM     20  C   UNL     1       3.529   2.830  20.057  0.00  0.00    +0.000 A 
ENDBRANCH  12  15
ENDBRANCH   1  11
BRANCH   1  21
ATOM     21  C   UNL     1       5.668   5.964  16.412  0.00  0.00    +0.000 C 
ATOM     22  O   UNL     1       5.147   6.964  15.946  0.00  0.00    +0.000 OA
BRANCH  21  24
ATOM     23  C   UNL     1       7.330   7.242  17.483  0.00  0.00    +0.000 C 
ATOM     24  O   UNL     1       6.823   5.946  17.143  0.00  0.00    +0.000 OA
ENDBRANCH  21  24
ENDBRANCH   1  21
TORSDOF 6
ENDMDL
MODEL 8
REMARK VINA RESULT:      -7.4      2.791      7.724
REMARK  Name = 
REMARK  7 active torsions:
REMARK  status: ('A' for Active; 'I' for Inactive)
REMARK    1  A    between atoms: C_1  and  O_2
REMARK    2  A    between atoms: O_2  and  C_3
REMARK    3  A    between atoms: C_3  and  C_5
REMARK    4  A    between atoms: C_5  and  N_15
REMARK    5  A    between atoms: C_6  and  C_7
REMARK    6  A    between atoms: C_10  and  N_11
REMARK    7  A    between atoms: C_16  and  C_18
REMARK                            x       y       z     vdW  Elec       q    Type
REMARK                         _______ _______ _______ _____ _____    ______ ____
ROOT
ATOM      1  C   UNL     1       4.353   5.028  17.638  0.00  0.00    +0.000 C 
ATOM      2  C   UNL     1       3.121   5.558  17.774  0.00  0.00    +0.000 C 
ENDROOT
BRANCH   2   3
ATOM      3  C   UNL     1       2.535   6.020  18.983  0.00  0.00    +0.000 A 
ATOM      4  C   UNL     1       2.002   5.260  20.024  0.00  0.00    +0.000 A 
ATOM      5  C   UNL     1       1.455   6.147  20.987  0.00  0.00    +0.000 A 
ATOM      6  C   UNL     1       1.683   7.399  20.477  0.00  0.00    +0.000 A 
ATOM      7  O   UNL     1       2.298   7.345  19.272  0.00  0.00    +0.000 OA
BRANCH   6   8
ATOM      8  N   UNL     1       1.369   8.701  20.969  0.00  0.00    +0.000 N 
ATOM      9  O   UNL     1       1.444   8.854  22.197  0.00  0.00    +0.000 OA
ATOM     10  O   UNL     1       1.037   9.570  20.152  0.00  0.00    +0.000 OA
ENDBRANCH   6   8
ENDBRANCH   2   3
BRANCH   1  11
ATOM     11  N   UNL     1       4.932   4.735  16.398  0.00  0.00    +0.000 N 
ATOM     12  C   UNL     1       6.008   5.358  15.787  0.00  0.00    +0.000 C 
ATOM     13  O   UNL     1       6.644   6.294  16.257  0.00  0.00    +0.000 OA
ATOM     14  H   UNL     1       4.479   3.967  15.912  0.00  0.00    +0.000 HD
BRANCH  12  15
ATOM     15  C   UNL     1       6.390   4.878  14.431  0.00  0.00    +0.000 A 
ATOM     16  C   UNL     1       5.570   3.905  13.838  0.00  0.00    +0.000 A 
ATOM     17  C   UNL     1       5.872   3.393  12.576  0.00  0.00    +0.000 A 
ATOM     18  C   UNL     1       6.994   3.858  11.894  0.00  0.00    +0.000 A 
ATOM     19  C   UNL     1       7.801   4.844  12.464  0.00  0.00    +0.000 A 
ATOM     20  C   UNL     1       7.502   5.360  13.729  0.00  0.00    +0.000 A 
ENDBRANCH  12  15
ENDBRANCH   1  11
BRANCH   1  21
ATOM     21  C   UNL     1       5.190   4.660  18.847  0.00  0.00    +0.000 C 
ATOM     22  O   UNL     1       5.639   5.437  19.673  0.00  0.00    +0.000 OA
BRANCH  21  24
ATOM     23  C   UNL     1       4.381   2.692  19.856  0.00  0.00    +0.000 C 
ATOM     24  O   UNL     1       5.279   3.297  18.919  0.00  0.00    +0.000 OA
ENDBRANCH  21  24
ENDBRANCH   1  21
TORSDOF 6
ENDMDL
MODEL 9
REMARK VINA RESULT:      -7.4      3.779      5.121
REMARK  Name = 
REMARK  7 active torsions:
REMARK  status: ('A' for Active; 'I' for Inactive)
REMARK    1  A    between atoms: C_1  and  O_2
REMARK    2  A    between atoms: O_2  and  C_3
REMARK    3  A    between atoms: C_3  and  C_5
REMARK    4  A    between atoms: C_5  and  N_15
REMARK    5  A    between atoms: C_6  and  C_7
REMARK    6  A    between atoms: C_10  and  N_11
REMARK    7  A    between atoms: C_16  and  C_18
REMARK                            x       y       z     vdW  Elec       q    Type
REMARK                         _______ _______ _______ _____ _____    ______ ____
ROOT
ATOM      1  C   UNL     1       3.460   6.367  18.395  0.00  0.00    +0.000 C 
ATOM      2  C   UNL     1       4.687   6.721  17.961  0.00  0.00    +0.000 C 
ENDROOT
BRANCH   2   3
ATOM      3  C   UNL     1       5.607   5.884  17.275  0.00  0.00    +0.000 A 
ATOM      4  C   UNL     1       6.593   5.062  17.822  0.00  0.00    +0.000 A 
ATOM      5  C   UNL     1       7.324   4.477  16.756  0.00  0.00    +0.000 A 
ATOM      6  C   UNL     1       6.745   4.977  15.619  0.00  0.00    +0.000 A 
ATOM      7  O   UNL     1       5.740   5.839  15.906  0.00  0.00    +0.000 OA
BRANCH   6   8
ATOM      8  N   UNL     1       7.028   4.774  14.235  0.00  0.00    +0.000 N 
ATOM      9  O   UNL     1       7.891   5.515  13.740  0.00  0.00    +0.000 OA
ATOM     10  O   UNL     1       6.395   3.898  13.631  0.00  0.00    +0.000 OA
ENDBRANCH   6   8
ENDBRANCH   2   3
BRANCH   1  11
ATOM     11  N   UNL     1       2.540   7.279  18.926  0.00  0.00    +0.000 N 
ATOM     12  C   UNL     1       2.049   8.436  18.343  0.00  0.00    +0.000 C 
ATOM     13  O   UNL     1       2.352   8.854  17.232  0.00  0.00    +0.000 OA
ATOM     14  H   UNL     1       2.217   7.032  19.856  0.00  0.00    +0.000 HD
BRANCH  12  15
ATOM     15  C   UNL     1       1.110   9.259  19.155  0.00  0.00    +0.000 A 
ATOM     16  C   UNL     1       1.024   8.972  20.527  0.00  0.00    +0.000 A 
ATOM     17  C   UNL     1       0.155   9.688  21.349  0.00  0.00    +0.000 A 
ATOM     18  C   UNL     1      -0.629  10.704  20.807  0.00  0.00    +0.000 A 
ATOM     19  C   UNL     1      -0.531  11.014  19.450  0.00  0.00    +0.000 A 
ATOM     20  C   UNL     1       0.339  10.299  18.621  0.00  0.00    +0.000 A 
ENDBRANCH  12  15
ENDBRANCH   1  11
BRANCH   1  21
ATOM     21  C   UNL     1       3.005   4.922  18.382  0.00  0.00    +0.000 C 
ATOM     22  O   UNL     1       2.512   4.332  17.434  0.00  0.00    +0.000 OA
BRANCH  21  24
ATOM     23  C   UNL     1       3.949   3.063  19.477  0.00  0.00    +0.000 C 
ATOM     24  O   UNL     1       3.330   4.351  19.580  0.00  0.00    +0.000 OA
ENDBRANCH  21  24
ENDBRANCH   1  21
TORSDOF 6
ENDMDL
