MODEL 1
REMARK VINA RESULT:      -6.7      0.000      0.000
REMARK  Name = 
REMARK  9 active torsions:
REMARK  status: ('A' for Active; 'I' for Inactive)
REMARK    1  A    between atoms: C_1  and  C_2
REMARK    2  A    between atoms: C_2  and  C_3
REMARK    3  A    between atoms: C_2  and  N_4
REMARK    4  A    between atoms: C_5  and  C_7
REMARK    5  A    between atoms: C_7  and  C_8
REMARK    6  A    between atoms: C_10  and  C_11
REMARK    7  A    between atoms: C_14  and  N_15
REMARK    8  A    between atoms: N_15  and  C_16
REMARK    9  A    between atoms: N_15  and  C_17
REMARK                            x       y       z     vdW  Elec       q    Type
REMARK                         _______ _______ _______ _____ _____    ______ ____
ROOT
ATOM      1  C   UNL     1       6.033   4.423  15.692  0.00  0.00    +0.000 C 
ATOM      2  C   UNL     1       4.742   4.408  16.080  0.00  0.00    +0.000 C 
ENDROOT
BRANCH   2   3
ATOM      3  C   UNL     1       4.302   4.479  17.438  0.00  0.00    +0.000 A 
ATOM      4  C   UNL     1       4.001   5.612  18.183  0.00  0.00    +0.000 A 
ATOM      5  C   UNL     1       3.680   5.197  19.498  0.00  0.00    +0.000 A 
ATOM      6  C   UNL     1       3.774   3.824  19.518  0.00  0.00    +0.000 A 
ATOM      7  O   UNL     1       4.141   3.397  18.276  0.00  0.00    +0.000 OA
BRANCH   6   8
ATOM      8  N   UNL     1       3.587   2.897  20.489  0.00  0.00    +0.000 N 
ATOM      9  C   UNL     1       4.546   1.835  20.734  0.00  0.00    +0.000 C 
ATOM     10  C   UNL     1       2.408   2.903  21.343  0.00  0.00    +0.000 C 
ENDBRANCH   6   8
ENDBRANCH   2   3
BRANCH   1  12
ATOM     11  N   UNL     1       5.484   3.658  13.429  0.00  0.00    +0.000 N 
ATOM     12  C   UNL     1       6.309   4.447  14.210  0.00  0.00    +0.000 C 
ATOM     13  O   UNL     1       7.225   5.116  13.737  0.00  0.00    +0.000 OA
ATOM     14  H   UNL     1       4.788   3.062  13.862  0.00  0.00    +0.000 HD
BRANCH  11  16
ATOM     15  C   UNL     1       6.547   2.255  11.710  0.00  0.00    +0.000 C 
ATOM     16  C   UNL     1       5.677   3.479  11.993  0.00  0.00    +0.000 C 
ATOM     17  C   UNL     1       4.325   3.332  11.300  0.00  0.00    +0.000 C 
ENDBRANCH  11  16
ENDBRANCH   1  12
BRANCH   1  18
ATOM     18  C   UNL     1       7.134   4.437  16.587  0.00  0.00    +0.000 C 
ATOM     19  N   UNL     1       8.036   4.330  17.312  0.00  0.00    +0.000 NA
ENDBRANCH   1  18
TORSDOF 5
ENDMDL
MODEL 2
REMARK VINA RESULT:      -6.3      1.090      1.284
REMARK  Name = 
REMARK  9 active torsions:
REMARK  status: ('A' for Active; 'I' for Inactive)
REMARK    1  A    between atoms: C_1  and  C_2
REMARK    2  A    between atoms: C_2  and  C_3
REMARK    3  A    between atoms: C_2  and  N_4
REMARK    4  A    between atoms: C_5  and  C_7
REMARK    5  A    between atoms: C_7  and  C_8
REMARK    6  A    between atoms: C_10  and  C_11
REMARK    7  A    between atoms: C_14  and  N_15
REMARK    8  A    between atoms: N_15  and  C_16
REMARK    9  A    between atoms: N_15  and  C_17
REMARK                            x       y       z     vdW  Elec       q    Type
REMARK                         _______ _______ _______ _____ _____    ______ ____
ROOT
ATOM      1  C   UNL     1       6.331   4.612  16.134  0.00  0.00    +0.000 C 
ATOM      2  C   UNL     1       4.991   4.702  16.250  0.00  0.00    +0.000 C 
ENDROOT
BRANCH   2   3
ATOM      3  C   UNL     1       4.293   4.855  17.489  0.00  0.00    +0.000 A 
ATOM      4  C   UNL     1       4.224   5.981  18.300  0.00  0.00    +0.000 A 
ATOM      5  C   UNL     1       3.480   5.641  19.455  0.00  0.00    +0.000 A 
ATOM      6  C   UNL     1       3.099   4.326  19.312  0.00  0.00    +0.000 A 
ATOM      7  O   UNL     1       3.583   3.860  18.126  0.00  0.00    +0.000 OA
BRANCH   6   8
ATOM      8  N   UNL     1       2.387   3.478  20.094  0.00  0.00    +0.000 N 
ATOM      9  C   UNL     1       1.892   2.206  19.599  0.00  0.00    +0.000 C 
ATOM     10  C   UNL     1       2.066   3.793  21.479  0.00  0.00    +0.000 C 
ENDBRANCH   6   8
ENDBRANCH   2   3
BRANCH   1  12
ATOM     11  N   UNL     1       6.277   3.692  13.863  0.00  0.00    +0.000 N 
ATOM     12  C   UNL     1       6.902   4.560  14.739  0.00  0.00    +0.000 C 
ATOM     13  O   UNL     1       7.874   5.239  14.416  0.00  0.00    +0.000 OA
ATOM     14  H   UNL     1       5.526   3.093  14.186  0.00  0.00    +0.000 HD
BRANCH  11  16
ATOM     15  C   UNL     1       5.718   2.681  11.691  0.00  0.00    +0.000 C 
ATOM     16  C   UNL     1       6.763   3.437  12.509  0.00  0.00    +0.000 C 
ATOM     17  C   UNL     1       7.111   4.756  11.824  0.00  0.00    +0.000 C 
ENDBRANCH  11  16
ENDBRANCH   1  12
BRANCH   1  18
ATOM     18  C   UNL     1       7.226   4.583  17.234  0.00  0.00    +0.000 C 
ATOM     19  N   UNL     1       7.914   4.451  18.163  0.00  0.00    +0.000 NA
ENDBRANCH   1  18
TORSDOF 5
ENDMDL
MODEL 3
REMARK VINA RESULT:      -6.2      1.372      1.930
REMARK  Name = 
REMARK  9 active torsions:
REMARK  status: ('A' for Active; 'I' for Inactive)
REMARK    1  A    between atoms: C_1  and  C_2
REMARK    2  A    between atoms: C_2  and  C_3
REMARK    3  A    between atoms: C_2  and  N_4
REMARK    4  A    between atoms: C_5  and  C_7
REMARK    5  A    between atoms: C_7  and  C_8
REMARK    6  A    between atoms: C_10  and  C_11
REMARK    7  A    between atoms: C_14  and  N_15
REMARK    8  A    between atoms: N_15  and  C_16
REMARK    9  A    between atoms: N_15  and  C_17
REMARK                            x       y       z     vdW  Elec       q    Type
REMARK                         _______ _______ _______ _____ _____    ______ ____
ROOT
ATOM      1  C   UNL     1       6.062   4.814  15.542  0.00  0.00    +0.000 C 
ATOM      2  C   UNL     1       5.058   4.093  16.082  0.00  0.00    +0.000 C 
ENDROOT
BRANCH   2   3
ATOM      3  C   UNL     1       4.614   4.209  17.435  0.00  0.00    +0.000 A 
ATOM      4  C   UNL     1       5.105   3.554  18.558  0.00  0.00    +0.000 A 
ATOM      5  C   UNL     1       4.308   3.929  19.666  0.00  0.00    +0.000 A 
ATOM      6  C   UNL     1       3.365   4.817  19.197  0.00  0.00    +0.000 A 
ATOM      7  O   UNL     1       3.558   4.987  17.858  0.00  0.00    +0.000 OA
BRANCH   6   8
ATOM      8  N   UNL     1       2.351   5.490  19.793  0.00  0.00    +0.000 N 
ATOM      9  C   UNL     1       1.275   4.806  20.486  0.00  0.00    +0.000 C 
ATOM     10  C   UNL     1       2.273   6.944  19.769  0.00  0.00    +0.000 C 
ENDBRANCH   6   8
ENDBRANCH   2   3
BRANCH   1  12
ATOM     11  N   UNL     1       5.421   3.846  13.383  0.00  0.00    +0.000 N 
ATOM     12  C   UNL     1       6.326   4.635  14.068  0.00  0.00    +0.000 C 
ATOM     13  O   UNL     1       7.300   5.150  13.522  0.00  0.00    +0.000 OA
ATOM     14  H   UNL     1       4.673   3.378  13.881  0.00  0.00    +0.000 HD
BRANCH  11  16
ATOM     15  C   UNL     1       6.446   2.229  11.839  0.00  0.00    +0.000 C 
ATOM     16  C   UNL     1       5.582   3.482  11.978  0.00  0.00    +0.000 C 
ATOM     17  C   UNL     1       4.215   3.249  11.340  0.00  0.00    +0.000 C 
ENDBRANCH  11  16
ENDBRANCH   1  12
BRANCH   1  18
ATOM     18  C   UNL     1       6.863   5.733  16.268  0.00  0.00    +0.000 C 
ATOM     19  N   UNL     1       7.557   6.527  16.758  0.00  0.00    +0.000 NA
ENDBRANCH   1  18
TORSDOF 5
ENDMDL
MODEL 4
REMARK VINA RESULT:      -6.1      1.139      1.704
REMARK  Name = 
REMARK  9 active torsions:
REMARK  status: ('A' for Active; 'I' for Inactive)
REMARK    1  A    between atoms: C_1  and  C_2
REMARK    2  A    between atoms: C_2  and  C_3
REMARK    3  A    between atoms: C_2  and  N_4
REMARK    4  A    between atoms: C_5  and  C_7
REMARK    5  A    between atoms: C_7  and  C_8
REMARK    6  A    between atoms: C_10  and  C_11
REMARK    7  A    between atoms: C_14  and  N_15
REMARK    8  A    between atoms: N_15  and  C_16
REMARK    9  A    between atoms: N_15  and  C_17
REMARK                            x       y       z     vdW  Elec       q    Type
REMARK                         _______ _______ _______ _____ _____    ______ ____
ROOT
ATOM      1  C   UNL     1       6.070   4.239  15.825  0.00  0.00    +0.000 C 
ATOM      2  C   UNL     1       4.795   3.991  16.190  0.00  0.00    +0.000 C 
ENDROOT
BRANCH   2   3
ATOM      3  C   UNL     1       4.334   3.943  17.542  0.00  0.00    +0.000 A 
ATOM      4  C   UNL     1       4.836   3.185  18.592  0.00  0.00    +0.000 A 
ATOM      5  C   UNL     1       4.015   3.410  19.724  0.00  0.00    +0.000 A 
ATOM      6  C   UNL     1       3.048   4.313  19.343  0.00  0.00    +0.000 A 
ATOM      7  O   UNL     1       3.248   4.635  18.033  0.00  0.00    +0.000 OA
BRANCH   6   8
ATOM      8  N   UNL     1       2.006   4.883  19.995  0.00  0.00    +0.000 N 
ATOM      9  C   UNL     1       1.989   6.296  20.332  0.00  0.00    +0.000 C 
ATOM     10  C   UNL     1       0.840   4.115  20.405  0.00  0.00    +0.000 C 
ENDBRANCH   6   8
ENDBRANCH   2   3
BRANCH   1  12
ATOM     11  N   UNL     1       5.630   3.516  13.525  0.00  0.00    +0.000 N 
ATOM     12  C   UNL     1       6.356   4.356  14.349  0.00  0.00    +0.000 C 
ATOM     13  O   UNL     1       7.196   5.141  13.918  0.00  0.00    +0.000 OA
ATOM     14  H   UNL     1       5.000   2.829  13.922  0.00  0.00    +0.000 HD
BRANCH  11  16
ATOM     15  C   UNL     1       6.804   2.268  11.758  0.00  0.00    +0.000 C 
ATOM     16  C   UNL     1       5.855   3.421  12.085  0.00  0.00    +0.000 C 
ATOM     17  C   UNL     1       4.525   3.227  11.361  0.00  0.00    +0.000 C 
ENDBRANCH  11  16
ENDBRANCH   1  12
BRANCH   1  18
ATOM     18  C   UNL     1       7.141   4.411  16.739  0.00  0.00    +0.000 C 
ATOM     19  N   UNL     1       8.070   4.457  17.437  0.00  0.00    +0.000 NA
ENDBRANCH   1  18
TORSDOF 5
ENDMDL
MODEL 5
REMARK VINA RESULT:      -6.0      1.941      2.440
REMARK  Name = 
REMARK  9 active torsions:
REMARK  status: ('A' for Active; 'I' for Inactive)
REMARK    1  A    between atoms: C_1  and  C_2
REMARK    2  A    between atoms: C_2  and  C_3
REMARK    3  A    between atoms: C_2  and  N_4
REMARK    4  A    between atoms: C_5  and  C_7
REMARK    5  A    between atoms: C_7  and  C_8
REMARK    6  A    between atoms: C_10  and  C_11
REMARK    7  A    between atoms: C_14  and  N_15
REMARK    8  A    between atoms: N_15  and  C_16
REMARK    9  A    between atoms: N_15  and  C_17
REMARK                            x       y       z     vdW  Elec       q    Type
REMARK                         _______ _______ _______ _____ _____    ______ ____
ROOT
ATOM      1  C   UNL     1       5.290   4.714  16.239  0.00  0.00    +0.000 C 
ATOM      2  C   UNL     1       4.687   3.590  16.677  0.00  0.00    +0.000 C 
ENDROOT
BRANCH   2   3
ATOM      3  C   UNL     1       3.537   3.565  17.526  0.00  0.00    +0.000 A 
ATOM      4  C   UNL     1       2.251   3.144  17.213  0.00  0.00    +0.000 A 
ATOM      5  C   UNL     1       1.431   3.370  18.345  0.00  0.00    +0.000 A 
ATOM      6  C   UNL     1       2.239   3.903  19.323  0.00  0.00    +0.000 A 
ATOM      7  O   UNL     1       3.505   4.012  18.829  0.00  0.00    +0.000 OA
BRANCH   6   8
ATOM      8  N   UNL     1       2.006   4.315  20.593  0.00  0.00    +0.000 N 
ATOM      9  C   UNL     1       1.685   5.696  20.908  0.00  0.00    +0.000 C 
ATOM     10  C   UNL     1       2.070   3.401  21.724  0.00  0.00    +0.000 C 
ENDBRANCH   6   8
ENDBRANCH   2   3
BRANCH   1  12
ATOM     11  N   UNL     1       6.075   4.223  13.970  0.00  0.00    +0.000 N 
ATOM     12  C   UNL     1       6.430   4.552  15.265  0.00  0.00    +0.000 C 
ATOM     13  O   UNL     1       7.599   4.690  15.615  0.00  0.00    +0.000 OA
ATOM     14  H   UNL     1       5.105   4.044  13.735  0.00  0.00    +0.000 HD
BRANCH  11  16
ATOM     15  C   UNL     1       6.433   3.049  11.837  0.00  0.00    +0.000 C 
ATOM     16  C   UNL     1       7.052   3.924  12.926  0.00  0.00    +0.000 C 
ATOM     17  C   UNL     1       7.579   5.222  12.319  0.00  0.00    +0.000 C 
ENDBRANCH  11  16
ENDBRANCH   1  12
BRANCH   1  18
ATOM     18  C   UNL     1       4.907   6.025  16.623  0.00  0.00    +0.000 C 
ATOM     19  N   UNL     1       4.492   7.051  16.978  0.00  0.00    +0.000 NA
ENDBRANCH   1  18
TORSDOF 5
ENDMDL
MODEL 6
REMARK VINA RESULT:      -5.9      2.762      3.665
REMARK  Name = 
REMARK  9 active torsions:
REMARK  status: ('A' for Active; 'I' for Inactive)
REMARK    1  A    between atoms: C_1  and  C_2
REMARK    2  A    between atoms: C_2  and  C_3
REMARK    3  A    between atoms: C_2  and  N_4
REMARK    4  A    between atoms: C_5  and  C_7
REMARK    5  A    between atoms: C_7  and  C_8
REMARK    6  A    between atoms: C_10  and  C_11
REMARK    7  A    between atoms: C_14  and  N_15
REMARK    8  A    between atoms: N_15  and  C_16
REMARK    9  A    between atoms: N_15  and  C_17
REMARK                            x       y       z     vdW  Elec       q    Type
REMARK                         _______ _______ _______ _____ _____    ______ ____
ROOT
ATOM      1  C   UNL     1       5.946   5.676  16.591  0.00  0.00    +0.000 C 
ATOM      2  C   UNL     1       4.759   5.181  16.995  0.00  0.00    +0.000 C 
ENDROOT
BRANCH   2   3
ATOM      3  C   UNL     1       3.896   5.815  17.942  0.00  0.00    +0.000 A 
ATOM      4  C   UNL     1       3.406   5.299  19.135  0.00  0.00    +0.000 A 
ATOM      5  C   UNL     1       2.535   6.261  19.701  0.00  0.00    +0.000 A 
ATOM      6  C   UNL     1       2.531   7.345  18.853  0.00  0.00    +0.000 A 
ATOM      7  O   UNL     1       3.356   7.075  17.801  0.00  0.00    +0.000 OA
BRANCH   6   8
ATOM      8  N   UNL     1       1.889   8.538  18.878  0.00  0.00    +0.000 N 
ATOM      9  C   UNL     1       1.124   8.977  20.032  0.00  0.00    +0.000 C 
ATOM     10  C   UNL     1       1.920   9.453  17.747  0.00  0.00    +0.000 C 
ENDBRANCH   6   8
ENDBRANCH   2   3
BRANCH   1  12
ATOM     11  N   UNL     1       5.969   4.720  14.334  0.00  0.00    +0.000 N 
ATOM     12  C   UNL     1       6.674   4.924  15.505  0.00  0.00    +0.000 C 
ATOM     13  O   UNL     1       7.819   4.507  15.668  0.00  0.00    +0.000 OA
ATOM     14  H   UNL     1       5.001   5.012  14.263  0.00  0.00    +0.000 HD
BRANCH  11  16
ATOM     15  C   UNL     1       5.332   3.340  12.398  0.00  0.00    +0.000 C 
ATOM     16  C   UNL     1       6.480   3.921  13.223  0.00  0.00    +0.000 C 
ATOM     17  C   UNL     1       7.381   4.778  12.337  0.00  0.00    +0.000 C 
ENDBRANCH  11  16
ENDBRANCH   1  12
BRANCH   1  18
ATOM     18  C   UNL     1       6.534   6.859  17.108  0.00  0.00    +0.000 C 
ATOM     19  N   UNL     1       7.038   7.859  17.419  0.00  0.00    +0.000 NA
ENDBRANCH   1  18
TORSDOF 5
ENDMDL
MODEL 7
REMARK VINA RESULT:      -5.9      1.387      1.653
REMARK  Name = 
REMARK  9 active torsions:
REMARK  status: ('A' for Active; 'I' for Inactive)
REMARK    1  A    between atoms: C_1  and  C_2
REMARK    2  A    between atoms: C_2  and  C_3
REMARK    3  A    between atoms: C_2  and  N_4
REMARK    4  A    between atoms: C_5  and  C_7
REMARK    5  A    between atoms: C_7  and  C_8
REMARK    6  A    between atoms: C_10  and  C_11
REMARK    7  A    between atoms: C_14  and  N_15
REMARK    8  A    between atoms: N_15  and  C_16
REMARK    9  A    between atoms: N_15  and  C_17
REMARK                            x       y       z     vdW  Elec       q    Type
REMARK                         _______ _______ _______ _____ _____    ______ ____
ROOT
ATOM      1  C   UNL     1       6.093   5.116  16.164  0.00  0.00    +0.000 C 
ATOM      2  C   UNL     1       4.790   4.776  16.247  0.00  0.00    +0.000 C 
ENDROOT
BRANCH   2   3
ATOM      3  C   UNL     1       3.954   5.039  17.376  0.00  0.00    +0.000 A 
ATOM      4  C   UNL     1       3.667   6.266  17.963  0.00  0.00    +0.000 A 
ATOM      5  C   UNL     1       2.853   6.027  19.096  0.00  0.00    +0.000 A 
ATOM      6  C   UNL     1       2.647   4.667  19.161  0.00  0.00    +0.000 A 
ATOM      7  O   UNL     1       3.304   4.079  18.121  0.00  0.00    +0.000 OA
BRANCH   6   8
ATOM      8  N   UNL     1       1.963   3.875  20.021  0.00  0.00    +0.000 N 
ATOM      9  C   UNL     1       2.181   3.926  21.456  0.00  0.00    +0.000 C 
ATOM     10  C   UNL     1       0.969   2.916  19.560  0.00  0.00    +0.000 C 
ENDBRANCH   6   8
ENDBRANCH   2   3
BRANCH   1  12
ATOM     11  N   UNL     1       6.108   4.064  13.950  0.00  0.00    +0.000 N 
ATOM     12  C   UNL     1       6.793   4.854  14.855  0.00  0.00    +0.000 C 
ATOM     13  O   UNL     1       7.912   5.306  14.622  0.00  0.00    +0.000 OA
ATOM     14  H   UNL     1       5.220   3.647  14.206  0.00  0.00    +0.000 HD
BRANCH  11  16
ATOM     15  C   UNL     1       5.637   2.890  11.840  0.00  0.00    +0.000 C 
ATOM     16  C   UNL     1       6.681   3.623  12.681  0.00  0.00    +0.000 C 
ATOM     17  C   UNL     1       7.226   4.824  11.911  0.00  0.00    +0.000 C 
ENDBRANCH  11  16
ENDBRANCH   1  12
BRANCH   1  18
ATOM     18  C   UNL     1       6.828   5.715  17.219  0.00  0.00    +0.000 C 
ATOM     19  N   UNL     1       7.491   6.103  18.091  0.00  0.00    +0.000 NA
ENDBRANCH   1  18
TORSDOF 5
ENDMDL
MODEL 8
REMARK VINA RESULT:      -5.8      1.603      1.950
REMARK  Name = 
REMARK  9 active torsions:
REMARK  status: ('A' for Active; 'I' for Inactive)
REMARK    1  A    between atoms: C_1  and  C_2
REMARK    2  A    between atoms: C_2  and  C_3
REMARK    3  A    between atoms: C_2  and  N_4
REMARK    4  A    between atoms: C_5  and  C_7
REMARK    5  A    between atoms: C_7  and  C_8
REMARK    6  A    between atoms: C_10  and  C_11
REMARK    7  A    between atoms: C_14  and  N_15
REMARK    8  A    between atoms: N_15  and  C_16
REMARK    9  A    between atoms: N_15  and  C_17
REMARK                            x       y       z     vdW  Elec       q    Type
REMARK                         _______ _______ _______ _____ _____    ______ ____
ROOT
ATOM      1  C   UNL     1       6.136   4.882  15.894  0.00  0.00    +0.000 C 
ATOM      2  C   UNL     1       5.377   3.879  16.381  0.00  0.00    +0.000 C 
ENDROOT
BRANCH   2   3
ATOM      3  C   UNL     1       4.636   3.943  17.602  0.00  0.00    +0.000 A 
ATOM      4  C   UNL     1       5.100   4.270  18.870  0.00  0.00    +0.000 A 
ATOM      5  C   UNL     1       4.022   4.131  19.778  0.00  0.00    +0.000 A 
ATOM      6  C   UNL     1       2.927   3.742  19.041  0.00  0.00    +0.000 A 
ATOM      7  O   UNL     1       3.299   3.638  17.733  0.00  0.00    +0.000 OA
BRANCH   6   8
ATOM      8  N   UNL     1       1.643   3.459  19.370  0.00  0.00    +0.000 N 
ATOM      9  C   UNL     1       0.941   4.175  20.420  0.00  0.00    +0.000 C 
ATOM     10  C   UNL     1       0.888   2.413  18.695  0.00  0.00    +0.000 C 
ENDBRANCH   6   8
ENDBRANCH   2   3
BRANCH   1  12
ATOM     11  N   UNL     1       6.167   3.724  13.734  0.00  0.00    +0.000 N 
ATOM     12  C   UNL     1       6.764   4.677  14.538  0.00  0.00    +0.000 C 
ATOM     13  O   UNL     1       7.755   5.312  14.186  0.00  0.00    +0.000 OA
ATOM     14  H   UNL     1       5.397   3.167  14.086  0.00  0.00    +0.000 HD
BRANCH  11  16
ATOM     15  C   UNL     1       5.687   2.494  11.658  0.00  0.00    +0.000 C 
ATOM     16  C   UNL     1       6.707   3.323  12.437  0.00  0.00    +0.000 C 
ATOM     17  C   UNL     1       7.103   4.559  11.633  0.00  0.00    +0.000 C 
ENDBRANCH  11  16
ENDBRANCH   1  12
BRANCH   1  18
ATOM     18  C   UNL     1       6.360   6.111  16.566  0.00  0.00    +0.000 C 
ATOM     19  N   UNL     1       6.544   7.170  17.010  0.00  0.00    +0.000 NA
ENDBRANCH   1  18
TORSDOF 5
ENDMDL
MODEL 9
REMARK VINA RESULT:      -5.7      1.405      2.119
REMARK  Name = 
REMARK  9 active torsions:
REMARK  status: ('A' for Active; 'I' for Inactive)
REMARK    1  A    between atoms: C_1  and  C_2
REMARK    2  A    between atoms: C_2  and  C_3
REMARK    3  A    between atoms: C_2  and  N_4
REMARK    4  A    between atoms: C_5  and  C_7
REMARK    5  A    between atoms: C_7  and  C_8
REMARK    6  A    between atoms: C_10  and  C_11
REMARK    7  A    between atoms: C_14  and  N_15
REMARK    8  A    between atoms: N_15  and  C_16
REMARK    9  A    between atoms: N_15  and  C_17
REMARK                            x       y       z     vdW  Elec       q    Type
REMARK                         _______ _______ _______ _____ _____    ______ ____
ROOT
ATOM      1  C   UNL     1       6.352   4.347  16.138  0.00  0.00    +0.000 C 
ATOM      2  C   UNL     1       5.041   4.112  16.348  0.00  0.00    +0.000 C 
ENDROOT
BRANCH   2   3
ATOM      3  C   UNL     1       4.416   4.093  17.633  0.00  0.00    +0.000 A 
ATOM      4  C   UNL     1       4.532   3.131  18.629  0.00  0.00    +0.000 A 
ATOM      5  C   UNL     1       3.676   3.501  19.694  0.00  0.00    +0.000 A 
ATOM      6  C   UNL     1       3.075   4.685  19.332  0.00  0.00    +0.000 A 
ATOM      7  O   UNL     1       3.528   5.041  18.096  0.00  0.00    +0.000 OA
BRANCH   6   8
ATOM      8  N   UNL     1       2.173   5.491  19.943  0.00  0.00    +0.000 N 
ATOM      9  C   UNL     1       1.049   4.959  20.692  0.00  0.00    +0.000 C 
ATOM     10  C   UNL     1       2.270   6.942  19.881  0.00  0.00    +0.000 C 
ENDBRANCH   6   8
ENDBRANCH   2   3
BRANCH   1  12
ATOM     11  N   UNL     1       6.208   3.566  13.819  0.00  0.00    +0.000 N 
ATOM     12  C   UNL     1       6.819   4.432  14.707  0.00  0.00    +0.000 C 
ATOM     13  O   UNL     1       7.702   5.216  14.364  0.00  0.00    +0.000 OA
ATOM     14  H   UNL     1       5.537   2.883  14.152  0.00  0.00    +0.000 HD
BRANCH  11  16
ATOM     15  C   UNL     1       5.420   3.057  11.545  0.00  0.00    +0.000 C 
ATOM     16  C   UNL     1       6.611   3.441  12.421  0.00  0.00    +0.000 C 
ATOM     17  C   UNL     1       7.218   4.754  11.934  0.00  0.00    +0.000 C 
ENDBRANCH  11  16
ENDBRANCH   1  12
BRANCH   1  18
ATOM     18  C   UNL     1       7.303   4.534  17.174  0.00  0.00    +0.000 C 
ATOM     19  N   UNL     1       8.049   4.580  18.065  0.00  0.00    +0.000 NA
ENDBRANCH   1  18
TORSDOF 5
ENDMDL
