MODEL 1
REMARK VINA RESULT:      -8.3      0.000      0.000
REMARK  Name = 
REMARK  7 active torsions:
REMARK  status: ('A' for Active; 'I' for Inactive)
REMARK    1  A    between atoms: C_1  and  O_2
REMARK    2  A    between atoms: O_2  and  C_3
REMARK    3  A    between atoms: C_3  and  C_4
REMARK    4  A    between atoms: N_6  and  C_7
REMARK    5  A    between atoms: C_7  and  C_8
REMARK    6  A    between atoms: C_14  and  S_15
REMARK    7  A    between atoms: S_15  and  C_18
REMARK                            x       y       z     vdW  Elec       q    Type
REMARK                         _______ _______ _______ _____ _____    ______ ____
ROOT
ATOM      1  C   UNL     1       1.727   4.533  19.734  0.00  0.00    +0.000 C 
ATOM      2  C   UNL     1       1.561   3.106  20.292  0.00  0.00    +0.000 C 
ATOM      3  C   UNL     1       2.812   2.660  21.042  0.00  0.00    +0.000 C 
ATOM      4  C   UNL     1       4.013   2.620  20.104  0.00  0.00    +0.000 C 
ATOM      5  C   UNL     1       4.120   3.818  19.191  0.00  0.00    +0.000 A 
ATOM      6  C   UNL     1       5.325   4.029  18.503  0.00  0.00    +0.000 A 
ATOM      7  C   UNL     1       5.440   5.084  17.593  0.00  0.00    +0.000 A 
ATOM      8  C   UNL     1       4.345   5.899  17.308  0.00  0.00    +0.000 A 
ATOM      9  C   UNL     1       3.145   5.694  17.991  0.00  0.00    +0.000 A 
ATOM     10  C   UNL     1       3.024   4.670  18.949  0.00  0.00    +0.000 A 
ENDROOT
BRANCH   7  11
ATOM     11  S   UNL     1       6.982   5.327  16.737  0.00  0.00    +0.000 S 
ATOM     12  O   UNL     1       7.256   6.750  16.735  0.00  0.00    +0.000 OA
ATOM     13  O   UNL     1       7.948   4.398  17.305  0.00  0.00    +0.000 OA
BRANCH  11  14
ATOM     14  C   UNL     1       6.724   4.836  15.045  0.00  0.00    +0.000 A 
ATOM     15  C   UNL     1       5.794   3.834  14.749  0.00  0.00    +0.000 A 
ATOM     16  C   UNL     1       5.645   3.395  13.430  0.00  0.00    +0.000 A 
ATOM     17  C   UNL     1       6.428   3.953  12.420  0.00  0.00    +0.000 A 
ATOM     18  C   UNL     1       7.354   4.943  12.732  0.00  0.00    +0.000 A 
ATOM     19  F   UNL     1       8.108   5.468  11.757  0.00  0.00    +0.000 F 
ATOM     20  C   UNL     1       7.517   5.391  14.040  0.00  0.00    +0.000 A 
ENDBRANCH  11  14
ENDBRANCH   7  11
BRANCH   1  21
ATOM     21  C   UNL     1       1.688   5.595  20.855  0.00  0.00    +0.000 C 
BRANCH  21  24
ATOM     22  C   UNL     1       1.213   8.018  20.829  0.00  0.00    +0.000 C 
ATOM     23  O   UNL     1       0.357   7.942  21.708  0.00  0.00    +0.000 OA
ATOM     24  N   UNL     1       1.934   6.939  20.371  0.00  0.00    +0.000 N 
ATOM     25  H   UNL     1       2.645   7.098  19.666  0.00  0.00    +0.000 HD
BRANCH  22  26
ATOM     26  C   UNL     1       1.554   9.332  20.121  0.00  0.00    +0.000 C 
BRANCH  26  28
ATOM     27  C   UNL     1       1.853   9.431  17.781  0.00  0.00    +0.000 C 
ATOM     28  O   UNL     1       0.916   9.476  18.855  0.00  0.00    +0.000 OA
ENDBRANCH  26  28
ENDBRANCH  22  26
ENDBRANCH  21  24
ENDBRANCH   1  21
TORSDOF 6
ENDMDL
MODEL 2
REMARK VINA RESULT:      -8.3      1.112      1.437
REMARK  Name = 
REMARK  7 active torsions:
REMARK  status: ('A' for Active; 'I' for Inactive)
REMARK    1  A    between atoms: C_1  and  O_2
REMARK    2  A    between atoms: O_2  and  C_3
REMARK    3  A    between atoms: C_3  and  C_4
REMARK    4  A    between atoms: N_6  and  C_7
REMARK    5  A    between atoms: C_7  and  C_8
REMARK    6  A    between atoms: C_14  and  S_15
REMARK    7  A    between atoms: S_15  and  C_18
REMARK                            x       y       z     vdW  Elec       q    Type
REMARK                         _______ _______ _______ _____ _____    ______ ____
ROOT
ATOM      1  C   UNL     1       1.764   4.978  19.290  0.00  0.00    +0.000 C 
ATOM      2  C   UNL     1       1.324   3.529  19.572  0.00  0.00    +0.000 C 
ATOM      3  C   UNL     1       2.451   2.726  20.213  0.00  0.00    +0.000 C 
ATOM      4  C   UNL     1       3.648   2.639  19.273  0.00  0.00    +0.000 C 
ATOM      5  C   UNL     1       3.998   3.945  18.600  0.00  0.00    +0.000 A 
ATOM      6  C   UNL     1       5.238   4.054  17.953  0.00  0.00    +0.000 A 
ATOM      7  C   UNL     1       5.569   5.219  17.255  0.00  0.00    +0.000 A 
ATOM      8  C   UNL     1       4.650   6.262  17.139  0.00  0.00    +0.000 A 
ATOM      9  C   UNL     1       3.416   6.160  17.783  0.00  0.00    +0.000 A 
ATOM     10  C   UNL     1       3.084   5.016  18.533  0.00  0.00    +0.000 A 
ENDROOT
BRANCH   7  11
ATOM     11  S   UNL     1       7.151   5.326  16.446  0.00  0.00    +0.000 S 
ATOM     12  O   UNL     1       7.530   6.725  16.420  0.00  0.00    +0.000 OA
ATOM     13  O   UNL     1       8.027   4.344  17.067  0.00  0.00    +0.000 OA
BRANCH  11  14
ATOM     14  C   UNL     1       6.910   4.813  14.758  0.00  0.00    +0.000 A 
ATOM     15  C   UNL     1       7.866   5.143  13.791  0.00  0.00    +0.000 A 
ATOM     16  C   UNL     1       7.641   4.807  12.453  0.00  0.00    +0.000 A 
ATOM     17  C   UNL     1       6.465   4.152  12.089  0.00  0.00    +0.000 A 
ATOM     18  C   UNL     1       5.521   3.838  13.062  0.00  0.00    +0.000 A 
ATOM     19  F   UNL     1       4.391   3.215  12.703  0.00  0.00    +0.000 F 
ATOM     20  C   UNL     1       5.728   4.166  14.399  0.00  0.00    +0.000 A 
ENDBRANCH  11  14
ENDBRANCH   7  11
BRANCH   1  21
ATOM     21  C   UNL     1       1.893   5.802  20.591  0.00  0.00    +0.000 C 
BRANCH  21  24
ATOM     22  C   UNL     1       1.028   8.102  20.828  0.00  0.00    +0.000 C 
ATOM     23  O   UNL     1       0.076   7.760  21.526  0.00  0.00    +0.000 OA
ATOM     24  N   UNL     1       1.979   7.229  20.353  0.00  0.00    +0.000 N 
ATOM     25  H   UNL     1       2.750   7.603  19.810  0.00  0.00    +0.000 HD
BRANCH  22  26
ATOM     26  C   UNL     1       1.245   9.551  20.383  0.00  0.00    +0.000 C 
BRANCH  26  28
ATOM     27  C   UNL     1      -0.387  10.209  18.810  0.00  0.00    +0.000 C 
ATOM     28  O   UNL     1       0.956   9.771  19.005  0.00  0.00    +0.000 OA
ENDBRANCH  26  28
ENDBRANCH  22  26
ENDBRANCH  21  24
ENDBRANCH   1  21
TORSDOF 6
ENDMDL
MODEL 3
REMARK VINA RESULT:      -8.2      1.555      1.874
REMARK  Name = 
REMARK  7 active torsions:
REMARK  status: ('A' for Active; 'I' for Inactive)
REMARK    1  A    between atoms: C_1  and  O_2
REMARK    2  A    between atoms: O_2  and  C_3
REMARK    3  A    between atoms: C_3  and  C_4
REMARK    4  A    between atoms: N_6  and  C_7
REMARK    5  A    between atoms: C_7  and  C_8
REMARK    6  A    between atoms: C_14  and  S_15
REMARK    7  A    between atoms: S_15  and  C_18
REMARK                            x       y       z     vdW  Elec       q    Type
REMARK                         _______ _______ _______ _____ _____    ______ ____
ROOT
ATOM      1  C   UNL     1       1.615   4.329  18.744  0.00  0.00    +0.000 C 
ATOM      2  C   UNL     1       1.075   2.901  18.538  0.00  0.00    +0.000 C 
ATOM      3  C   UNL     1       2.122   1.857  18.910  0.00  0.00    +0.000 C 
ATOM      4  C   UNL     1       3.350   1.988  18.016  0.00  0.00    +0.000 C 
ATOM      5  C   UNL     1       3.807   3.411  17.804  0.00  0.00    +0.000 A 
ATOM      6  C   UNL     1       5.078   3.631  17.250  0.00  0.00    +0.000 A 
ATOM      7  C   UNL     1       5.509   4.930  16.970  0.00  0.00    +0.000 A 
ATOM      8  C   UNL     1       4.662   6.019  17.176  0.00  0.00    +0.000 A 
ATOM      9  C   UNL     1       3.398   5.806  17.728  0.00  0.00    +0.000 A 
ATOM     10  C   UNL     1       2.965   4.510  18.065  0.00  0.00    +0.000 A 
ENDROOT
BRANCH   7  11
ATOM     11  S   UNL     1       7.127   5.175  16.269  0.00  0.00    +0.000 S 
ATOM     12  O   UNL     1       7.416   6.594  16.334  0.00  0.00    +0.000 OA
ATOM     13  O   UNL     1       8.025   4.217  16.896  0.00  0.00    +0.000 OA
BRANCH  11  14
ATOM     14  C   UNL     1       7.022   4.737  14.547  0.00  0.00    +0.000 A 
ATOM     15  C   UNL     1       7.866   5.360  13.620  0.00  0.00    +0.000 A 
ATOM     16  C   UNL     1       7.733   5.073  12.259  0.00  0.00    +0.000 A 
ATOM     17  C   UNL     1       6.757   4.172  11.832  0.00  0.00    +0.000 A 
ATOM     18  C   UNL     1       5.921   3.566  12.764  0.00  0.00    +0.000 A 
ATOM     19  F   UNL     1       4.982   2.709  12.345  0.00  0.00    +0.000 F 
ATOM     20  C   UNL     1       6.038   3.842  14.124  0.00  0.00    +0.000 A 
ENDBRANCH  11  14
ENDBRANCH   7  11
BRANCH   1  21
ATOM     21  C   UNL     1       1.740   4.684  20.243  0.00  0.00    +0.000 C 
BRANCH  21  24
ATOM     22  C   UNL     1       1.623   7.120  20.625  0.00  0.00    +0.000 C 
ATOM     23  O   UNL     1       2.791   7.311  20.294  0.00  0.00    +0.000 OA
ATOM     24  N   UNL     1       1.015   5.886  20.603  0.00  0.00    +0.000 N 
ATOM     25  H   UNL     1       0.036   5.826  20.861  0.00  0.00    +0.000 HD
BRANCH  22  26
ATOM     26  C   UNL     1       0.715   8.245  21.129  0.00  0.00    +0.000 C 
BRANCH  26  28
ATOM     27  C   UNL     1      -0.481  10.103  20.297  0.00  0.00    +0.000 C 
ATOM     28  O   UNL     1       0.772   9.422  20.328  0.00  0.00    +0.000 OA
ENDBRANCH  26  28
ENDBRANCH  22  26
ENDBRANCH  21  24
ENDBRANCH   1  21
TORSDOF 6
ENDMDL
MODEL 4
REMARK VINA RESULT:      -8.1      1.530      1.980
REMARK  Name = 
REMARK  7 active torsions:
REMARK  status: ('A' for Active; 'I' for Inactive)
REMARK    1  A    between atoms: C_1  and  O_2
REMARK    2  A    between atoms: O_2  and  C_3
REMARK    3  A    between atoms: C_3  and  C_4
REMARK    4  A    between atoms: N_6  and  C_7
REMARK    5  A    between atoms: C_7  and  C_8
REMARK    6  A    between atoms: C_14  and  S_15
REMARK    7  A    between atoms: S_15  and  C_18
REMARK                            x       y       z     vdW  Elec       q    Type
REMARK                         _______ _______ _______ _____ _____    ______ ____
ROOT
ATOM      1  C   UNL     1       1.724   4.840  19.107  0.00  0.00    +0.000 C 
ATOM      2  C   UNL     1       1.077   3.448  18.964  0.00  0.00    +0.000 C 
ATOM      3  C   UNL     1       2.068   2.342  19.307  0.00  0.00    +0.000 C 
ATOM      4  C   UNL     1       3.254   2.368  18.348  0.00  0.00    +0.000 C 
ATOM      5  C   UNL     1       3.796   3.751  18.079  0.00  0.00    +0.000 A 
ATOM      6  C   UNL     1       5.048   3.870  17.455  0.00  0.00    +0.000 A 
ATOM      7  C   UNL     1       5.552   5.130  17.122  0.00  0.00    +0.000 A 
ATOM      8  C   UNL     1       4.794   6.279  17.344  0.00  0.00    +0.000 A 
ATOM      9  C   UNL     1       3.549   6.167  17.966  0.00  0.00    +0.000 A 
ATOM     10  C   UNL     1       3.046   4.912  18.356  0.00  0.00    +0.000 A 
ENDROOT
BRANCH   7  11
ATOM     11  S   UNL     1       7.144   5.247  16.333  0.00  0.00    +0.000 S 
ATOM     12  O   UNL     1       7.535   6.643  16.352  0.00  0.00    +0.000 OA
ATOM     13  O   UNL     1       8.005   4.240  16.936  0.00  0.00    +0.000 OA
BRANCH  11  14
ATOM     14  C   UNL     1       6.918   4.785  14.629  0.00  0.00    +0.000 A 
ATOM     15  C   UNL     1       7.867   5.169  13.675  0.00  0.00    +0.000 A 
ATOM     16  C   UNL     1       7.653   4.873  12.327  0.00  0.00    +0.000 A 
ATOM     17  C   UNL     1       6.494   4.202  11.939  0.00  0.00    +0.000 A 
ATOM     18  C   UNL     1       5.556   3.833  12.898  0.00  0.00    +0.000 A 
ATOM     19  F   UNL     1       4.442   3.195  12.516  0.00  0.00    +0.000 F 
ATOM     20  C   UNL     1       5.752   4.121  14.246  0.00  0.00    +0.000 A 
ENDBRANCH  11  14
ENDBRANCH   7  11
BRANCH   1  21
ATOM     21  C   UNL     1       1.952   5.216  20.588  0.00  0.00    +0.000 C 
BRANCH  21  24
ATOM     22  C   UNL     1       0.979   7.441  21.033  0.00  0.00    +0.000 C 
ATOM     23  O   UNL     1      -0.166   7.009  21.139  0.00  0.00    +0.000 OA
ATOM     24  N   UNL     1       2.077   6.645  20.797  0.00  0.00    +0.000 N 
ATOM     25  H   UNL     1       2.991   7.082  20.757  0.00  0.00    +0.000 HD
BRANCH  22  26
ATOM     26  C   UNL     1       1.310   8.933  21.125  0.00  0.00    +0.000 C 
BRANCH  26  28
ATOM     27  C   UNL     1       0.144   9.652  23.047  0.00  0.00    +0.000 C 
ATOM     28  O   UNL     1       1.422   9.408  22.464  0.00  0.00    +0.000 OA
ENDBRANCH  26  28
ENDBRANCH  22  26
ENDBRANCH  21  24
ENDBRANCH   1  21
TORSDOF 6
ENDMDL
MODEL 5
REMARK VINA RESULT:      -8.1      1.002      1.093
REMARK  Name = 
REMARK  7 active torsions:
REMARK  status: ('A' for Active; 'I' for Inactive)
REMARK    1  A    between atoms: C_1  and  O_2
REMARK    2  A    between atoms: O_2  and  C_3
REMARK    3  A    between atoms: C_3  and  C_4
REMARK    4  A    between atoms: N_6  and  C_7
REMARK    5  A    between atoms: C_7  and  C_8
REMARK    6  A    between atoms: C_14  and  S_15
REMARK    7  A    between atoms: S_15  and  C_18
REMARK                            x       y       z     vdW  Elec       q    Type
REMARK                         _______ _______ _______ _____ _____    ______ ____
ROOT
ATOM      1  C   UNL     1       1.996   5.194  19.719  0.00  0.00    +0.000 C 
ATOM      2  C   UNL     1       1.535   3.774  20.098  0.00  0.00    +0.000 C 
ATOM      3  C   UNL     1       2.681   2.964  20.695  0.00  0.00    +0.000 C 
ATOM      4  C   UNL     1       3.805   2.797  19.678  0.00  0.00    +0.000 C 
ATOM      5  C   UNL     1       4.143   4.059  18.922  0.00  0.00    +0.000 A 
ATOM      6  C   UNL     1       5.336   4.098  18.185  0.00  0.00    +0.000 A 
ATOM      7  C   UNL     1       5.651   5.220  17.412  0.00  0.00    +0.000 A 
ATOM      8  C   UNL     1       4.757   6.286  17.313  0.00  0.00    +0.000 A 
ATOM      9  C   UNL     1       3.569   6.253  18.046  0.00  0.00    +0.000 A 
ATOM     10  C   UNL     1       3.258   5.155  18.870  0.00  0.00    +0.000 A 
ENDROOT
BRANCH   7  11
ATOM     11  S   UNL     1       7.173   5.240  16.490  0.00  0.00    +0.000 S 
ATOM     12  O   UNL     1       7.620   6.617  16.422  0.00  0.00    +0.000 OA
ATOM     13  O   UNL     1       8.040   4.218  17.056  0.00  0.00    +0.000 OA
BRANCH  11  14
ATOM     14  C   UNL     1       6.784   4.729  14.829  0.00  0.00    +0.000 A 
ATOM     15  C   UNL     1       5.819   3.738  14.617  0.00  0.00    +0.000 A 
ATOM     16  C   UNL     1       5.568   3.283  13.320  0.00  0.00    +0.000 A 
ATOM     17  C   UNL     1       6.283   3.813  12.247  0.00  0.00    +0.000 A 
ATOM     18  C   UNL     1       7.244   4.792  12.475  0.00  0.00    +0.000 A 
ATOM     19  F   UNL     1       7.932   5.291  11.439  0.00  0.00    +0.000 F 
ATOM     20  C   UNL     1       7.509   5.257  13.760  0.00  0.00    +0.000 A 
ENDBRANCH  11  14
ENDBRANCH   7  11
BRANCH   1  21
ATOM     21  C   UNL     1       2.242   6.070  20.968  0.00  0.00    +0.000 C 
BRANCH  21  24
ATOM     22  C   UNL     1       1.079   8.229  20.684  0.00  0.00    +0.000 C 
ATOM     23  O   UNL     1       1.894   8.654  19.867  0.00  0.00    +0.000 OA
ATOM     24  N   UNL     1       1.146   6.976  21.249  0.00  0.00    +0.000 N 
ATOM     25  H   UNL     1       0.412   6.696  21.889  0.00  0.00    +0.000 HD
BRANCH  22  26
ATOM     26  C   UNL     1      -0.099   9.069  21.186  0.00  0.00    +0.000 C 
BRANCH  26  28
ATOM     27  C   UNL     1      -0.884  10.401  19.403  0.00  0.00    +0.000 C 
ATOM     28  O   UNL     1      -0.145  10.376  20.622  0.00  0.00    +0.000 OA
ENDBRANCH  26  28
ENDBRANCH  22  26
ENDBRANCH  21  24
ENDBRANCH   1  21
TORSDOF 6
ENDMDL
MODEL 6
REMARK VINA RESULT:      -8.0      2.890      4.633
REMARK  Name = 
REMARK  7 active torsions:
REMARK  status: ('A' for Active; 'I' for Inactive)
REMARK    1  A    between atoms: C_1  and  O_2
REMARK    2  A    between atoms: O_2  and  C_3
REMARK    3  A    between atoms: C_3  and  C_4
REMARK    4  A    between atoms: N_6  and  C_7
REMARK    5  A    between atoms: C_7  and  C_8
REMARK    6  A    between atoms: C_14  and  S_15
REMARK    7  A    between atoms: S_15  and  C_18
REMARK                            x       y       z     vdW  Elec       q    Type
REMARK                         _______ _______ _______ _____ _____    ______ ____
ROOT
ATOM      1  C   UNL     1       1.325   8.847  20.732  0.00  0.00    +0.000 C 
ATOM      2  C   UNL     1       1.562  10.092  19.855  0.00  0.00    +0.000 C 
ATOM      3  C   UNL     1       1.051   9.872  18.436  0.00  0.00    +0.000 C 
ATOM      4  C   UNL     1       1.802   8.725  17.769  0.00  0.00    +0.000 C 
ATOM      5  C   UNL     1       1.990   7.516  18.653  0.00  0.00    +0.000 A 
ATOM      6  C   UNL     1       2.399   6.311  18.063  0.00  0.00    +0.000 A 
ATOM      7  C   UNL     1       2.655   5.188  18.856  0.00  0.00    +0.000 A 
ATOM      8  C   UNL     1       2.570   5.267  20.245  0.00  0.00    +0.000 A 
ATOM      9  C   UNL     1       2.160   6.463  20.838  0.00  0.00    +0.000 A 
ATOM     10  C   UNL     1       1.849   7.589  20.054  0.00  0.00    +0.000 A 
ENDROOT
BRANCH   7  11
ATOM     11  S   UNL     1       3.172   3.674  18.075  0.00  0.00    +0.000 S 
ATOM     12  O   UNL     1       3.331   2.681  19.120  0.00  0.00    +0.000 OA
ATOM     13  O   UNL     1       2.267   3.424  16.963  0.00  0.00    +0.000 OA
BRANCH  11  14
ATOM     14  C   UNL     1       4.782   3.969  17.377  0.00  0.00    +0.000 A 
ATOM     15  C   UNL     1       5.819   4.430  18.196  0.00  0.00    +0.000 A 
ATOM     16  C   UNL     1       7.062   4.734  17.635  0.00  0.00    +0.000 A 
ATOM     17  C   UNL     1       7.261   4.582  16.263  0.00  0.00    +0.000 A 
ATOM     18  C   UNL     1       6.218   4.130  15.461  0.00  0.00    +0.000 A 
ATOM     19  F   UNL     1       6.415   3.994  14.143  0.00  0.00    +0.000 F 
ATOM     20  C   UNL     1       4.973   3.824  16.002  0.00  0.00    +0.000 A 
ENDBRANCH  11  14
ENDBRANCH   7  11
BRANCH   1  21
ATOM     21  C   UNL     1      -0.171   8.663  21.074  0.00  0.00    +0.000 C 
BRANCH  21  24
ATOM     22  C   UNL     1      -0.629  10.376  22.792  0.00  0.00    +0.000 C 
ATOM     23  O   UNL     1       0.110   9.856  23.625  0.00  0.00    +0.000 OA
ATOM     24  N   UNL     1      -0.805   9.889  21.517  0.00  0.00    +0.000 N 
ATOM     25  H   UNL     1      -1.409  10.401  20.884  0.00  0.00    +0.000 HD
BRANCH  22  26
ATOM     26  C   UNL     1      -1.464  11.624  23.094  0.00  0.00    +0.000 C 
BRANCH  26  28
ATOM     27  C   UNL     1      -0.227  13.306  21.993  0.00  0.00    +0.000 C 
ATOM     28  O   UNL     1      -0.683  12.806  23.248  0.00  0.00    +0.000 OA
ENDBRANCH  26  28
ENDBRANCH  22  26
ENDBRANCH  21  24
ENDBRANCH   1  21
TORSDOF 6
ENDMDL
MODEL 7
REMARK VINA RESULT:      -8.0      3.391      5.175
REMARK  Name = 
REMARK  7 active torsions:
REMARK  status: ('A' for Active; 'I' for Inactive)
REMARK    1  A    between atoms: C_1  and  O_2
REMARK    2  A    between atoms: O_2  and  C_3
REMARK    3  A    between atoms: C_3  and  C_4
REMARK    4  A    between atoms: N_6  and  C_7
REMARK    5  A    between atoms: C_7  and  C_8
REMARK    6  A    between atoms: C_14  and  S_15
REMARK    7  A    between atoms: S_15  and  C_18
REMARK                            x       y       z     vdW  Elec       q    Type
REMARK                         _______ _______ _______ _____ _____    ______ ____
ROOT
ATOM      1  C   UNL     1       1.211   9.406  20.601  0.00  0.00    +0.000 C 
ATOM      2  C   UNL     1       1.625  10.610  19.734  0.00  0.00    +0.000 C 
ATOM      3  C   UNL     1       1.257  10.389  18.271  0.00  0.00    +0.000 C 
ATOM      4  C   UNL     1       1.996   9.178  17.711  0.00  0.00    +0.000 C 
ATOM      5  C   UNL     1       2.004   7.982  18.632  0.00  0.00    +0.000 A 
ATOM      6  C   UNL     1       2.391   6.738  18.111  0.00  0.00    +0.000 A 
ATOM      7  C   UNL     1       2.483   5.621  18.947  0.00  0.00    +0.000 A 
ATOM      8  C   UNL     1       2.253   5.740  20.317  0.00  0.00    +0.000 A 
ATOM      9  C   UNL     1       1.865   6.975  20.840  0.00  0.00    +0.000 A 
ATOM     10  C   UNL     1       1.718   8.099  20.007  0.00  0.00    +0.000 A 
ENDROOT
BRANCH   7  11
ATOM     11  S   UNL     1       2.976   4.057  18.254  0.00  0.00    +0.000 S 
ATOM     12  O   UNL     1       3.135   3.128  19.356  0.00  0.00    +0.000 OA
ATOM     13  O   UNL     1       2.057   3.751  17.168  0.00  0.00    +0.000 OA
BRANCH  11  14
ATOM     14  C   UNL     1       4.582   4.292  17.524  0.00  0.00    +0.000 A 
ATOM     15  C   UNL     1       4.755   4.090  16.151  0.00  0.00    +0.000 A 
ATOM     16  C   UNL     1       6.030   4.200  15.589  0.00  0.00    +0.000 A 
ATOM     17  C   UNL     1       7.123   4.503  16.402  0.00  0.00    +0.000 A 
ATOM     18  C   UNL     1       6.936   4.693  17.767  0.00  0.00    +0.000 A 
ATOM     19  F   UNL     1       7.991   4.976  18.542  0.00  0.00    +0.000 F 
ATOM     20  C   UNL     1       5.673   4.586  18.343  0.00  0.00    +0.000 A 
ENDBRANCH  11  14
ENDBRANCH   7  11
BRANCH   1  21
ATOM     21  C   UNL     1      -0.322   9.330  20.781  0.00  0.00    +0.000 C 
BRANCH  21  24
ATOM     22  C   UNL     1      -0.940  10.800  22.665  0.00  0.00    +0.000 C 
ATOM     23  O   UNL     1      -0.465  10.049  23.514  0.00  0.00    +0.000 OA
ATOM     24  N   UNL     1      -0.891  10.552  21.313  0.00  0.00    +0.000 N 
ATOM     25  H   UNL     1      -1.280  11.243  20.681  0.00  0.00    +0.000 HD
BRANCH  22  26
ATOM     26  C   UNL     1      -1.671  12.096  23.028  0.00  0.00    +0.000 C 
BRANCH  26  28
ATOM     27  C   UNL     1      -3.898  12.862  23.179  0.00  0.00    +0.000 C 
ATOM     28  O   UNL     1      -2.955  11.881  23.605  0.00  0.00    +0.000 OA
ENDBRANCH  26  28
ENDBRANCH  22  26
ENDBRANCH  21  24
ENDBRANCH   1  21
TORSDOF 6
ENDMDL
MODEL 8
REMARK VINA RESULT:      -8.0      2.181      3.868
REMARK  Name = 
REMARK  7 active torsions:
REMARK  status: ('A' for Active; 'I' for Inactive)
REMARK    1  A    between atoms: C_1  and  O_2
REMARK    2  A    between atoms: O_2  and  C_3
REMARK    3  A    between atoms: C_3  and  C_4
REMARK    4  A    between atoms: N_6  and  C_7
REMARK    5  A    between atoms: C_7  and  C_8
REMARK    6  A    between atoms: C_14  and  S_15
REMARK    7  A    between atoms: S_15  and  C_18
REMARK                            x       y       z     vdW  Elec       q    Type
REMARK                         _______ _______ _______ _____ _____    ______ ____
ROOT
ATOM      1  C   UNL     1       2.399   6.248  20.094  0.00  0.00    +0.000 C 
ATOM      2  C   UNL     1       1.814   7.668  19.967  0.00  0.00    +0.000 C 
ATOM      3  C   UNL     1       1.624   8.058  18.506  0.00  0.00    +0.000 C 
ATOM      4  C   UNL     1       2.964   8.076  17.778  0.00  0.00    +0.000 C 
ATOM      5  C   UNL     1       3.850   6.895  18.091  0.00  0.00    +0.000 A 
ATOM      6  C   UNL     1       4.964   6.657  17.270  0.00  0.00    +0.000 A 
ATOM      7  C   UNL     1       5.850   5.618  17.569  0.00  0.00    +0.000 A 
ATOM      8  C   UNL     1       5.676   4.845  18.717  0.00  0.00    +0.000 A 
ATOM      9  C   UNL     1       4.569   5.076  19.535  0.00  0.00    +0.000 A 
ATOM     10  C   UNL     1       3.638   6.084  19.224  0.00  0.00    +0.000 A 
ENDROOT
BRANCH   7  11
ATOM     11  S   UNL     1       7.252   5.341  16.507  0.00  0.00    +0.000 S 
ATOM     12  O   UNL     1       7.861   6.632  16.251  0.00  0.00    +0.000 OA
ATOM     13  O   UNL     1       8.038   4.266  17.093  0.00  0.00    +0.000 OA
BRANCH  11  14
ATOM     14  C   UNL     1       6.622   4.737  14.956  0.00  0.00    +0.000 A 
ATOM     15  C   UNL     1       5.442   3.986  14.932  0.00  0.00    +0.000 A 
ATOM     16  C   UNL     1       4.987   3.447  13.726  0.00  0.00    +0.000 A 
ATOM     17  C   UNL     1       5.714   3.656  12.554  0.00  0.00    +0.000 A 
ATOM     18  C   UNL     1       6.890   4.398  12.595  0.00  0.00    +0.000 A 
ATOM     19  F   UNL     1       7.587   4.588  11.467  0.00  0.00    +0.000 F 
ATOM     20  C   UNL     1       7.359   4.941  13.789  0.00  0.00    +0.000 A 
ENDBRANCH  11  14
ENDBRANCH   7  11
BRANCH   1  21
ATOM     21  C   UNL     1       1.361   5.166  19.722  0.00  0.00    +0.000 C 
BRANCH  21  24
ATOM     22  C   UNL     1       1.311   2.943  18.650  0.00  0.00    +0.000 C 
ATOM     23  O   UNL     1       0.318   2.574  19.273  0.00  0.00    +0.000 OA
ATOM     24  N   UNL     1       1.871   4.193  18.776  0.00  0.00    +0.000 N 
ATOM     25  H   UNL     1       2.671   4.424  18.198  0.00  0.00    +0.000 HD
BRANCH  22  26
ATOM     26  C   UNL     1       2.057   2.030  17.672  0.00  0.00    +0.000 C 
BRANCH  26  28
ATOM     27  C   UNL     1       4.000   1.283  18.784  0.00  0.00    +0.000 C 
ATOM     28  O   UNL     1       3.474   2.134  17.768  0.00  0.00    +0.000 OA
ENDBRANCH  26  28
ENDBRANCH  22  26
ENDBRANCH  21  24
ENDBRANCH   1  21
TORSDOF 6
ENDMDL
MODEL 9
REMARK VINA RESULT:      -8.0      4.719      6.678
REMARK  Name = 
REMARK  7 active torsions:
REMARK  status: ('A' for Active; 'I' for Inactive)
REMARK    1  A    between atoms: C_1  and  O_2
REMARK    2  A    between atoms: O_2  and  C_3
REMARK    3  A    between atoms: C_3  and  C_4
REMARK    4  A    between atoms: N_6  and  C_7
REMARK    5  A    between atoms: C_7  and  C_8
REMARK    6  A    between atoms: C_14  and  S_15
REMARK    7  A    between atoms: S_15  and  C_18
REMARK                            x       y       z     vdW  Elec       q    Type
REMARK                         _______ _______ _______ _____ _____    ______ ____
ROOT
ATOM      1  C   UNL     1       0.361  10.781  19.412  0.00  0.00    +0.000 C 
ATOM      2  C   UNL     1      -0.623  10.689  20.594  0.00  0.00    +0.000 C 
ATOM      3  C   UNL     1       0.067  10.158  21.846  0.00  0.00    +0.000 C 
ATOM      4  C   UNL     1       0.593   8.746  21.609  0.00  0.00    +0.000 C 
ATOM      5  C   UNL     1       1.286   8.562  20.281  0.00  0.00    +0.000 A 
ATOM      6  C   UNL     1       2.055   7.406  20.081  0.00  0.00    +0.000 A 
ATOM      7  C   UNL     1       2.653   7.162  18.842  0.00  0.00    +0.000 A 
ATOM      8  C   UNL     1       2.443   8.029  17.770  0.00  0.00    +0.000 A 
ATOM      9  C   UNL     1       1.681   9.183  17.963  0.00  0.00    +0.000 A 
ATOM     10  C   UNL     1       1.113   9.472  19.218  0.00  0.00    +0.000 A 
ENDROOT
BRANCH   7  11
ATOM     11  S   UNL     1       3.624   5.686  18.621  0.00  0.00    +0.000 S 
ATOM     12  O   UNL     1       3.905   5.561  17.204  0.00  0.00    +0.000 OA
ATOM     13  O   UNL     1       4.716   5.734  19.581  0.00  0.00    +0.000 OA
BRANCH  11  14
ATOM     14  C   UNL     1       2.592   4.309  19.077  0.00  0.00    +0.000 A 
ATOM     15  C   UNL     1       1.756   3.722  18.121  0.00  0.00    +0.000 A 
ATOM     16  C   UNL     1       0.890   2.691  18.496  0.00  0.00    +0.000 A 
ATOM     17  C   UNL     1       0.859   2.258  19.821  0.00  0.00    +0.000 A 
ATOM     18  C   UNL     1       1.690   2.857  20.762  0.00  0.00    +0.000 A 
ATOM     19  F   UNL     1       1.649   2.441  22.035  0.00  0.00    +0.000 F 
ATOM     20  C   UNL     1       2.558   3.886  20.407  0.00  0.00    +0.000 A 
ENDBRANCH  11  14
ENDBRANCH   7  11
BRANCH   1  21
ATOM     21  C   UNL     1       1.372  11.934  19.597  0.00  0.00    +0.000 C 
BRANCH  21  24
ATOM     22  C   UNL     1       0.684  14.098  20.566  0.00  0.00    +0.000 C 
ATOM     23  O   UNL     1       1.161  13.848  21.670  0.00  0.00    +0.000 OA
ATOM     24  N   UNL     1       0.763  13.245  19.489  0.00  0.00    +0.000 N 
ATOM     25  H   UNL     1       0.370  13.546  18.604  0.00  0.00    +0.000 HD
BRANCH  22  26
ATOM     26  C   UNL     1      -0.085  15.389  20.272  0.00  0.00    +0.000 C 
BRANCH  26  28
ATOM     27  C   UNL     1      -0.522  16.913  18.524  0.00  0.00    +0.000 C 
ATOM     28  O   UNL     1      -0.437  15.541  18.900  0.00  0.00    +0.000 OA
ENDBRANCH  26  28
ENDBRANCH  22  26
ENDBRANCH  21  24
ENDBRANCH   1  21
TORSDOF 6
ENDMDL
