MODEL 1
REMARK VINA RESULT:      -7.7      0.000      0.000
REMARK  Name = 
REMARK  7 active torsions:
REMARK  status: ('A' for Active; 'I' for Inactive)
REMARK    1  A    between atoms: C_1  and  C_2
REMARK    2  A    between atoms: C_2  and  O_3
REMARK    3  A    between atoms: O_3  and  P_4
REMARK    4  A    between atoms: P_4  and  C_6
REMARK    5  A    between atoms: P_4  and  C_17
REMARK    6  A    between atoms: C_17  and  O_18
REMARK    7  A    between atoms: C_17  and  C_19
REMARK                            x       y       z     vdW  Elec       q    Type
REMARK                         _______ _______ _______ _____ _____    ______ ____
ROOT
ATOM      1  P   UNL     1       5.948   4.911  17.008  0.00  0.00    +0.000 P 
ATOM      2  O   UNL     1       6.390   3.574  16.383  0.00  0.00    +0.000 OA
ENDROOT
BRANCH   1   3
ATOM      3  C   UNL     1       4.316   4.701  17.943  0.00  0.00    +0.000 A 
ATOM      4  C   UNL     1       3.706   5.817  18.519  0.00  0.00    +0.000 A 
ATOM      5  F   UNL     1       4.253   7.032  18.357  0.00  0.00    +0.000 F 
ATOM      6  C   UNL     1       2.527   5.687  19.259  0.00  0.00    +0.000 A 
ATOM      7  F   UNL     1       1.969   6.766  19.826  0.00  0.00    +0.000 F 
ATOM      8  C   UNL     1       1.924   4.443  19.410  0.00  0.00    +0.000 A 
ATOM      9  F   UNL     1       0.788   4.323  20.112  0.00  0.00    +0.000 F 
ATOM     10  C   UNL     1       2.505   3.330  18.813  0.00  0.00    +0.000 A 
ATOM     11  F   UNL     1       1.914   2.132  18.923  0.00  0.00    +0.000 F 
ATOM     12  C   UNL     1       3.695   3.455  18.093  0.00  0.00    +0.000 A 
ATOM     13  F   UNL     1       4.210   2.367  17.510  0.00  0.00    +0.000 F 
ENDBRANCH   1   3
BRANCH   1  14
ATOM     14  O   UNL     1       6.761   4.486  18.474  0.00  0.00    +0.000 OA
BRANCH  14  16
ATOM     15  C   UNL     1       7.569   6.701  18.004  0.00  0.00    +0.000 C 
ATOM     16  C   UNL     1       7.452   5.598  19.032  0.00  0.00    +0.000 C 
ENDBRANCH  14  16
ENDBRANCH   1  14
BRANCH   1  17
ATOM     17  C   UNL     1       5.087   5.361  15.458  0.00  0.00    +0.000 C 
BRANCH  17  18
ATOM     18  C   UNL     1       5.843   4.803  14.241  0.00  0.00    +0.000 A 
ATOM     19  C   UNL     1       7.110   5.292  13.906  0.00  0.00    +0.000 A 
ATOM     20  C   UNL     1       7.769   4.822  12.764  0.00  0.00    +0.000 A 
ATOM     21  C   UNL     1       7.175   3.858  11.948  0.00  0.00    +0.000 A 
ATOM     22  C   UNL     1       5.925   3.347  12.280  0.00  0.00    +0.000 A 
ATOM     23  C   UNL     1       5.274   3.803  13.425  0.00  0.00    +0.000 A 
ENDBRANCH  17  18
BRANCH  17  24
ATOM     24  O   UNL     1       5.155   6.801  15.363  0.00  0.00    +0.000 OA
ATOM     25  H   UNL     1       4.520   7.175  16.003  0.00  0.00    +0.000 HD
ENDBRANCH  17  24
ENDBRANCH   1  17
TORSDOF 6
ENDMDL
MODEL 2
REMARK VINA RESULT:      -7.6      1.576      1.973
REMARK  Name = 
REMARK  7 active torsions:
REMARK  status: ('A' for Active; 'I' for Inactive)
REMARK    1  A    between atoms: C_1  and  C_2
REMARK    2  A    between atoms: C_2  and  O_3
REMARK    3  A    between atoms: O_3  and  P_4
REMARK    4  A    between atoms: P_4  and  C_6
REMARK    5  A    between atoms: P_4  and  C_17
REMARK    6  A    between atoms: C_17  and  O_18
REMARK    7  A    between atoms: C_17  and  C_19
REMARK                            x       y       z     vdW  Elec       q    Type
REMARK                         _______ _______ _______ _____ _____    ______ ____
ROOT
ATOM      1  P   UNL     1       6.565   5.346  17.106  0.00  0.00    +0.000 P 
ATOM      2  O   UNL     1       7.542   4.372  17.793  0.00  0.00    +0.000 OA
ENDROOT
BRANCH   1   3
ATOM      3  C   UNL     1       4.945   5.458  18.076  0.00  0.00    +0.000 A 
ATOM      4  C   UNL     1       4.034   6.473  17.776  0.00  0.00    +0.000 A 
ATOM      5  F   UNL     1       4.292   7.323  16.769  0.00  0.00    +0.000 F 
ATOM      6  C   UNL     1       2.851   6.613  18.508  0.00  0.00    +0.000 A 
ATOM      7  F   UNL     1       2.000   7.609  18.223  0.00  0.00    +0.000 F 
ATOM      8  C   UNL     1       2.547   5.723  19.533  0.00  0.00    +0.000 A 
ATOM      9  F   UNL     1       1.408   5.854  20.227  0.00  0.00    +0.000 F 
ATOM     10  C   UNL     1       3.431   4.688  19.818  0.00  0.00    +0.000 A 
ATOM     11  F   UNL     1       3.132   3.804  20.780  0.00  0.00    +0.000 F 
ATOM     12  C   UNL     1       4.624   4.561  19.102  0.00  0.00    +0.000 A 
ATOM     13  F   UNL     1       5.437   3.538  19.387  0.00  0.00    +0.000 F 
ENDBRANCH   1   3
BRANCH   1  14
ATOM     14  O   UNL     1       7.165   6.632  18.096  0.00  0.00    +0.000 OA
BRANCH  14  16
ATOM     15  C   UNL     1       8.292   8.755  18.172  0.00  0.00    +0.000 C 
ATOM     16  C   UNL     1       7.534   7.765  17.316  0.00  0.00    +0.000 C 
ENDBRANCH  14  16
ENDBRANCH   1  14
BRANCH   1  17
ATOM     17  C   UNL     1       5.931   3.986  16.060  0.00  0.00    +0.000 C 
BRANCH  17  18
ATOM     18  C   UNL     1       6.375   4.178  14.600  0.00  0.00    +0.000 A 
ATOM     19  C   UNL     1       5.779   3.439  13.573  0.00  0.00    +0.000 A 
ATOM     20  C   UNL     1       6.226   3.577  12.254  0.00  0.00    +0.000 A 
ATOM     21  C   UNL     1       7.268   4.452  11.945  0.00  0.00    +0.000 A 
ATOM     22  C   UNL     1       7.856   5.209  12.952  0.00  0.00    +0.000 A 
ATOM     23  C   UNL     1       7.402   5.085  14.264  0.00  0.00    +0.000 A 
ENDBRANCH  17  18
BRANCH  17  24
ATOM     24  O   UNL     1       4.492   4.105  16.075  0.00  0.00    +0.000 OA
ATOM     25  H   UNL     1       4.118   3.281  15.707  0.00  0.00    +0.000 HD
ENDBRANCH  17  24
ENDBRANCH   1  17
TORSDOF 6
ENDMDL
MODEL 3
REMARK VINA RESULT:      -7.6      0.820      2.178
REMARK  Name = 
REMARK  7 active torsions:
REMARK  status: ('A' for Active; 'I' for Inactive)
REMARK    1  A    between atoms: C_1  and  C_2
REMARK    2  A    between atoms: C_2  and  O_3
REMARK    3  A    between atoms: O_3  and  P_4
REMARK    4  A    between atoms: P_4  and  C_6
REMARK    5  A    between atoms: P_4  and  C_17
REMARK    6  A    between atoms: C_17  and  O_18
REMARK    7  A    between atoms: C_17  and  C_19
REMARK                            x       y       z     vdW  Elec       q    Type
REMARK                         _______ _______ _______ _____ _____    ______ ____
ROOT
ATOM      1  P   UNL     1       6.124   5.037  17.260  0.00  0.00    +0.000 P 
ATOM      2  O   UNL     1       6.824   3.884  16.515  0.00  0.00    +0.000 OA
ENDROOT
BRANCH   1   3
ATOM      3  C   UNL     1       4.556   4.419  18.120  0.00  0.00    +0.000 A 
ATOM      4  C   UNL     1       3.930   3.261  17.657  0.00  0.00    +0.000 A 
ATOM      5  F   UNL     1       4.475   2.569  16.644  0.00  0.00    +0.000 F 
ATOM      6  C   UNL     1       2.742   2.808  18.238  0.00  0.00    +0.000 A 
ATOM      7  F   UNL     1       2.141   1.707  17.763  0.00  0.00    +0.000 F 
ATOM      8  C   UNL     1       2.178   3.489  19.311  0.00  0.00    +0.000 A 
ATOM      9  F   UNL     1       1.044   3.047  19.872  0.00  0.00    +0.000 F 
ATOM     10  C   UNL     1       2.811   4.625  19.803  0.00  0.00    +0.000 A 
ATOM     11  F   UNL     1       2.296   5.270  20.859  0.00  0.00    +0.000 F 
ATOM     12  C   UNL     1       3.986   5.092  19.208  0.00  0.00    +0.000 A 
ATOM     13  F   UNL     1       4.582   6.173  19.725  0.00  0.00    +0.000 F 
ENDBRANCH   1   3
BRANCH   1  14
ATOM     14  O   UNL     1       6.992   4.623  18.699  0.00  0.00    +0.000 OA
BRANCH  14  16
ATOM     15  C   UNL     1       7.735   6.846  18.161  0.00  0.00    +0.000 C 
ATOM     16  C   UNL     1       7.819   5.694  19.138  0.00  0.00    +0.000 C 
ENDBRANCH  14  16
ENDBRANCH   1  14
BRANCH   1  17
ATOM     17  C   UNL     1       5.207   5.475  15.739  0.00  0.00    +0.000 C 
BRANCH  17  18
ATOM     18  C   UNL     1       5.927   4.922  14.498  0.00  0.00    +0.000 A 
ATOM     19  C   UNL     1       7.170   5.433  14.111  0.00  0.00    +0.000 A 
ATOM     20  C   UNL     1       7.793   4.966  12.949  0.00  0.00    +0.000 A 
ATOM     21  C   UNL     1       7.188   3.985  12.163  0.00  0.00    +0.000 A 
ATOM     22  C   UNL     1       5.963   3.453  12.546  0.00  0.00    +0.000 A 
ATOM     23  C   UNL     1       5.347   3.905  13.712  0.00  0.00    +0.000 A 
ENDBRANCH  17  18
BRANCH  17  24
ATOM     24  O   UNL     1       5.257   6.915  15.640  0.00  0.00    +0.000 OA
ATOM     25  H   UNL     1       5.126   7.283  16.534  0.00  0.00    +0.000 HD
ENDBRANCH  17  24
ENDBRANCH   1  17
TORSDOF 6
ENDMDL
MODEL 4
REMARK VINA RESULT:      -7.5      1.537      2.667
REMARK  Name = 
REMARK  7 active torsions:
REMARK  status: ('A' for Active; 'I' for Inactive)
REMARK    1  A    between atoms: C_1  and  C_2
REMARK    2  A    between atoms: C_2  and  O_3
REMARK    3  A    between atoms: O_3  and  P_4
REMARK    4  A    between atoms: P_4  and  C_6
REMARK    5  A    between atoms: P_4  and  C_17
REMARK    6  A    between atoms: C_17  and  O_18
REMARK    7  A    between atoms: C_17  and  C_19
REMARK                            x       y       z     vdW  Elec       q    Type
REMARK                         _______ _______ _______ _____ _____    ______ ____
ROOT
ATOM      1  P   UNL     1       6.553   5.361  17.120  0.00  0.00    +0.000 P 
ATOM      2  O   UNL     1       7.531   4.382  17.797  0.00  0.00    +0.000 OA
ENDROOT
BRANCH   1   3
ATOM      3  C   UNL     1       4.941   5.478  18.104  0.00  0.00    +0.000 A 
ATOM      4  C   UNL     1       4.656   4.514  19.073  0.00  0.00    +0.000 A 
ATOM      5  F   UNL     1       5.551   3.549  19.334  0.00  0.00    +0.000 F 
ATOM      6  C   UNL     1       3.451   4.545  19.781  0.00  0.00    +0.000 A 
ATOM      7  F   UNL     1       3.183   3.596  20.690  0.00  0.00    +0.000 F 
ATOM      8  C   UNL     1       2.524   5.556  19.551  0.00  0.00    +0.000 A 
ATOM      9  F   UNL     1       1.373   5.587  20.238  0.00  0.00    +0.000 F 
ATOM     10  C   UNL     1       2.812   6.540  18.612  0.00  0.00    +0.000 A 
ATOM     11  F   UNL     1       1.942   7.539  18.407  0.00  0.00    +0.000 F 
ATOM     12  C   UNL     1       4.006   6.498  17.888  0.00  0.00    +0.000 A 
ATOM     13  F   UNL     1       4.260   7.477  17.012  0.00  0.00    +0.000 F 
ENDBRANCH   1   3
BRANCH   1  14
ATOM     14  O   UNL     1       7.166   6.643  18.106  0.00  0.00    +0.000 OA
BRANCH  14  16
ATOM     15  C   UNL     1       8.296   8.764  18.188  0.00  0.00    +0.000 C 
ATOM     16  C   UNL     1       7.564   7.763  17.322  0.00  0.00    +0.000 C 
ENDBRANCH  14  16
ENDBRANCH   1  14
BRANCH   1  17
ATOM     17  C   UNL     1       5.903   4.005  16.077  0.00  0.00    +0.000 C 
BRANCH  17  18
ATOM     18  C   UNL     1       6.355   4.185  14.618  0.00  0.00    +0.000 A 
ATOM     19  C   UNL     1       5.774   3.428  13.595  0.00  0.00    +0.000 A 
ATOM     20  C   UNL     1       6.229   3.555  12.278  0.00  0.00    +0.000 A 
ATOM     21  C   UNL     1       7.264   4.437  11.966  0.00  0.00    +0.000 A 
ATOM     22  C   UNL     1       7.837   5.210  12.968  0.00  0.00    +0.000 A 
ATOM     23  C   UNL     1       7.376   5.098  14.279  0.00  0.00    +0.000 A 
ENDBRANCH  17  18
BRANCH  17  24
ATOM     24  O   UNL     1       4.466   4.144  16.086  0.00  0.00    +0.000 OA
ATOM     25  H   UNL     1       4.133   3.884  15.205  0.00  0.00    +0.000 HD
ENDBRANCH  17  24
ENDBRANCH   1  17
TORSDOF 6
ENDMDL
MODEL 5
REMARK VINA RESULT:      -7.3      0.204      2.382
REMARK  Name = 
REMARK  7 active torsions:
REMARK  status: ('A' for Active; 'I' for Inactive)
REMARK    1  A    between atoms: C_1  and  C_2
REMARK    2  A    between atoms: C_2  and  O_3
REMARK    3  A    between atoms: O_3  and  P_4
REMARK    4  A    between atoms: P_4  and  C_6
REMARK    5  A    between atoms: P_4  and  C_17
REMARK    6  A    between atoms: C_17  and  O_18
REMARK    7  A    between atoms: C_17  and  C_19
REMARK                            x       y       z     vdW  Elec       q    Type
REMARK                         _______ _______ _______ _____ _____    ______ ____
ROOT
ATOM      1  P   UNL     1       5.968   4.906  17.022  0.00  0.00    +0.000 P 
ATOM      2  O   UNL     1       6.292   3.528  16.414  0.00  0.00    +0.000 OA
ENDROOT
BRANCH   1   3
ATOM      3  C   UNL     1       4.380   4.825  18.047  0.00  0.00    +0.000 A 
ATOM      4  C   UNL     1       3.811   3.583  18.335  0.00  0.00    +0.000 A 
ATOM      5  F   UNL     1       4.425   2.460  17.930  0.00  0.00    +0.000 F 
ATOM      6  C   UNL     1       2.611   3.492  19.046  0.00  0.00    +0.000 A 
ATOM      7  F   UNL     1       2.066   2.292  19.292  0.00  0.00    +0.000 F 
ATOM      8  C   UNL     1       1.975   4.641  19.505  0.00  0.00    +0.000 A 
ATOM      9  F   UNL     1       0.830   4.550  20.195  0.00  0.00    +0.000 F 
ATOM     10  C   UNL     1       2.550   5.881  19.253  0.00  0.00    +0.000 A 
ATOM     11  F   UNL     1       1.965   6.993  19.721  0.00  0.00    +0.000 F 
ATOM     12  C   UNL     1       3.738   5.975  18.523  0.00  0.00    +0.000 A 
ATOM     13  F   UNL     1       4.275   7.183  18.323  0.00  0.00    +0.000 F 
ENDBRANCH   1   3
BRANCH   1  14
ATOM     14  O   UNL     1       6.832   4.468  18.455  0.00  0.00    +0.000 OA
BRANCH  14  16
ATOM     15  C   UNL     1       7.653   6.698  18.086  0.00  0.00    +0.000 C 
ATOM     16  C   UNL     1       7.389   5.607  19.101  0.00  0.00    +0.000 C 
ENDBRANCH  14  16
ENDBRANCH   1  14
BRANCH   1  17
ATOM     17  C   UNL     1       5.054   5.370  15.506  0.00  0.00    +0.000 C 
BRANCH  17  18
ATOM     18  C   UNL     1       5.775   4.835  14.258  0.00  0.00    +0.000 A 
ATOM     19  C   UNL     1       5.171   3.867  13.449  0.00  0.00    +0.000 A 
ATOM     20  C   UNL     1       5.856   3.341  12.348  0.00  0.00    +0.000 A 
ATOM     21  C   UNL     1       7.145   3.776  12.040  0.00  0.00    +0.000 A 
ATOM     22  C   UNL     1       7.750   4.752  12.822  0.00  0.00    +0.000 A 
ATOM     23  C   UNL     1       7.065   5.289  13.911  0.00  0.00    +0.000 A 
ENDBRANCH  17  18
BRANCH  17  24
ATOM     24  O   UNL     1       5.108   6.812  15.430  0.00  0.00    +0.000 OA
ATOM     25  H   UNL     1       5.590   7.137  16.214  0.00  0.00    +0.000 HD
ENDBRANCH  17  24
ENDBRANCH   1  17
TORSDOF 6
ENDMDL
MODEL 6
REMARK VINA RESULT:      -7.2      2.823      4.398
REMARK  Name = 
REMARK  7 active torsions:
REMARK  status: ('A' for Active; 'I' for Inactive)
REMARK    1  A    between atoms: C_1  and  C_2
REMARK    2  A    between atoms: C_2  and  O_3
REMARK    3  A    between atoms: O_3  and  P_4
REMARK    4  A    between atoms: P_4  and  C_6
REMARK    5  A    between atoms: P_4  and  C_17
REMARK    6  A    between atoms: C_17  and  O_18
REMARK    7  A    between atoms: C_17  and  C_19
REMARK                            x       y       z     vdW  Elec       q    Type
REMARK                         _______ _______ _______ _____ _____    ______ ____
ROOT
ATOM      1  P   UNL     1       5.531   5.041  17.974  0.00  0.00    +0.000 P 
ATOM      2  O   UNL     1       5.582   3.811  18.902  0.00  0.00    +0.000 OA
ENDROOT
BRANCH   1   3
ATOM      3  C   UNL     1       4.084   6.167  18.440  0.00  0.00    +0.000 A 
ATOM      4  C   UNL     1       3.747   7.233  17.605  0.00  0.00    +0.000 A 
ATOM      5  F   UNL     1       4.415   7.414  16.455  0.00  0.00    +0.000 F 
ATOM      6  C   UNL     1       2.716   8.113  17.947  0.00  0.00    +0.000 A 
ATOM      7  F   UNL     1       2.423   9.147  17.144  0.00  0.00    +0.000 F 
ATOM      8  C   UNL     1       1.988   7.924  19.116  0.00  0.00    +0.000 A 
ATOM      9  F   UNL     1       0.993   8.765  19.437  0.00  0.00    +0.000 F 
ATOM     10  C   UNL     1       2.293   6.846  19.940  0.00  0.00    +0.000 A 
ATOM     11  F   UNL     1       1.574   6.634  21.051  0.00  0.00    +0.000 F 
ATOM     12  C   UNL     1       3.338   5.979  19.610  0.00  0.00    +0.000 A 
ATOM     13  F   UNL     1       3.585   4.938  20.412  0.00  0.00    +0.000 F 
ENDBRANCH   1   3
BRANCH   1  14
ATOM     14  O   UNL     1       6.494   5.925  19.108  0.00  0.00    +0.000 OA
BRANCH  14  16
ATOM     15  C   UNL     1       7.726   7.513  17.788  0.00  0.00    +0.000 C 
ATOM     16  C   UNL     1       7.781   6.226  18.580  0.00  0.00    +0.000 C 
ENDBRANCH  14  16
ENDBRANCH   1  14
BRANCH   1  17
ATOM     17  C   UNL     1       4.513   4.105  16.776  0.00  0.00    +0.000 C 
BRANCH  17  18
ATOM     18  C   UNL     1       3.351   3.397  17.493  0.00  0.00    +0.000 A 
ATOM     19  C   UNL     1       2.078   3.975  17.525  0.00  0.00    +0.000 A 
ATOM     20  C   UNL     1       1.040   3.354  18.228  0.00  0.00    +0.000 A 
ATOM     21  C   UNL     1       1.258   2.153  18.904  0.00  0.00    +0.000 A 
ATOM     22  C   UNL     1       2.513   1.556  18.863  0.00  0.00    +0.000 A 
ATOM     23  C   UNL     1       3.545   2.164  18.151  0.00  0.00    +0.000 A 
ENDBRANCH  17  18
BRANCH  17  24
ATOM     24  O   UNL     1       5.367   3.067  16.246  0.00  0.00    +0.000 OA
ATOM     25  H   UNL     1       5.008   2.207  16.533  0.00  0.00    +0.000 HD
ENDBRANCH  17  24
ENDBRANCH   1  17
TORSDOF 6
ENDMDL
MODEL 7
REMARK VINA RESULT:      -7.2      1.296      1.395
REMARK  Name = 
REMARK  7 active torsions:
REMARK  status: ('A' for Active; 'I' for Inactive)
REMARK    1  A    between atoms: C_1  and  C_2
REMARK    2  A    between atoms: C_2  and  O_3
REMARK    3  A    between atoms: O_3  and  P_4
REMARK    4  A    between atoms: P_4  and  C_6
REMARK    5  A    between atoms: P_4  and  C_17
REMARK    6  A    between atoms: C_17  and  O_18
REMARK    7  A    between atoms: C_17  and  C_19
REMARK                            x       y       z     vdW  Elec       q    Type
REMARK                         _______ _______ _______ _____ _____    ______ ____
ROOT
ATOM      1  P   UNL     1       6.077   5.207  17.499  0.00  0.00    +0.000 P 
ATOM      2  O   UNL     1       7.126   4.222  18.051  0.00  0.00    +0.000 OA
ENDROOT
BRANCH   1   3
ATOM      3  C   UNL     1       4.496   5.146  18.535  0.00  0.00    +0.000 A 
ATOM      4  C   UNL     1       3.637   6.246  18.542  0.00  0.00    +0.000 A 
ATOM      5  F   UNL     1       3.913   7.312  17.774  0.00  0.00    +0.000 F 
ATOM      6  C   UNL     1       2.487   6.252  19.337  0.00  0.00    +0.000 A 
ATOM      7  F   UNL     1       1.687   7.328  19.351  0.00  0.00    +0.000 F 
ATOM      8  C   UNL     1       2.163   5.146  20.116  0.00  0.00    +0.000 A 
ATOM      9  F   UNL     1       1.054   5.151  20.869  0.00  0.00    +0.000 F 
ATOM     10  C   UNL     1       2.993   4.031  20.090  0.00  0.00    +0.000 A 
ATOM     11  F   UNL     1       2.672   2.946  20.808  0.00  0.00    +0.000 F 
ATOM     12  C   UNL     1       4.154   4.033  19.314  0.00  0.00    +0.000 A 
ATOM     13  F   UNL     1       4.915   2.933  19.293  0.00  0.00    +0.000 F 
ENDBRANCH   1   3
BRANCH   1  14
ATOM     14  O   UNL     1       6.658   6.422  18.583  0.00  0.00    +0.000 OA
BRANCH  14  16
ATOM     15  C   UNL     1       7.853   8.270  17.614  0.00  0.00    +0.000 C 
ATOM     16  C   UNL     1       7.952   6.883  18.209  0.00  0.00    +0.000 C 
ENDBRANCH  14  16
ENDBRANCH   1  14
BRANCH   1  17
ATOM     17  C   UNL     1       5.462   3.920  16.351  0.00  0.00    +0.000 C 
BRANCH  17  18
ATOM     18  C   UNL     1       6.091   4.097  14.959  0.00  0.00    +0.000 A 
ATOM     19  C   UNL     1       7.151   4.989  14.765  0.00  0.00    +0.000 A 
ATOM     20  C   UNL     1       7.681   5.187  13.486  0.00  0.00    +0.000 A 
ATOM     21  C   UNL     1       7.164   4.499  12.388  0.00  0.00    +0.000 A 
ATOM     22  C   UNL     1       6.125   3.594  12.568  0.00  0.00    +0.000 A 
ATOM     23  C   UNL     1       5.605   3.382  13.844  0.00  0.00    +0.000 A 
ENDBRANCH  17  18
BRANCH  17  24
ATOM     24  O   UNL     1       4.046   4.161  16.199  0.00  0.00    +0.000 OA
ATOM     25  H   UNL     1       3.690   3.487  15.589  0.00  0.00    +0.000 HD
ENDBRANCH  17  24
ENDBRANCH   1  17
TORSDOF 6
ENDMDL
MODEL 8
REMARK VINA RESULT:      -7.2      2.931      4.501
REMARK  Name = 
REMARK  7 active torsions:
REMARK  status: ('A' for Active; 'I' for Inactive)
REMARK    1  A    between atoms: C_1  and  C_2
REMARK    2  A    between atoms: C_2  and  O_3
REMARK    3  A    between atoms: O_3  and  P_4
REMARK    4  A    between atoms: P_4  and  C_6
REMARK    5  A    between atoms: P_4  and  C_17
REMARK    6  A    between atoms: C_17  and  O_18
REMARK    7  A    between atoms: C_17  and  C_19
REMARK                            x       y       z     vdW  Elec       q    Type
REMARK                         _______ _______ _______ _____ _____    ______ ____
ROOT
ATOM      1  P   UNL     1       5.459   4.891  18.108  0.00  0.00    +0.000 P 
ATOM      2  O   UNL     1       5.462   3.699  19.084  0.00  0.00    +0.000 OA
ENDROOT
BRANCH   1   3
ATOM      3  C   UNL     1       4.045   6.081  18.514  0.00  0.00    +0.000 A 
ATOM      4  C   UNL     1       3.751   7.124  17.635  0.00  0.00    +0.000 A 
ATOM      5  F   UNL     1       4.436   7.240  16.486  0.00  0.00    +0.000 F 
ATOM      6  C   UNL     1       2.746   8.050  17.932  0.00  0.00    +0.000 A 
ATOM      7  F   UNL     1       2.494   9.060  17.087  0.00  0.00    +0.000 F 
ATOM      8  C   UNL     1       2.000   7.929  19.099  0.00  0.00    +0.000 A 
ATOM      9  F   UNL     1       1.030   8.813  19.377  0.00  0.00    +0.000 F 
ATOM     10  C   UNL     1       2.261   6.874  19.966  0.00  0.00    +0.000 A 
ATOM     11  F   UNL     1       1.525   6.727  21.077  0.00  0.00    +0.000 F 
ATOM     12  C   UNL     1       3.281   5.962  19.682  0.00  0.00    +0.000 A 
ATOM     13  F   UNL     1       3.486   4.945  20.526  0.00  0.00    +0.000 F 
ENDBRANCH   1   3
BRANCH   1  14
ATOM     14  O   UNL     1       6.440   5.789  19.214  0.00  0.00    +0.000 OA
BRANCH  14  16
ATOM     15  C   UNL     1       7.659   7.312  17.807  0.00  0.00    +0.000 C 
ATOM     16  C   UNL     1       7.724   6.069  18.668  0.00  0.00    +0.000 C 
ENDBRANCH  14  16
ENDBRANCH   1  14
BRANCH   1  17
ATOM     17  C   UNL     1       4.421   3.941  16.937  0.00  0.00    +0.000 C 
BRANCH  17  18
ATOM     18  C   UNL     1       3.197   3.353  17.659  0.00  0.00    +0.000 A 
ATOM     19  C   UNL     1       3.309   2.176  18.404  0.00  0.00    +0.000 A 
ATOM     20  C   UNL     1       2.180   1.615  19.011  0.00  0.00    +0.000 A 
ATOM     21  C   UNL     1       0.929   2.222  18.883  0.00  0.00    +0.000 A 
ATOM     22  C   UNL     1       0.806   3.404  18.163  0.00  0.00    +0.000 A 
ATOM     23  C   UNL     1       1.933   3.973  17.571  0.00  0.00    +0.000 A 
ENDBRANCH  17  18
BRANCH  17  24
ATOM     24  O   UNL     1       5.225   2.821  16.506  0.00  0.00    +0.000 OA
ATOM     25  H   UNL     1       4.651   2.032  16.478  0.00  0.00    +0.000 HD
ENDBRANCH  17  24
ENDBRANCH   1  17
TORSDOF 6
ENDMDL
MODEL 9
REMARK VINA RESULT:      -7.1      2.468      6.037
REMARK  Name = 
REMARK  7 active torsions:
REMARK  status: ('A' for Active; 'I' for Inactive)
REMARK    1  A    between atoms: C_1  and  C_2
REMARK    2  A    between atoms: C_2  and  O_3
REMARK    3  A    between atoms: O_3  and  P_4
REMARK    4  A    between atoms: P_4  and  C_6
REMARK    5  A    between atoms: P_4  and  C_17
REMARK    6  A    between atoms: C_17  and  O_18
REMARK    7  A    between atoms: C_17  and  C_19
REMARK                            x       y       z     vdW  Elec       q    Type
REMARK                         _______ _______ _______ _____ _____    ______ ____
ROOT
ATOM      1  P   UNL     1       4.125   4.630  17.222  0.00  0.00    +0.000 P 
ATOM      2  O   UNL     1       3.904   3.349  18.051  0.00  0.00    +0.000 OA
ENDROOT
BRANCH   1   3
ATOM      3  C   UNL     1       5.645   5.570  17.843  0.00  0.00    +0.000 A 
ATOM      4  C   UNL     1       6.044   6.737  17.189  0.00  0.00    +0.000 A 
ATOM      5  F   UNL     1       5.317   7.208  16.165  0.00  0.00    +0.000 F 
ATOM      6  C   UNL     1       7.192   7.426  17.592  0.00  0.00    +0.000 A 
ATOM      7  F   UNL     1       7.575   8.532  16.936  0.00  0.00    +0.000 F 
ATOM      8  C   UNL     1       7.942   6.975  18.673  0.00  0.00    +0.000 A 
ATOM      9  F   UNL     1       9.037   7.644  19.063  0.00  0.00    +0.000 F 
ATOM     10  C   UNL     1       7.534   5.833  19.353  0.00  0.00    +0.000 A 
ATOM     11  F   UNL     1       8.229   5.409  20.418  0.00  0.00    +0.000 F 
ATOM     12  C   UNL     1       6.400   5.131  18.937  0.00  0.00    +0.000 A 
ATOM     13  F   UNL     1       6.024   4.051  19.631  0.00  0.00    +0.000 F 
ENDBRANCH   1   3
BRANCH   1  14
ATOM     14  O   UNL     1       5.182   3.755  16.169  0.00  0.00    +0.000 OA
BRANCH  14  16
ATOM     15  C   UNL     1       6.606   4.425  14.350  0.00  0.00    +0.000 C 
ATOM     16  C   UNL     1       5.185   4.304  14.856  0.00  0.00    +0.000 C 
ENDBRANCH  14  16
ENDBRANCH   1  14
BRANCH   1  17
ATOM     17  C   UNL     1       3.006   5.554  18.337  0.00  0.00    +0.000 C 
BRANCH  17  18
ATOM     18  C   UNL     1       2.337   4.600  19.340  0.00  0.00    +0.000 A 
ATOM     19  C   UNL     1       2.775   4.542  20.667  0.00  0.00    +0.000 A 
ATOM     20  C   UNL     1       2.201   3.631  21.561  0.00  0.00    +0.000 A 
ATOM     21  C   UNL     1       1.185   2.771  21.143  0.00  0.00    +0.000 A 
ATOM     22  C   UNL     1       0.724   2.832  19.833  0.00  0.00    +0.000 A 
ATOM     23  C   UNL     1       1.283   3.749  18.945  0.00  0.00    +0.000 A 
ENDBRANCH  17  18
BRANCH  17  24
ATOM     24  O   UNL     1       1.952   6.082  17.501  0.00  0.00    +0.000 OA
ATOM     25  H   UNL     1       2.045   7.053  17.478  0.00  0.00    +0.000 HD
ENDBRANCH  17  24
ENDBRANCH   1  17
TORSDOF 6
ENDMDL
