MODEL 1
REMARK VINA RESULT:      -6.9      0.000      0.000
REMARK  Name = 
REMARK  3 active torsions:
REMARK  status: ('A' for Active; 'I' for Inactive)
REMARK    1  A    between atoms: C_1  and  O_2
REMARK    2  A    between atoms: O_2  and  C_3
REMARK    3  A    between atoms: C_9  and  C_10
REMARK                            x       y       z     vdW  Elec       q    Type
REMARK                         _______ _______ _______ _____ _____    ______ ____
ROOT
ATOM      1  C   UNL     1       6.963   5.041  14.845  0.00  0.00    +0.000 C 
ATOM      2  O   UNL     1       5.828   5.018  14.392  0.00  0.00    +0.000 OA
ATOM      3  N   UNL     1       7.356   4.868  16.138  0.00  0.00    +0.000 N 
ATOM      4  C   UNL     1       6.538   4.605  17.205  0.00  0.00    +0.000 A 
ATOM      5  N   UNL     1       6.946   4.629  18.454  0.00  0.00    +0.000 NA
ATOM      6  N   UNL     1       5.922   4.341  19.339  0.00  0.00    +0.000 NA
ATOM      7  C   UNL     1       4.778   4.095  18.726  0.00  0.00    +0.000 A 
ATOM      8  S   UNL     1       4.908   4.162  17.014  0.00  0.00    +0.000 S 
ATOM      9  H   UNL     1       8.327   5.036  16.351  0.00  0.00    +0.000 HD
ENDROOT
BRANCH   7  10
ATOM     10  C   UNL     1       3.514   3.738  19.384  0.00  0.00    +0.000 A 
ATOM     11  C   UNL     1       2.885   2.500  19.194  0.00  0.00    +0.000 A 
ATOM     12  C   UNL     1       1.706   2.235  19.868  0.00  0.00    +0.000 A 
ATOM     13  N   UNL     1       1.114   3.108  20.705  0.00  0.00    +0.000 NA
ATOM     14  C   UNL     1       1.720   4.301  20.870  0.00  0.00    +0.000 A 
ATOM     15  C   UNL     1       2.899   4.660  20.238  0.00  0.00    +0.000 A 
ENDBRANCH   7  10
BRANCH   1  17
ATOM     16  C   UNL     1       7.821   5.208  12.680  0.00  0.00    +0.000 C 
ATOM     17  O   UNL     1       8.064   5.291  14.088  0.00  0.00    +0.000 OA
ENDBRANCH   1  17
TORSDOF 2
ENDMDL
MODEL 2
REMARK VINA RESULT:      -6.9      1.693      2.046
REMARK  Name = 
REMARK  3 active torsions:
REMARK  status: ('A' for Active; 'I' for Inactive)
REMARK    1  A    between atoms: C_1  and  O_2
REMARK    2  A    between atoms: O_2  and  C_3
REMARK    3  A    between atoms: C_9  and  C_10
REMARK                            x       y       z     vdW  Elec       q    Type
REMARK                         _______ _______ _______ _____ _____    ______ ____
ROOT
ATOM      1  C   UNL     1       6.845   4.979  14.696  0.00  0.00    +0.000 C 
ATOM      2  O   UNL     1       6.506   3.806  14.630  0.00  0.00    +0.000 OA
ATOM      3  N   UNL     1       6.299   5.971  15.453  0.00  0.00    +0.000 N 
ATOM      4  C   UNL     1       5.252   5.840  16.327  0.00  0.00    +0.000 A 
ATOM      5  N   UNL     1       4.648   6.861  16.892  0.00  0.00    +0.000 NA
ATOM      6  N   UNL     1       3.614   6.458  17.720  0.00  0.00    +0.000 NA
ATOM      7  C   UNL     1       3.484   5.145  17.763  0.00  0.00    +0.000 A 
ATOM      8  S   UNL     1       4.658   4.323  16.815  0.00  0.00    +0.000 S 
ATOM      9  H   UNL     1       6.633   6.908  15.295  0.00  0.00    +0.000 HD
ENDROOT
BRANCH   7  10
ATOM     10  C   UNL     1       2.497   4.409  18.565  0.00  0.00    +0.000 A 
ATOM     11  C   UNL     1       2.103   4.822  19.845  0.00  0.00    +0.000 A 
ATOM     12  C   UNL     1       1.152   4.083  20.526  0.00  0.00    +0.000 A 
ATOM     13  N   UNL     1       0.575   2.972  20.029  0.00  0.00    +0.000 NA
ATOM     14  C   UNL     1       0.972   2.576  18.802  0.00  0.00    +0.000 A 
ATOM     15  C   UNL     1       1.917   3.246  18.044  0.00  0.00    +0.000 A 
ENDBRANCH   7  10
BRANCH   1  17
ATOM     16  C   UNL     1       7.775   5.182  12.564  0.00  0.00    +0.000 C 
ATOM     17  O   UNL     1       7.856   5.506  13.955  0.00  0.00    +0.000 OA
ENDBRANCH   1  17
TORSDOF 2
ENDMDL
MODEL 3
REMARK VINA RESULT:      -6.8      0.498      1.211
REMARK  Name = 
REMARK  3 active torsions:
REMARK  status: ('A' for Active; 'I' for Inactive)
REMARK    1  A    between atoms: C_1  and  O_2
REMARK    2  A    between atoms: O_2  and  C_3
REMARK    3  A    between atoms: C_9  and  C_10
REMARK                            x       y       z     vdW  Elec       q    Type
REMARK                         _______ _______ _______ _____ _____    ______ ____
ROOT
ATOM      1  C   UNL     1       6.976   5.215  14.897  0.00  0.00    +0.000 C 
ATOM      2  O   UNL     1       5.867   5.345  14.398  0.00  0.00    +0.000 OA
ATOM      3  N   UNL     1       7.287   4.868  16.176  0.00  0.00    +0.000 N 
ATOM      4  C   UNL     1       6.398   4.566  17.173  0.00  0.00    +0.000 A 
ATOM      5  N   UNL     1       6.743   4.417  18.432  0.00  0.00    +0.000 NA
ATOM      6  N   UNL     1       5.655   4.130  19.238  0.00  0.00    +0.000 NA
ATOM      7  C   UNL     1       4.526   4.058  18.555  0.00  0.00    +0.000 A 
ATOM      8  S   UNL     1       4.746   4.298  16.868  0.00  0.00    +0.000 S 
ATOM      9  H   UNL     1       8.257   4.922  16.445  0.00  0.00    +0.000 HD
ENDROOT
BRANCH   7  10
ATOM     10  C   UNL     1       3.204   3.748  19.118  0.00  0.00    +0.000 A 
ATOM     11  C   UNL     1       2.744   4.308  20.318  0.00  0.00    +0.000 A 
ATOM     12  C   UNL     1       1.478   3.979  20.769  0.00  0.00    +0.000 A 
ATOM     13  N   UNL     1       0.649   3.140  20.119  0.00  0.00    +0.000 NA
ATOM     14  C   UNL     1       1.108   2.598  18.972  0.00  0.00    +0.000 A 
ATOM     15  C   UNL     1       2.359   2.862  18.442  0.00  0.00    +0.000 A 
ENDBRANCH   7  10
BRANCH   1  17
ATOM     16  C   UNL     1       7.989   5.344  12.796  0.00  0.00    +0.000 C 
ATOM     17  O   UNL     1       8.131   5.445  14.217  0.00  0.00    +0.000 OA
ENDBRANCH   1  17
TORSDOF 2
ENDMDL
MODEL 4
REMARK VINA RESULT:      -6.7      1.683      1.697
REMARK  Name = 
REMARK  3 active torsions:
REMARK  status: ('A' for Active; 'I' for Inactive)
REMARK    1  A    between atoms: C_1  and  O_2
REMARK    2  A    between atoms: O_2  and  C_3
REMARK    3  A    between atoms: C_9  and  C_10
REMARK                            x       y       z     vdW  Elec       q    Type
REMARK                         _______ _______ _______ _____ _____    ______ ____
ROOT
ATOM      1  C   UNL     1       6.847   5.009  14.798  0.00  0.00    +0.000 C 
ATOM      2  O   UNL     1       6.584   3.816  14.814  0.00  0.00    +0.000 OA
ATOM      3  N   UNL     1       6.244   6.012  15.494  0.00  0.00    +0.000 N 
ATOM      4  C   UNL     1       5.214   5.874  16.386  0.00  0.00    +0.000 A 
ATOM      5  N   UNL     1       4.549   6.890  16.889  0.00  0.00    +0.000 NA
ATOM      6  N   UNL     1       3.549   6.479  17.753  0.00  0.00    +0.000 NA
ATOM      7  C   UNL     1       3.504   5.165  17.885  0.00  0.00    +0.000 A 
ATOM      8  S   UNL     1       4.722   4.359  16.980  0.00  0.00    +0.000 S 
ATOM      9  H   UNL     1       6.516   6.957  15.270  0.00  0.00    +0.000 HD
ENDROOT
BRANCH   7  10
ATOM     10  C   UNL     1       2.572   4.423  18.745  0.00  0.00    +0.000 A 
ATOM     11  C   UNL     1       1.668   3.478  18.241  0.00  0.00    +0.000 A 
ATOM     12  C   UNL     1       0.838   2.808  19.122  0.00  0.00    +0.000 A 
ATOM     13  N   UNL     1       0.841   3.014  20.453  0.00  0.00    +0.000 NA
ATOM     14  C   UNL     1       1.705   3.935  20.924  0.00  0.00    +0.000 A 
ATOM     15  C   UNL     1       2.573   4.659  20.124  0.00  0.00    +0.000 A 
ENDBRANCH   7  10
BRANCH   1  17
ATOM     16  C   UNL     1       7.756   5.117  12.650  0.00  0.00    +0.000 C 
ATOM     17  O   UNL     1       7.817   5.549  14.013  0.00  0.00    +0.000 OA
ENDBRANCH   1  17
TORSDOF 2
ENDMDL
MODEL 5
REMARK VINA RESULT:      -6.3      1.577      1.598
REMARK  Name = 
REMARK  3 active torsions:
REMARK  status: ('A' for Active; 'I' for Inactive)
REMARK    1  A    between atoms: C_1  and  O_2
REMARK    2  A    between atoms: O_2  and  C_3
REMARK    3  A    between atoms: C_9  and  C_10
REMARK                            x       y       z     vdW  Elec       q    Type
REMARK                         _______ _______ _______ _____ _____    ______ ____
ROOT
ATOM      1  C   UNL     1       6.853   4.965  14.795  0.00  0.00    +0.000 C 
ATOM      2  O   UNL     1       6.624   3.765  14.847  0.00  0.00    +0.000 OA
ATOM      3  N   UNL     1       6.296   5.960  15.540  0.00  0.00    +0.000 N 
ATOM      4  C   UNL     1       5.365   5.806  16.532  0.00  0.00    +0.000 A 
ATOM      5  N   UNL     1       4.727   6.810  17.090  0.00  0.00    +0.000 NA
ATOM      6  N   UNL     1       3.830   6.383  18.054  0.00  0.00    +0.000 NA
ATOM      7  C   UNL     1       3.832   5.071  18.200  0.00  0.00    +0.000 A 
ATOM      8  S   UNL     1       4.974   4.285  17.184  0.00  0.00    +0.000 S 
ATOM      9  H   UNL     1       6.520   6.909  15.282  0.00  0.00    +0.000 HD
ENDROOT
BRANCH   7  10
ATOM     10  C   UNL     1       3.010   4.315  19.155  0.00  0.00    +0.000 A 
ATOM     11  C   UNL     1       3.531   3.289  19.955  0.00  0.00    +0.000 A 
ATOM     12  C   UNL     1       2.693   2.640  20.844  0.00  0.00    +0.000 A 
ATOM     13  N   UNL     1       1.386   2.935  20.988  0.00  0.00    +0.000 NA
ATOM     14  C   UNL     1       0.893   3.914  20.204  0.00  0.00    +0.000 A 
ATOM     15  C   UNL     1       1.650   4.619  19.283  0.00  0.00    +0.000 A 
ENDBRANCH   7  10
BRANCH   1  17
ATOM     16  C   UNL     1       7.627   4.976  12.592  0.00  0.00    +0.000 C 
ATOM     17  O   UNL     1       7.725   5.520  13.912  0.00  0.00    +0.000 OA
ENDBRANCH   1  17
TORSDOF 2
ENDMDL
MODEL 6
REMARK VINA RESULT:      -6.1      1.029      1.503
REMARK  Name = 
REMARK  3 active torsions:
REMARK  status: ('A' for Active; 'I' for Inactive)
REMARK    1  A    between atoms: C_1  and  O_2
REMARK    2  A    between atoms: O_2  and  C_3
REMARK    3  A    between atoms: C_9  and  C_10
REMARK                            x       y       z     vdW  Elec       q    Type
REMARK                         _______ _______ _______ _____ _____    ______ ____
ROOT
ATOM      1  C   UNL     1       6.523   4.355  14.026  0.00  0.00    +0.000 C 
ATOM      2  O   UNL     1       5.316   4.270  13.853  0.00  0.00    +0.000 OA
ATOM      3  N   UNL     1       7.199   4.442  15.205  0.00  0.00    +0.000 N 
ATOM      4  C   UNL     1       6.648   4.427  16.458  0.00  0.00    +0.000 A 
ATOM      5  N   UNL     1       7.325   4.697  17.551  0.00  0.00    +0.000 NA
ATOM      6  N   UNL     1       6.531   4.627  18.684  0.00  0.00    +0.000 NA
ATOM      7  C   UNL     1       5.284   4.290  18.406  0.00  0.00    +0.000 A 
ATOM      8  S   UNL     1       5.025   3.999  16.733  0.00  0.00    +0.000 S 
ATOM      9  H   UNL     1       8.190   4.623  15.156  0.00  0.00    +0.000 HD
ENDROOT
BRANCH   7  10
ATOM     10  C   UNL     1       4.208   4.112  19.390  0.00  0.00    +0.000 A 
ATOM     11  C   UNL     1       3.365   5.159  19.788  0.00  0.00    +0.000 A 
ATOM     12  C   UNL     1       2.362   4.901  20.705  0.00  0.00    +0.000 A 
ATOM     13  N   UNL     1       2.144   3.690  21.251  0.00  0.00    +0.000 NA
ATOM     14  C   UNL     1       2.969   2.693  20.872  0.00  0.00    +0.000 A 
ATOM     15  C   UNL     1       4.002   2.852  19.963  0.00  0.00    +0.000 A 
ENDBRANCH   7  10
BRANCH   1  17
ATOM     16  C   UNL     1       8.165   5.635  12.968  0.00  0.00    +0.000 C 
ATOM     17  O   UNL     1       7.421   4.413  13.006  0.00  0.00    +0.000 OA
ENDBRANCH   1  17
TORSDOF 2
ENDMDL
MODEL 7
REMARK VINA RESULT:      -6.1      1.092      1.125
REMARK  Name = 
REMARK  3 active torsions:
REMARK  status: ('A' for Active; 'I' for Inactive)
REMARK    1  A    between atoms: C_1  and  O_2
REMARK    2  A    between atoms: O_2  and  C_3
REMARK    3  A    between atoms: C_9  and  C_10
REMARK                            x       y       z     vdW  Elec       q    Type
REMARK                         _______ _______ _______ _____ _____    ______ ____
ROOT
ATOM      1  C   UNL     1       6.332   4.294  13.889  0.00  0.00    +0.000 C 
ATOM      2  O   UNL     1       5.123   4.189  13.745  0.00  0.00    +0.000 OA
ATOM      3  N   UNL     1       7.035   4.395  15.051  0.00  0.00    +0.000 N 
ATOM      4  C   UNL     1       6.513   4.374  16.317  0.00  0.00    +0.000 A 
ATOM      5  N   UNL     1       7.212   4.658  17.394  0.00  0.00    +0.000 NA
ATOM      6  N   UNL     1       6.446   4.578  18.545  0.00  0.00    +0.000 NA
ATOM      7  C   UNL     1       5.199   4.222  18.297  0.00  0.00    +0.000 A 
ATOM      8  S   UNL     1       4.904   3.922  16.631  0.00  0.00    +0.000 S 
ATOM      9  H   UNL     1       8.021   4.591  14.978  0.00  0.00    +0.000 HD
ENDROOT
BRANCH   7  10
ATOM     10  C   UNL     1       4.148   4.029  19.307  0.00  0.00    +0.000 A 
ATOM     11  C   UNL     1       3.924   2.798  19.940  0.00  0.00    +0.000 A 
ATOM     12  C   UNL     1       2.927   2.706  20.894  0.00  0.00    +0.000 A 
ATOM     13  N   UNL     1       2.144   3.740  21.257  0.00  0.00    +0.000 NA
ATOM     14  C   UNL     1       2.359   4.915  20.632  0.00  0.00    +0.000 A 
ATOM     15  C   UNL     1       3.330   5.106  19.662  0.00  0.00    +0.000 A 
ENDBRANCH   7  10
BRANCH   1  17
ATOM     16  C   UNL     1       8.135   5.446  12.952  0.00  0.00    +0.000 C 
ATOM     17  O   UNL     1       7.205   4.364  12.848  0.00  0.00    +0.000 OA
ENDBRANCH   1  17
TORSDOF 2
ENDMDL
MODEL 8
REMARK VINA RESULT:      -6.1      2.656      6.686
REMARK  Name = 
REMARK  3 active torsions:
REMARK  status: ('A' for Active; 'I' for Inactive)
REMARK    1  A    between atoms: C_1  and  O_2
REMARK    2  A    between atoms: O_2  and  C_3
REMARK    3  A    between atoms: C_9  and  C_10
REMARK                            x       y       z     vdW  Elec       q    Type
REMARK                         _______ _______ _______ _____ _____    ______ ____
ROOT
ATOM      1  C   UNL     1       3.405   3.786  19.351  0.00  0.00    +0.000 C 
ATOM      2  O   UNL     1       2.704   3.402  18.426  0.00  0.00    +0.000 OA
ATOM      3  N   UNL     1       4.702   4.202  19.306  0.00  0.00    +0.000 N 
ATOM      4  C   UNL     1       5.484   4.296  18.186  0.00  0.00    +0.000 A 
ATOM      5  N   UNL     1       6.777   4.526  18.223  0.00  0.00    +0.000 NA
ATOM      6  N   UNL     1       7.334   4.559  16.955  0.00  0.00    +0.000 NA
ATOM      7  C   UNL     1       6.438   4.367  16.005  0.00  0.00    +0.000 A 
ATOM      8  S   UNL     1       4.843   4.175  16.615  0.00  0.00    +0.000 S 
ATOM      9  H   UNL     1       5.161   4.374  20.186  0.00  0.00    +0.000 HD
ENDROOT
BRANCH   7  10
ATOM     10  C   UNL     1       6.709   4.366  14.560  0.00  0.00    +0.000 A 
ATOM     11  C   UNL     1       6.042   3.518  13.666  0.00  0.00    +0.000 A 
ATOM     12  C   UNL     1       6.343   3.595  12.318  0.00  0.00    +0.000 A 
ATOM     13  N   UNL     1       7.253   4.444  11.804  0.00  0.00    +0.000 NA
ATOM     14  C   UNL     1       7.898   5.246  12.675  0.00  0.00    +0.000 A 
ATOM     15  C   UNL     1       7.669   5.241  14.041  0.00  0.00    +0.000 A 
ENDBRANCH   7  10
BRANCH   1  17
ATOM     16  C   UNL     1       2.066   4.891  20.912  0.00  0.00    +0.000 C 
ATOM     17  O   UNL     1       2.982   3.826  20.642  0.00  0.00    +0.000 OA
ENDBRANCH   1  17
TORSDOF 2
ENDMDL
MODEL 9
REMARK VINA RESULT:      -6.1      2.652      6.742
REMARK  Name = 
REMARK  3 active torsions:
REMARK  status: ('A' for Active; 'I' for Inactive)
REMARK    1  A    between atoms: C_1  and  O_2
REMARK    2  A    between atoms: O_2  and  C_3
REMARK    3  A    between atoms: C_9  and  C_10
REMARK                            x       y       z     vdW  Elec       q    Type
REMARK                         _______ _______ _______ _____ _____    ______ ____
ROOT
ATOM      1  C   UNL     1       3.352   4.742  19.386  0.00  0.00    +0.000 C 
ATOM      2  O   UNL     1       2.580   4.562  18.456  0.00  0.00    +0.000 OA
ATOM      3  N   UNL     1       4.712   4.812  19.347  0.00  0.00    +0.000 N 
ATOM      4  C   UNL     1       5.497   4.716  18.229  0.00  0.00    +0.000 A 
ATOM      5  N   UNL     1       6.806   4.606  18.271  0.00  0.00    +0.000 NA
ATOM      6  N   UNL     1       7.358   4.511  17.004  0.00  0.00    +0.000 NA
ATOM      7  C   UNL     1       6.446   4.566  16.050  0.00  0.00    +0.000 A 
ATOM      8  S   UNL     1       4.854   4.782  16.657  0.00  0.00    +0.000 S 
ATOM      9  H   UNL     1       5.196   4.850  20.231  0.00  0.00    +0.000 HD
ENDROOT
BRANCH   7  10
ATOM     10  C   UNL     1       6.715   4.514  14.606  0.00  0.00    +0.000 A 
ATOM     11  C   UNL     1       7.672   5.328  13.985  0.00  0.00    +0.000 A 
ATOM     12  C   UNL     1       7.877   5.202  12.623  0.00  0.00    +0.000 A 
ATOM     13  N   UNL     1       7.203   4.334  11.844  0.00  0.00    +0.000 NA
ATOM     14  C   UNL     1       6.276   3.566  12.450  0.00  0.00    +0.000 A 
ATOM     15  C   UNL     1       5.995   3.620  13.806  0.00  0.00    +0.000 A 
ENDBRANCH   7  10
BRANCH   1  17
ATOM     16  C   UNL     1       1.932   3.938  21.056  0.00  0.00    +0.000 C 
ATOM     17  O   UNL     1       2.948   4.873  20.677  0.00  0.00    +0.000 OA
ENDBRANCH   1  17
TORSDOF 2
ENDMDL
