MODEL 1
REMARK VINA RESULT:      -9.0      0.000      0.000
REMARK  Name = 
REMARK  13 active torsions:
REMARK  status: ('A' for Active; 'I' for Inactive)
REMARK    1  A    between atoms: C_1  and  C_2
REMARK    2  A    between atoms: C_8  and  C_9
REMARK    3  A    between atoms: C_12  and  O_13
REMARK    4  A    between atoms: O_13  and  C_14
REMARK    5  A    between atoms: C_14  and  C_15
REMARK    6  A    between atoms: C_15  and  C_16
REMARK    7  A    between atoms: C_16  and  N_17
REMARK    8  A    between atoms: N_17  and  C_18
REMARK    9  A    between atoms: N_17  and  C_26
REMARK   10  A    between atoms: C_18  and  C_19
REMARK   11  A    between atoms: C_18  and  C_20
REMARK   12  A    between atoms: C_26  and  C_27
REMARK   13  A    between atoms: C_26  and  C_28
REMARK                            x       y       z     vdW  Elec       q    Type
REMARK                         _______ _______ _______ _____ _____    ______ ____
ROOT
ATOM      1  C   UNL     1       2.391   6.460  18.129  0.00  0.00    +0.000 C 
ENDROOT
BRANCH   1   2
ATOM      2  C   UNL     1       2.582   7.650  19.045  0.00  0.00    +0.000 C 
BRANCH   2   3
ATOM      3  O   UNL     1       1.823   7.430  20.236  0.00  0.00    +0.000 OA
BRANCH   3   7
ATOM      4  C   UNL     1      -0.078  10.710  21.963  0.00  0.00    +0.000 A 
ATOM      5  C   UNL     1       0.194  10.730  20.593  0.00  0.00    +0.000 A 
ATOM      6  C   UNL     1       0.844   9.659  19.991  0.00  0.00    +0.000 A 
ATOM      7  C   UNL     1       1.228   8.551  20.747  0.00  0.00    +0.000 A 
ATOM      8  C   UNL     1       0.996   8.543  22.124  0.00  0.00    +0.000 A 
ATOM      9  C   UNL     1       0.350   9.622  22.731  0.00  0.00    +0.000 A 
BRANCH   4  17
ATOM     10  C   UNL     1      -0.125  16.024  23.596  0.00  0.00    +0.000 C 
ATOM     11  C   UNL     1      -1.298  15.100  23.788  0.00  0.00    +0.000 A 
ATOM     12  C   UNL     1      -2.438  15.536  24.371  0.00  0.00    +0.000 A 
ATOM     13  C   UNL     1      -3.604  14.682  24.566  0.00  0.00    +0.000 A 
ATOM     14  C   UNL     1      -3.551  13.410  24.145  0.00  0.00    +0.000 A 
ATOM     15  N   UNL     1      -2.385  12.952  23.544  0.00  0.00    +0.000 N 
ATOM     16  C   UNL     1      -2.104  11.713  23.043  0.00  0.00    +0.000 A 
ATOM     17  C   UNL     1      -0.809  11.795  22.574  0.00  0.00    +0.000 A 
ATOM     18  N   UNL     1      -0.287  13.045  22.786  0.00  0.00    +0.000 NA
ATOM     19  C   UNL     1      -1.252  13.730  23.354  0.00  0.00    +0.000 A 
ENDBRANCH   4  17
ENDBRANCH   3   7
ENDBRANCH   2   3
ENDBRANCH   1   2
BRANCH   1  20
ATOM     20  C   UNL     1       3.616   5.543  18.113  0.00  0.00    +0.000 C 
BRANCH  20  21
ATOM     21  N   UNL     1       3.784   4.515  17.048  0.00  0.00    +0.000 NA
BRANCH  21  22
ATOM     22  C   UNL     1       5.219   4.255  16.660  0.00  0.00    +0.000 C 
ATOM     23  C   UNL     1       5.473   4.060  15.149  0.00  0.00    +0.000 C 
BRANCH  22  24
ATOM     24  C   UNL     1       6.236   5.205  17.283  0.00  0.00    +0.000 A 
ATOM     25  C   UNL     1       6.922   4.821  18.447  0.00  0.00    +0.000 A 
ATOM     26  C   UNL     1       7.768   5.715  19.102  0.00  0.00    +0.000 A 
ATOM     27  C   UNL     1       7.955   6.998  18.596  0.00  0.00    +0.000 A 
ATOM     28  C   UNL     1       7.324   7.377  17.416  0.00  0.00    +0.000 A 
ATOM     29  C   UNL     1       6.490   6.481  16.757  0.00  0.00    +0.000 A 
ENDBRANCH  22  24
ENDBRANCH  21  22
BRANCH  21  30
ATOM     30  C   UNL     1       3.091   3.241  17.502  0.00  0.00    +0.000 C 
ATOM     31  C   UNL     1       3.952   1.960  17.362  0.00  0.00    +0.000 C 
BRANCH  30  32
ATOM     32  C   UNL     1       2.603   3.214  18.956  0.00  0.00    +0.000 A 
ATOM     33  C   UNL     1       1.226   3.370  19.217  0.00  0.00    +0.000 A 
ATOM     34  C   UNL     1       0.723   3.254  20.513  0.00  0.00    +0.000 A 
ATOM     35  C   UNL     1       1.588   2.987  21.570  0.00  0.00    +0.000 A 
ATOM     36  C   UNL     1       2.953   2.825  21.329  0.00  0.00    +0.000 A 
ATOM     37  C   UNL     1       3.455   2.923  20.029  0.00  0.00    +0.000 A 
ENDBRANCH  30  32
ENDBRANCH  21  30
ENDBRANCH  20  21
ENDBRANCH   1  20
TORSDOF 10
ENDMDL
MODEL 2
REMARK VINA RESULT:      -8.9      1.236      2.019
REMARK  Name = 
REMARK  13 active torsions:
REMARK  status: ('A' for Active; 'I' for Inactive)
REMARK    1  A    between atoms: C_1  and  C_2
REMARK    2  A    between atoms: C_8  and  C_9
REMARK    3  A    between atoms: C_12  and  O_13
REMARK    4  A    between atoms: O_13  and  C_14
REMARK    5  A    between atoms: C_14  and  C_15
REMARK    6  A    between atoms: C_15  and  C_16
REMARK    7  A    between atoms: C_16  and  N_17
REMARK    8  A    between atoms: N_17  and  C_18
REMARK    9  A    between atoms: N_17  and  C_26
REMARK   10  A    between atoms: C_18  and  C_19
REMARK   11  A    between atoms: C_18  and  C_20
REMARK   12  A    between atoms: C_26  and  C_27
REMARK   13  A    between atoms: C_26  and  C_28
REMARK                            x       y       z     vdW  Elec       q    Type
REMARK                         _______ _______ _______ _____ _____    ______ ____
ROOT
ATOM      1  C   UNL     1       2.485   7.074  18.412  0.00  0.00    +0.000 C 
ENDROOT
BRANCH   1   2
ATOM      2  C   UNL     1       2.901   8.346  17.703  0.00  0.00    +0.000 C 
BRANCH   2   3
ATOM      3  O   UNL     1       1.723   9.096  17.394  0.00  0.00    +0.000 OA
BRANCH   3   7
ATOM      4  C   UNL     1       0.271  11.601  20.389  0.00  0.00    +0.000 A 
ATOM      5  C   UNL     1       1.352  12.028  19.615  0.00  0.00    +0.000 A 
ATOM      6  C   UNL     1       1.871  11.208  18.621  0.00  0.00    +0.000 A 
ATOM      7  C   UNL     1       1.317   9.950  18.382  0.00  0.00    +0.000 A 
ATOM      8  C   UNL     1       0.263   9.500  19.180  0.00  0.00    +0.000 A 
ATOM      9  C   UNL     1      -0.255  10.320  20.185  0.00  0.00    +0.000 A 
BRANCH   4  17
ATOM     10  C   UNL     1      -3.793  12.520  24.070  0.00  0.00    +0.000 C 
ATOM     11  C   UNL     1      -2.686  13.507  23.812  0.00  0.00    +0.000 A 
ATOM     12  C   UNL     1      -2.630  14.680  24.484  0.00  0.00    +0.000 A 
ATOM     13  C   UNL     1      -1.570  15.661  24.277  0.00  0.00    +0.000 A 
ATOM     14  C   UNL     1      -0.604  15.390  23.388  0.00  0.00    +0.000 A 
ATOM     15  N   UNL     1      -0.651  14.188  22.692  0.00  0.00    +0.000 N 
ATOM     16  C   UNL     1       0.210  13.703  21.750  0.00  0.00    +0.000 A 
ATOM     17  C   UNL     1      -0.307  12.479  21.379  0.00  0.00    +0.000 A 
ATOM     18  N   UNL     1      -1.468  12.209  22.056  0.00  0.00    +0.000 NA
ATOM     19  C   UNL     1      -1.650  13.239  22.852  0.00  0.00    +0.000 A 
ENDBRANCH   4  17
ENDBRANCH   3   7
ENDBRANCH   2   3
ENDBRANCH   1   2
BRANCH   1  20
ATOM     20  C   UNL     1       3.570   5.997  18.342  0.00  0.00    +0.000 C 
BRANCH  20  21
ATOM     21  N   UNL     1       3.710   5.136  17.134  0.00  0.00    +0.000 NA
BRANCH  21  22
ATOM     22  C   UNL     1       5.126   5.008  16.626  0.00  0.00    +0.000 C 
ATOM     23  C   UNL     1       5.312   5.246  15.111  0.00  0.00    +0.000 C 
BRANCH  22  24
ATOM     24  C   UNL     1       6.173   5.755  17.446  0.00  0.00    +0.000 A 
ATOM     25  C   UNL     1       6.584   7.035  17.045  0.00  0.00    +0.000 A 
ATOM     26  C   UNL     1       7.621   7.691  17.707  0.00  0.00    +0.000 A 
ATOM     27  C   UNL     1       8.251   7.084  18.790  0.00  0.00    +0.000 A 
ATOM     28  C   UNL     1       7.822   5.838  19.233  0.00  0.00    +0.000 A 
ATOM     29  C   UNL     1       6.780   5.190  18.579  0.00  0.00    +0.000 A 
ENDBRANCH  22  24
ENDBRANCH  21  22
BRANCH  21  30
ATOM     30  C   UNL     1       3.106   3.777  17.445  0.00  0.00    +0.000 C 
ATOM     31  C   UNL     1       4.053   2.580  17.179  0.00  0.00    +0.000 C 
BRANCH  30  32
ATOM     32  C   UNL     1       2.618   3.563  18.883  0.00  0.00    +0.000 A 
ATOM     33  C   UNL     1       1.251   3.745  19.175  0.00  0.00    +0.000 A 
ATOM     34  C   UNL     1       0.743   3.466  20.444  0.00  0.00    +0.000 A 
ATOM     35  C   UNL     1       1.594   3.009  21.444  0.00  0.00    +0.000 A 
ATOM     36  C   UNL     1       2.950   2.820  21.173  0.00  0.00    +0.000 A 
ATOM     37  C   UNL     1       3.455   3.081  19.897  0.00  0.00    +0.000 A 
ENDBRANCH  30  32
ENDBRANCH  21  30
ENDBRANCH  20  21
ENDBRANCH   1  20
TORSDOF 10
ENDMDL
MODEL 3
REMARK VINA RESULT:      -8.8      5.532      8.283
REMARK  Name = 
REMARK  13 active torsions:
REMARK  status: ('A' for Active; 'I' for Inactive)
REMARK    1  A    between atoms: C_1  and  C_2
REMARK    2  A    between atoms: C_8  and  C_9
REMARK    3  A    between atoms: C_12  and  O_13
REMARK    4  A    between atoms: O_13  and  C_14
REMARK    5  A    between atoms: C_14  and  C_15
REMARK    6  A    between atoms: C_15  and  C_16
REMARK    7  A    between atoms: C_16  and  N_17
REMARK    8  A    between atoms: N_17  and  C_18
REMARK    9  A    between atoms: N_17  and  C_26
REMARK   10  A    between atoms: C_18  and  C_19
REMARK   11  A    between atoms: C_18  and  C_20
REMARK   12  A    between atoms: C_26  and  C_27
REMARK   13  A    between atoms: C_26  and  C_28
REMARK                            x       y       z     vdW  Elec       q    Type
REMARK                         _______ _______ _______ _____ _____    ______ ____
ROOT
ATOM      1  C   UNL     1       7.551   6.269  18.565  0.00  0.00    +0.000 C 
ENDROOT
BRANCH   1   2
ATOM      2  C   UNL     1       7.923   7.612  17.973  0.00  0.00    +0.000 C 
BRANCH   2   3
ATOM      3  O   UNL     1       8.718   8.322  18.927  0.00  0.00    +0.000 OA
BRANCH   3   7
ATOM      4  C   UNL     1       9.214  12.419  18.355  0.00  0.00    +0.000 A 
ATOM      5  C   UNL     1       8.371  11.713  17.494  0.00  0.00    +0.000 A 
ATOM      6  C   UNL     1       8.200  10.343  17.647  0.00  0.00    +0.000 A 
ATOM      7  C   UNL     1       8.864   9.657  18.664  0.00  0.00    +0.000 A 
ATOM      8  C   UNL     1       9.740  10.349  19.502  0.00  0.00    +0.000 A 
ATOM      9  C   UNL     1       9.920  11.725  19.345  0.00  0.00    +0.000 A 
BRANCH   4  17
ATOM     10  C   UNL     1       7.043  17.440  19.347  0.00  0.00    +0.000 C 
ATOM     11  C   UNL     1       8.349  17.242  18.625  0.00  0.00    +0.000 A 
ATOM     12  C   UNL     1       9.067  18.301  18.186  0.00  0.00    +0.000 A 
ATOM     13  C   UNL     1      10.344  18.160  17.495  0.00  0.00    +0.000 A 
ATOM     14  C   UNL     1      10.834  16.930  17.289  0.00  0.00    +0.000 A 
ATOM     15  N   UNL     1      10.106  15.834  17.737  0.00  0.00    +0.000 N 
ATOM     16  C   UNL     1      10.402  14.505  17.640  0.00  0.00    +0.000 A 
ATOM     17  C   UNL     1       9.342  13.852  18.234  0.00  0.00    +0.000 A 
ATOM     18  N   UNL     1       8.399  14.743  18.677  0.00  0.00    +0.000 NA
ATOM     19  C   UNL     1       8.883  15.929  18.384  0.00  0.00    +0.000 A 
ENDBRANCH   4  17
ENDBRANCH   3   7
ENDBRANCH   2   3
ENDBRANCH   1   2
BRANCH   1  20
ATOM     20  C   UNL     1       6.644   5.462  17.635  0.00  0.00    +0.000 C 
BRANCH  20  21
ATOM     21  N   UNL     1       5.163   5.617  17.693  0.00  0.00    +0.000 NA
BRANCH  21  22
ATOM     22  C   UNL     1       4.669   6.992  17.314  0.00  0.00    +0.000 C 
ATOM     23  C   UNL     1       4.529   7.253  15.798  0.00  0.00    +0.000 C 
BRANCH  22  24
ATOM     24  C   UNL     1       3.440   7.468  18.083  0.00  0.00    +0.000 A 
ATOM     25  C   UNL     1       2.700   8.559  17.601  0.00  0.00    +0.000 A 
ATOM     26  C   UNL     1       1.644   9.087  18.343  0.00  0.00    +0.000 A 
ATOM     27  C   UNL     1       1.303   8.524  19.569  0.00  0.00    +0.000 A 
ATOM     28  C   UNL     1       1.992   7.410  20.037  0.00  0.00    +0.000 A 
ATOM     29  C   UNL     1       3.037   6.877  19.291  0.00  0.00    +0.000 A 
ENDBRANCH  22  24
ENDBRANCH  21  22
BRANCH  21  30
ATOM     30  C   UNL     1       4.536   4.542  16.822  0.00  0.00    +0.000 C 
ATOM     31  C   UNL     1       5.549   3.541  16.212  0.00  0.00    +0.000 C 
BRANCH  30  32
ATOM     32  C   UNL     1       3.480   3.654  17.493  0.00  0.00    +0.000 A 
ATOM     33  C   UNL     1       3.895   2.481  18.155  0.00  0.00    +0.000 A 
ATOM     34  C   UNL     1       2.985   1.695  18.863  0.00  0.00    +0.000 A 
ATOM     35  C   UNL     1       1.645   2.064  18.914  0.00  0.00    +0.000 A 
ATOM     36  C   UNL     1       1.217   3.224  18.267  0.00  0.00    +0.000 A 
ATOM     37  C   UNL     1       2.131   4.022  17.574  0.00  0.00    +0.000 A 
ENDBRANCH  30  32
ENDBRANCH  21  30
ENDBRANCH  20  21
ENDBRANCH   1  20
TORSDOF 10
ENDMDL
MODEL 4
REMARK VINA RESULT:      -8.8      1.407      2.265
REMARK  Name = 
REMARK  13 active torsions:
REMARK  status: ('A' for Active; 'I' for Inactive)
REMARK    1  A    between atoms: C_1  and  C_2
REMARK    2  A    between atoms: C_8  and  C_9
REMARK    3  A    between atoms: C_12  and  O_13
REMARK    4  A    between atoms: O_13  and  C_14
REMARK    5  A    between atoms: C_14  and  C_15
REMARK    6  A    between atoms: C_15  and  C_16
REMARK    7  A    between atoms: C_16  and  N_17
REMARK    8  A    between atoms: N_17  and  C_18
REMARK    9  A    between atoms: N_17  and  C_26
REMARK   10  A    between atoms: C_18  and  C_19
REMARK   11  A    between atoms: C_18  and  C_20
REMARK   12  A    between atoms: C_26  and  C_27
REMARK   13  A    between atoms: C_26  and  C_28
REMARK                            x       y       z     vdW  Elec       q    Type
REMARK                         _______ _______ _______ _____ _____    ______ ____
ROOT
ATOM      1  C   UNL     1       2.295   6.443  18.041  0.00  0.00    +0.000 C 
ENDROOT
BRANCH   1   2
ATOM      2  C   UNL     1       2.305   7.441  19.179  0.00  0.00    +0.000 C 
BRANCH   2   3
ATOM      3  O   UNL     1       2.135   8.752  18.633  0.00  0.00    +0.000 OA
BRANCH   3   7
ATOM      4  C   UNL     1      -0.726  11.228  20.375  0.00  0.00    +0.000 A 
ATOM      5  C   UNL     1      -0.075  10.282  21.171  0.00  0.00    +0.000 A 
ATOM      6  C   UNL     1       0.870   9.429  20.615  0.00  0.00    +0.000 A 
ATOM      7  C   UNL     1       1.183   9.509  19.258  0.00  0.00    +0.000 A 
ATOM      8  C   UNL     1       0.506  10.424  18.449  0.00  0.00    +0.000 A 
ATOM      9  C   UNL     1      -0.450  11.277  19.005  0.00  0.00    +0.000 A 
BRANCH   4  17
ATOM     10  C   UNL     1      -4.180  12.395  24.572  0.00  0.00    +0.000 C 
ATOM     11  C   UNL     1      -3.977  13.318  23.401  0.00  0.00    +0.000 A 
ATOM     12  C   UNL     1      -4.634  14.498  23.324  0.00  0.00    +0.000 A 
ATOM     13  C   UNL     1      -4.459  15.430  22.216  0.00  0.00    +0.000 A 
ATOM     14  C   UNL     1      -3.605  15.112  21.232  0.00  0.00    +0.000 A 
ATOM     15  N   UNL     1      -2.924  13.903  21.302  0.00  0.00    +0.000 N 
ATOM     16  C   UNL     1      -2.018  13.373  20.428  0.00  0.00    +0.000 A 
ATOM     17  C   UNL     1      -1.662  12.155  20.967  0.00  0.00    +0.000 A 
ATOM     18  N   UNL     1      -2.335  11.918  22.138  0.00  0.00    +0.000 NA
ATOM     19  C   UNL     1      -3.076  12.985  22.331  0.00  0.00    +0.000 A 
ENDBRANCH   4  17
ENDBRANCH   3   7
ENDBRANCH   2   3
ENDBRANCH   1   2
BRANCH   1  20
ATOM     20  C   UNL     1       3.381   5.378  18.201  0.00  0.00    +0.000 C 
BRANCH  20  21
ATOM     21  N   UNL     1       3.634   4.381  17.123  0.00  0.00    +0.000 NA
BRANCH  21  22
ATOM     22  C   UNL     1       5.090   4.222  16.756  0.00  0.00    +0.000 C 
ATOM     23  C   UNL     1       5.386   4.113  15.244  0.00  0.00    +0.000 C 
BRANCH  22  24
ATOM     24  C   UNL     1       6.037   5.199  17.446  0.00  0.00    +0.000 A 
ATOM     25  C   UNL     1       6.302   6.444  16.854  0.00  0.00    +0.000 A 
ATOM     26  C   UNL     1       7.251   7.306  17.401  0.00  0.00    +0.000 A 
ATOM     27  C   UNL     1       7.937   6.945  18.557  0.00  0.00    +0.000 A 
ATOM     28  C   UNL     1       7.649   5.738  19.187  0.00  0.00    +0.000 A 
ATOM     29  C   UNL     1       6.694   4.885  18.646  0.00  0.00    +0.000 A 
ENDBRANCH  22  24
ENDBRANCH  21  22
BRANCH  21  30
ATOM     30  C   UNL     1       3.020   3.057  17.543  0.00  0.00    +0.000 C 
ATOM     31  C   UNL     1       3.971   1.840  17.415  0.00  0.00    +0.000 C 
BRANCH  30  32
ATOM     32  C   UNL     1       2.494   2.978  18.982  0.00  0.00    +0.000 A 
ATOM     33  C   UNL     1       3.387   2.642  20.020  0.00  0.00    +0.000 A 
ATOM     34  C   UNL     1       2.978   2.655  21.353  0.00  0.00    +0.000 A 
ATOM     35  C   UNL     1       1.668   2.996  21.672  0.00  0.00    +0.000 A 
ATOM     36  C   UNL     1       0.770   3.335  20.658  0.00  0.00    +0.000 A 
ATOM     37  C   UNL     1       1.185   3.340  19.324  0.00  0.00    +0.000 A 
ENDBRANCH  30  32
ENDBRANCH  21  30
ENDBRANCH  20  21
ENDBRANCH   1  20
TORSDOF 10
ENDMDL
MODEL 5
REMARK VINA RESULT:      -8.7      1.299      4.477
REMARK  Name = 
REMARK  13 active torsions:
REMARK  status: ('A' for Active; 'I' for Inactive)
REMARK    1  A    between atoms: C_1  and  C_2
REMARK    2  A    between atoms: C_8  and  C_9
REMARK    3  A    between atoms: C_12  and  O_13
REMARK    4  A    between atoms: O_13  and  C_14
REMARK    5  A    between atoms: C_14  and  C_15
REMARK    6  A    between atoms: C_15  and  C_16
REMARK    7  A    between atoms: C_16  and  N_17
REMARK    8  A    between atoms: N_17  and  C_18
REMARK    9  A    between atoms: N_17  and  C_26
REMARK   10  A    between atoms: C_18  and  C_19
REMARK   11  A    between atoms: C_18  and  C_20
REMARK   12  A    between atoms: C_26  and  C_27
REMARK   13  A    between atoms: C_26  and  C_28
REMARK                            x       y       z     vdW  Elec       q    Type
REMARK                         _______ _______ _______ _____ _____    ______ ____
ROOT
ATOM      1  C   UNL     1       2.599   8.360  18.349  0.00  0.00    +0.000 C 
ENDROOT
BRANCH   1   2
ATOM      2  C   UNL     1       1.327   8.238  19.160  0.00  0.00    +0.000 C 
BRANCH   2   3
ATOM      3  O   UNL     1       1.627   8.555  20.522  0.00  0.00    +0.000 OA
BRANCH   3   7
ATOM      4  C   UNL     1      -1.039  11.292  22.183  0.00  0.00    +0.000 A 
ATOM      5  C   UNL     1      -0.504  10.289  22.995  0.00  0.00    +0.000 A 
ATOM      6  C   UNL     1       0.372   9.350  22.466  0.00  0.00    +0.000 A 
ATOM      7  C   UNL     1       0.732   9.400  21.119  0.00  0.00    +0.000 A 
ATOM      8  C   UNL     1       0.170  10.374  20.292  0.00  0.00    +0.000 A 
ATOM      9  C   UNL     1      -0.718  11.314  20.821  0.00  0.00    +0.000 A 
BRANCH   4  17
ATOM     10  C   UNL     1      -6.212  12.939  23.379  0.00  0.00    +0.000 C 
ATOM     11  C   UNL     1      -4.998  13.775  23.683  0.00  0.00    +0.000 A 
ATOM     12  C   UNL     1      -5.117  14.983  24.280  0.00  0.00    +0.000 A 
ATOM     13  C   UNL     1      -3.970  15.821  24.607  0.00  0.00    +0.000 A 
ATOM     14  C   UNL     1      -2.740  15.377  24.311  0.00  0.00    +0.000 A 
ATOM     15  N   UNL     1      -2.605  14.137  23.698  0.00  0.00    +0.000 N 
ATOM     16  C   UNL     1      -1.469  13.488  23.309  0.00  0.00    +0.000 A 
ATOM     17  C   UNL     1      -1.900  12.304  22.748  0.00  0.00    +0.000 A 
ATOM     18  N   UNL     1      -3.268  12.217  22.771  0.00  0.00    +0.000 NA
ATOM     19  C   UNL     1      -3.673  13.319  23.360  0.00  0.00    +0.000 A 
ENDBRANCH   4  17
ENDBRANCH   3   7
ENDBRANCH   2   3
ENDBRANCH   1   2
BRANCH   1  20
ATOM     20  C   UNL     1       2.778   7.188  17.381  0.00  0.00    +0.000 C 
BRANCH  20  21
ATOM     21  N   UNL     1       3.488   5.950  17.808  0.00  0.00    +0.000 NA
BRANCH  21  22
ATOM     22  C   UNL     1       2.669   4.690  17.676  0.00  0.00    +0.000 C 
ATOM     23  C   UNL     1       3.280   3.590  16.780  0.00  0.00    +0.000 C 
BRANCH  22  24
ATOM     24  C   UNL     1       2.152   4.119  18.994  0.00  0.00    +0.000 A 
ATOM     25  C   UNL     1       2.524   4.724  20.204  0.00  0.00    +0.000 A 
ATOM     26  C   UNL     1       2.162   4.155  21.426  0.00  0.00    +0.000 A 
ATOM     27  C   UNL     1       1.411   2.984  21.454  0.00  0.00    +0.000 A 
ATOM     28  C   UNL     1       0.989   2.401  20.264  0.00  0.00    +0.000 A 
ATOM     29  C   UNL     1       1.341   2.975  19.048  0.00  0.00    +0.000 A 
ENDBRANCH  22  24
ENDBRANCH  21  22
BRANCH  21  30
ATOM     30  C   UNL     1       4.787   5.852  17.026  0.00  0.00    +0.000 C 
ATOM     31  C   UNL     1       4.803   6.662  15.705  0.00  0.00    +0.000 C 
BRANCH  30  32
ATOM     32  C   UNL     1       6.058   6.299  17.760  0.00  0.00    +0.000 A 
ATOM     33  C   UNL     1       6.566   5.493  18.799  0.00  0.00    +0.000 A 
ATOM     34  C   UNL     1       7.771   5.806  19.429  0.00  0.00    +0.000 A 
ATOM     35  C   UNL     1       8.485   6.933  19.035  0.00  0.00    +0.000 A 
ATOM     36  C   UNL     1       7.999   7.741  18.005  0.00  0.00    +0.000 A 
ATOM     37  C   UNL     1       6.801   7.417  17.362  0.00  0.00    +0.000 A 
ENDBRANCH  30  32
ENDBRANCH  21  30
ENDBRANCH  20  21
ENDBRANCH   1  20
TORSDOF 10
ENDMDL
MODEL 6
REMARK VINA RESULT:      -8.7      0.755      1.865
REMARK  Name = 
REMARK  13 active torsions:
REMARK  status: ('A' for Active; 'I' for Inactive)
REMARK    1  A    between atoms: C_1  and  C_2
REMARK    2  A    between atoms: C_8  and  C_9
REMARK    3  A    between atoms: C_12  and  O_13
REMARK    4  A    between atoms: O_13  and  C_14
REMARK    5  A    between atoms: C_14  and  C_15
REMARK    6  A    between atoms: C_15  and  C_16
REMARK    7  A    between atoms: C_16  and  N_17
REMARK    8  A    between atoms: N_17  and  C_18
REMARK    9  A    between atoms: N_17  and  C_26
REMARK   10  A    between atoms: C_18  and  C_19
REMARK   11  A    between atoms: C_18  and  C_20
REMARK   12  A    between atoms: C_26  and  C_27
REMARK   13  A    between atoms: C_26  and  C_28
REMARK                            x       y       z     vdW  Elec       q    Type
REMARK                         _______ _______ _______ _____ _____    ______ ____
ROOT
ATOM      1  C   UNL     1       2.403   6.324  17.964  0.00  0.00    +0.000 C 
ENDROOT
BRANCH   1   2
ATOM      2  C   UNL     1       2.343   7.241  19.167  0.00  0.00    +0.000 C 
BRANCH   2   3
ATOM      3  O   UNL     1       2.138   8.579  18.705  0.00  0.00    +0.000 OA
BRANCH   3   7
ATOM      4  C   UNL     1      -0.032  11.157  21.155  0.00  0.00    +0.000 A 
ATOM      5  C   UNL     1       0.307   9.890  21.637  0.00  0.00    +0.000 A 
ATOM      6  C   UNL     1       1.014   9.001  20.837  0.00  0.00    +0.000 A 
ATOM      7  C   UNL     1       1.396   9.363  19.545  0.00  0.00    +0.000 A 
ATOM      8  C   UNL     1       1.025  10.611  19.042  0.00  0.00    +0.000 A 
ATOM      9  C   UNL     1       0.307  11.504  19.842  0.00  0.00    +0.000 A 
BRANCH   4  17
ATOM     10  C   UNL     1      -4.370  12.246  24.457  0.00  0.00    +0.000 C 
ATOM     11  C   UNL     1      -3.290  13.254  24.167  0.00  0.00    +0.000 A 
ATOM     12  C   UNL     1      -3.328  14.490  24.716  0.00  0.00    +0.000 A 
ATOM     13  C   UNL     1      -2.298  15.494  24.476  0.00  0.00    +0.000 A 
ATOM     14  C   UNL     1      -1.264  15.182  23.682  0.00  0.00    +0.000 A 
ATOM     15  N   UNL     1      -1.214  13.915  23.113  0.00  0.00    +0.000 N 
ATOM     16  C   UNL     1      -0.271  13.380  22.283  0.00  0.00    +0.000 A 
ATOM     17  C   UNL     1      -0.711  12.102  22.009  0.00  0.00    +0.000 A 
ATOM     18  N   UNL     1      -1.903  11.846  22.636  0.00  0.00    +0.000 NA
ATOM     19  C   UNL     1      -2.182  12.940  23.308  0.00  0.00    +0.000 A 
ENDBRANCH   4  17
ENDBRANCH   3   7
ENDBRANCH   2   3
ENDBRANCH   1   2
BRANCH   1  20
ATOM     20  C   UNL     1       3.545   5.311  18.070  0.00  0.00    +0.000 C 
BRANCH  20  21
ATOM     21  N   UNL     1       3.736   4.267  17.024  0.00  0.00    +0.000 NA
BRANCH  21  22
ATOM     22  C   UNL     1       5.157   4.139  16.529  0.00  0.00    +0.000 C 
ATOM     23  C   UNL     1       5.332   4.186  14.995  0.00  0.00    +0.000 C 
BRANCH  22  24
ATOM     24  C   UNL     1       6.167   5.035  17.239  0.00  0.00    +0.000 A 
ATOM     25  C   UNL     1       6.705   4.633  18.472  0.00  0.00    +0.000 A 
ATOM     26  C   UNL     1       7.539   5.483  19.197  0.00  0.00    +0.000 A 
ATOM     27  C   UNL     1       7.861   6.740  18.693  0.00  0.00    +0.000 A 
ATOM     28  C   UNL     1       7.380   7.134  17.449  0.00  0.00    +0.000 A 
ATOM     29  C   UNL     1       6.558   6.280  16.722  0.00  0.00    +0.000 A 
ENDBRANCH  22  24
ENDBRANCH  21  22
BRANCH  21  30
ATOM     30  C   UNL     1       3.216   2.947  17.567  0.00  0.00    +0.000 C 
ATOM     31  C   UNL     1       4.281   1.824  17.648  0.00  0.00    +0.000 C 
BRANCH  30  32
ATOM     32  C   UNL     1       2.597   2.986  18.970  0.00  0.00    +0.000 A 
ATOM     33  C   UNL     1       3.423   2.753  20.088  0.00  0.00    +0.000 A 
ATOM     34  C   UNL     1       2.926   2.875  21.386  0.00  0.00    +0.000 A 
ATOM     35  C   UNL     1       1.595   3.224  21.588  0.00  0.00    +0.000 A 
ATOM     36  C   UNL     1       0.764   3.462  20.492  0.00  0.00    +0.000 A 
ATOM     37  C   UNL     1       1.265   3.358  19.193  0.00  0.00    +0.000 A 
ENDBRANCH  30  32
ENDBRANCH  21  30
ENDBRANCH  20  21
ENDBRANCH   1  20
TORSDOF 10
ENDMDL
MODEL 7
REMARK VINA RESULT:      -8.6      3.067     10.962
REMARK  Name = 
REMARK  13 active torsions:
REMARK  status: ('A' for Active; 'I' for Inactive)
REMARK    1  A    between atoms: C_1  and  C_2
REMARK    2  A    between atoms: C_8  and  C_9
REMARK    3  A    between atoms: C_12  and  O_13
REMARK    4  A    between atoms: O_13  and  C_14
REMARK    5  A    between atoms: C_14  and  C_15
REMARK    6  A    between atoms: C_15  and  C_16
REMARK    7  A    between atoms: C_16  and  N_17
REMARK    8  A    between atoms: N_17  and  C_18
REMARK    9  A    between atoms: N_17  and  C_26
REMARK   10  A    between atoms: C_18  and  C_19
REMARK   11  A    between atoms: C_18  and  C_20
REMARK   12  A    between atoms: C_26  and  C_27
REMARK   13  A    between atoms: C_26  and  C_28
REMARK                            x       y       z     vdW  Elec       q    Type
REMARK                         _______ _______ _______ _____ _____    ______ ____
ROOT
ATOM      1  C   UNL     1      -1.059  11.219  22.608  0.00  0.00    +0.000 C 
ENDROOT
BRANCH   1   2
ATOM      2  C   UNL     1      -0.364  10.094  21.870  0.00  0.00    +0.000 C 
BRANCH   2   3
ATOM      3  O   UNL     1       0.317  10.646  20.741  0.00  0.00    +0.000 OA
BRANCH   3   7
ATOM      4  C   UNL     1       2.451   7.773  18.610  0.00  0.00    +0.000 A 
ATOM      5  C   UNL     1       2.087   8.959  17.968  0.00  0.00    +0.000 A 
ATOM      6  C   UNL     1       1.359   9.929  18.646  0.00  0.00    +0.000 A 
ATOM      7  C   UNL     1       0.986   9.730  19.976  0.00  0.00    +0.000 A 
ATOM      8  C   UNL     1       1.311   8.530  20.610  0.00  0.00    +0.000 A 
ATOM      9  C   UNL     1       2.036   7.550  19.927  0.00  0.00    +0.000 A 
BRANCH   4  17
ATOM     10  C   UNL     1       3.664   2.411  17.778  0.00  0.00    +0.000 C 
ATOM     11  C   UNL     1       4.393   3.531  17.085  0.00  0.00    +0.000 A 
ATOM     12  C   UNL     1       5.390   3.272  16.208  0.00  0.00    +0.000 A 
ATOM     13  C   UNL     1       6.115   4.323  15.502  0.00  0.00    +0.000 A 
ATOM     14  C   UNL     1       5.779   5.601  15.725  0.00  0.00    +0.000 A 
ATOM     15  N   UNL     1       4.757   5.879  16.625  0.00  0.00    +0.000 N 
ATOM     16  C   UNL     1       4.249   7.087  17.006  0.00  0.00    +0.000 A 
ATOM     17  C   UNL     1       3.261   6.795  17.923  0.00  0.00    +0.000 A 
ATOM     18  N   UNL     1       3.160   5.442  18.124  0.00  0.00    +0.000 NA
ATOM     19  C   UNL     1       4.055   4.907  17.324  0.00  0.00    +0.000 A 
ENDBRANCH   4  17
ENDBRANCH   3   7
ENDBRANCH   2   3
ENDBRANCH   1   2
BRANCH   1  20
ATOM     20  C   UNL     1      -1.000  12.536  21.832  0.00  0.00    +0.000 C 
BRANCH  20  21
ATOM     21  N   UNL     1      -1.353  12.584  20.386  0.00  0.00    +0.000 NA
BRANCH  21  22
ATOM     22  C   UNL     1      -2.761  12.136  20.076  0.00  0.00    +0.000 C 
ATOM     23  C   UNL     1      -3.877  13.123  20.485  0.00  0.00    +0.000 C 
BRANCH  22  24
ATOM     24  C   UNL     1      -2.970  11.604  18.662  0.00  0.00    +0.000 A 
ATOM     25  C   UNL     1      -4.186  11.847  18.003  0.00  0.00    +0.000 A 
ATOM     26  C   UNL     1      -4.448  11.274  16.758  0.00  0.00    +0.000 A 
ATOM     27  C   UNL     1      -3.493  10.466  16.148  0.00  0.00    +0.000 A 
ATOM     28  C   UNL     1      -2.263  10.258  16.763  0.00  0.00    +0.000 A 
ATOM     29  C   UNL     1      -1.999  10.839  17.998  0.00  0.00    +0.000 A 
ENDBRANCH  22  24
ENDBRANCH  21  22
BRANCH  21  30
ATOM     30  C   UNL     1      -1.094  13.991  19.877  0.00  0.00    +0.000 C 
ATOM     31  C   UNL     1      -1.216  15.095  20.958  0.00  0.00    +0.000 C 
BRANCH  30  32
ATOM     32  C   UNL     1       0.276  14.240  19.233  0.00  0.00    +0.000 A 
ATOM     33  C   UNL     1       0.977  15.421  19.551  0.00  0.00    +0.000 A 
ATOM     34  C   UNL     1       2.267  15.644  19.068  0.00  0.00    +0.000 A 
ATOM     35  C   UNL     1       2.874  14.694  18.253  0.00  0.00    +0.000 A 
ATOM     36  C   UNL     1       2.196  13.518  17.930  0.00  0.00    +0.000 A 
ATOM     37  C   UNL     1       0.912  13.286  18.429  0.00  0.00    +0.000 A 
ENDBRANCH  30  32
ENDBRANCH  21  30
ENDBRANCH  20  21
ENDBRANCH   1  20
TORSDOF 10
ENDMDL
MODEL 8
REMARK VINA RESULT:      -8.6      1.136      1.813
REMARK  Name = 
REMARK  13 active torsions:
REMARK  status: ('A' for Active; 'I' for Inactive)
REMARK    1  A    between atoms: C_1  and  C_2
REMARK    2  A    between atoms: C_8  and  C_9
REMARK    3  A    between atoms: C_12  and  O_13
REMARK    4  A    between atoms: O_13  and  C_14
REMARK    5  A    between atoms: C_14  and  C_15
REMARK    6  A    between atoms: C_15  and  C_16
REMARK    7  A    between atoms: C_16  and  N_17
REMARK    8  A    between atoms: N_17  and  C_18
REMARK    9  A    between atoms: N_17  and  C_26
REMARK   10  A    between atoms: C_18  and  C_19
REMARK   11  A    between atoms: C_18  and  C_20
REMARK   12  A    between atoms: C_26  and  C_27
REMARK   13  A    between atoms: C_26  and  C_28
REMARK                            x       y       z     vdW  Elec       q    Type
REMARK                         _______ _______ _______ _____ _____    ______ ____
ROOT
ATOM      1  C   UNL     1       2.451   7.469  18.952  0.00  0.00    +0.000 C 
ENDROOT
BRANCH   1   2
ATOM      2  C   UNL     1       1.487   7.342  20.114  0.00  0.00    +0.000 C 
BRANCH   2   3
ATOM      3  O   UNL     1       1.893   8.253  21.139  0.00  0.00    +0.000 OA
BRANCH   3   7
ATOM      4  C   UNL     1      -0.889  11.228  22.011  0.00  0.00    +0.000 A 
ATOM      5  C   UNL     1      -0.303  11.201  20.743  0.00  0.00    +0.000 A 
ATOM      6  C   UNL     1       0.642  10.233  20.428  0.00  0.00    +0.000 A 
ATOM      7  C   UNL     1       1.014   9.275  21.372  0.00  0.00    +0.000 A 
ATOM      8  C   UNL     1       0.463   9.322  22.654  0.00  0.00    +0.000 A 
ATOM      9  C   UNL     1      -0.482  10.300  22.975  0.00  0.00    +0.000 A 
BRANCH   4  17
ATOM     10  C   UNL     1      -2.851  15.065  25.524  0.00  0.00    +0.000 C 
ATOM     11  C   UNL     1      -3.554  14.691  24.247  0.00  0.00    +0.000 A 
ATOM     12  C   UNL     1      -4.713  15.292  23.890  0.00  0.00    +0.000 A 
ATOM     13  C   UNL     1      -5.422  14.973  22.656  0.00  0.00    +0.000 A 
ATOM     14  C   UNL     1      -4.904  14.049  21.834  0.00  0.00    +0.000 A 
ATOM     15  N   UNL     1      -3.715  13.426  22.190  0.00  0.00    +0.000 N 
ATOM     16  C   UNL     1      -3.010  12.469  21.519  0.00  0.00    +0.000 A 
ATOM     17  C   UNL     1      -1.917  12.196  22.316  0.00  0.00    +0.000 A 
ATOM     18  N   UNL     1      -1.942  12.949  23.461  0.00  0.00    +0.000 NA
ATOM     19  C   UNL     1      -3.020  13.694  23.360  0.00  0.00    +0.000 A 
ENDBRANCH   4  17
ENDBRANCH   3   7
ENDBRANCH   2   3
ENDBRANCH   1   2
BRANCH   1  20
ATOM     20  C   UNL     1       3.336   6.230  18.803  0.00  0.00    +0.000 C 
BRANCH  20  21
ATOM     21  N   UNL     1       3.321   5.431  17.545  0.00  0.00    +0.000 NA
BRANCH  21  22
ATOM     22  C   UNL     1       4.681   4.953  17.099  0.00  0.00    +0.000 C 
ATOM     23  C   UNL     1       4.855   4.771  15.575  0.00  0.00    +0.000 C 
BRANCH  22  24
ATOM     24  C   UNL     1       5.859   5.702  17.714  0.00  0.00    +0.000 A 
ATOM     25  C   UNL     1       6.308   6.893  17.123  0.00  0.00    +0.000 A 
ATOM     26  C   UNL     1       7.453   7.535  17.594  0.00  0.00    +0.000 A 
ATOM     27  C   UNL     1       8.156   7.005  18.672  0.00  0.00    +0.000 A 
ATOM     28  C   UNL     1       7.696   5.854  19.303  0.00  0.00    +0.000 A 
ATOM     29  C   UNL     1       6.547   5.222  18.839  0.00  0.00    +0.000 A 
ENDBRANCH  22  24
ENDBRANCH  21  22
BRANCH  21  30
ATOM     30  C   UNL     1       2.357   4.271  17.728  0.00  0.00    +0.000 C 
ATOM     31  C   UNL     1       2.628   3.061  16.800  0.00  0.00    +0.000 C 
BRANCH  30  32
ATOM     32  C   UNL     1       2.285   3.663  19.135  0.00  0.00    +0.000 A 
ATOM     33  C   UNL     1       3.432   3.047  19.673  0.00  0.00    +0.000 A 
ATOM     34  C   UNL     1       3.444   2.568  20.983  0.00  0.00    +0.000 A 
ATOM     35  C   UNL     1       2.307   2.691  21.775  0.00  0.00    +0.000 A 
ATOM     36  C   UNL     1       1.162   3.301  21.260  0.00  0.00    +0.000 A 
ATOM     37  C   UNL     1       1.156   3.797  19.954  0.00  0.00    +0.000 A 
ENDBRANCH  30  32
ENDBRANCH  21  30
ENDBRANCH  20  21
ENDBRANCH   1  20
TORSDOF 10
ENDMDL
MODEL 9
REMARK VINA RESULT:      -8.6      1.480      2.857
REMARK  Name = 
REMARK  13 active torsions:
REMARK  status: ('A' for Active; 'I' for Inactive)
REMARK    1  A    between atoms: C_1  and  C_2
REMARK    2  A    between atoms: C_8  and  C_9
REMARK    3  A    between atoms: C_12  and  O_13
REMARK    4  A    between atoms: O_13  and  C_14
REMARK    5  A    between atoms: C_14  and  C_15
REMARK    6  A    between atoms: C_15  and  C_16
REMARK    7  A    between atoms: C_16  and  N_17
REMARK    8  A    between atoms: N_17  and  C_18
REMARK    9  A    between atoms: N_17  and  C_26
REMARK   10  A    between atoms: C_18  and  C_19
REMARK   11  A    between atoms: C_18  and  C_20
REMARK   12  A    between atoms: C_26  and  C_27
REMARK   13  A    between atoms: C_26  and  C_28
REMARK                            x       y       z     vdW  Elec       q    Type
REMARK                         _______ _______ _______ _____ _____    ______ ____
ROOT
ATOM      1  C   UNL     1       3.721   7.558  17.153  0.00  0.00    +0.000 C 
ENDROOT
BRANCH   1   2
ATOM      2  C   UNL     1       2.462   6.977  17.759  0.00  0.00    +0.000 C 
BRANCH   2   3
ATOM      3  O   UNL     1       2.608   6.965  19.181  0.00  0.00    +0.000 OA
BRANCH   3   7
ATOM      4  C   UNL     1       0.568  10.105  21.008  0.00  0.00    +0.000 A 
ATOM      5  C   UNL     1       0.922   8.991  21.774  0.00  0.00    +0.000 A 
ATOM      6  C   UNL     1       1.586   7.920  21.189  0.00  0.00    +0.000 A 
ATOM      7  C   UNL     1       1.911   7.946  19.833  0.00  0.00    +0.000 A 
ATOM      8  C   UNL     1       1.523   9.037  19.053  0.00  0.00    +0.000 A 
ATOM      9  C   UNL     1       0.849  10.111  19.638  0.00  0.00    +0.000 A 
BRANCH   4  17
ATOM     10  C   UNL     1       0.716  15.549  22.122  0.00  0.00    +0.000 C 
ATOM     11  C   UNL     1      -0.393  14.648  22.597  0.00  0.00    +0.000 A 
ATOM     12  C   UNL     1      -1.424  15.138  23.323  0.00  0.00    +0.000 A 
ATOM     13  C   UNL     1      -2.526  14.306  23.793  0.00  0.00    +0.000 A 
ATOM     14  C   UNL     1      -2.525  13.001  23.489  0.00  0.00    +0.000 A 
ATOM     15  N   UNL     1      -1.472  12.487  22.743  0.00  0.00    +0.000 N 
ATOM     16  C   UNL     1      -1.260  11.206  22.320  0.00  0.00    +0.000 A 
ATOM     17  C   UNL     1      -0.065  11.243  21.631  0.00  0.00    +0.000 A 
ATOM     18  N   UNL     1       0.466  12.507  21.634  0.00  0.00    +0.000 NA
ATOM     19  C   UNL     1      -0.400  13.243  22.292  0.00  0.00    +0.000 A 
ENDBRANCH   4  17
ENDBRANCH   3   7
ENDBRANCH   2   3
ENDBRANCH   1   2
BRANCH   1  20
ATOM     20  C   UNL     1       4.974   6.798  17.592  0.00  0.00    +0.000 C 
BRANCH  20  21
ATOM     21  N   UNL     1       5.256   5.430  17.073  0.00  0.00    +0.000 NA
BRANCH  21  22
ATOM     22  C   UNL     1       6.557   5.312  16.316  0.00  0.00    +0.000 C 
ATOM     23  C   UNL     1       7.687   4.558  17.052  0.00  0.00    +0.000 C 
BRANCH  22  24
ATOM     24  C   UNL     1       6.418   4.846  14.870  0.00  0.00    +0.000 A 
ATOM     25  C   UNL     1       5.281   4.120  14.481  0.00  0.00    +0.000 A 
ATOM     26  C   UNL     1       5.184   3.583  13.198  0.00  0.00    +0.000 A 
ATOM     27  C   UNL     1       6.212   3.776  12.280  0.00  0.00    +0.000 A 
ATOM     28  C   UNL     1       7.322   4.537  12.632  0.00  0.00    +0.000 A 
ATOM     29  C   UNL     1       7.413   5.082  13.908  0.00  0.00    +0.000 A 
ENDBRANCH  22  24
ENDBRANCH  21  22
BRANCH  21  30
ATOM     30  C   UNL     1       5.201   4.457  18.238  0.00  0.00    +0.000 C 
ATOM     31  C   UNL     1       5.558   5.080  19.611  0.00  0.00    +0.000 C 
BRANCH  30  32
ATOM     32  C   UNL     1       3.856   3.758  18.476  0.00  0.00    +0.000 A 
ATOM     33  C   UNL     1       3.203   3.142  17.389  0.00  0.00    +0.000 A 
ATOM     34  C   UNL     1       2.030   2.411  17.575  0.00  0.00    +0.000 A 
ATOM     35  C   UNL     1       1.485   2.289  18.850  0.00  0.00    +0.000 A 
ATOM     36  C   UNL     1       2.120   2.889  19.938  0.00  0.00    +0.000 A 
ATOM     37  C   UNL     1       3.305   3.606  19.755  0.00  0.00    +0.000 A 
ENDBRANCH  30  32
ENDBRANCH  21  30
ENDBRANCH  20  21
ENDBRANCH   1  20
TORSDOF 10
ENDMDL
