MODEL 1
REMARK VINA RESULT:      -7.3      0.000      0.000
REMARK  Name = 
REMARK  7 active torsions:
REMARK  status: ('A' for Active; 'I' for Inactive)
REMARK    1  A    between atoms: C_1  and  C_2
REMARK    2  A    between atoms: C_2  and  N_3
REMARK    3  A    between atoms: N_6  and  C_7
REMARK    4  A    between atoms: N_16  and  C_17
REMARK    5  A    between atoms: C_17  and  C_18
REMARK    6  A    between atoms: C_18  and  C_19
REMARK    7  A    between atoms: C_19  and  N_20
REMARK                            x       y       z     vdW  Elec       q    Type
REMARK                         _______ _______ _______ _____ _____    ______ ____
ROOT
ATOM      1  C   UNL     1       3.629   6.056  18.176  0.00  0.00    +0.000 A 
ATOM      2  N   UNL     1       3.418   5.255  19.268  0.00  0.00    +0.000 NA
ATOM      3  C   UNL     1       2.593   5.631  20.259  0.00  0.00    +0.000 A 
ATOM      4  N   UNL     1       2.474   4.750  21.313  0.00  0.00    +0.000 N 
ATOM      5  N   UNL     1       1.920   6.782  20.339  0.00  0.00    +0.000 NA
ATOM      6  C   UNL     1       2.141   7.567  19.276  0.00  0.00    +0.000 A 
ATOM      7  C   UNL     1       2.965   7.303  18.193  0.00  0.00    +0.000 A 
ATOM      8  N   UNL     1       2.963   8.373  17.321  0.00  0.00    +0.000 NA
ATOM      9  C   UNL     1       2.144   9.249  17.855  0.00  0.00    +0.000 A 
ATOM     10  N   UNL     1       1.597   8.798  19.026  0.00  0.00    +0.000 N 
ATOM     11  H   UNL     1       3.294   4.159  21.340  0.00  0.00    +0.000 HD
ATOM     12  H   UNL     1       2.233   5.251  22.156  0.00  0.00    +0.000 HD
ENDROOT
BRANCH   1  16
ATOM     13  N   UNL     1       6.790   4.462  15.755  0.00  0.00    +0.000 NA
ATOM     14  C   UNL     1       6.812   5.677  16.612  0.00  0.00    +0.000 C 
ATOM     15  C   UNL     1       5.479   6.451  16.619  0.00  0.00    +0.000 C 
ATOM     16  N   UNL     1       4.437   5.585  17.159  0.00  0.00    +0.000 N 
ATOM     17  C   UNL     1       4.293   4.265  16.534  0.00  0.00    +0.000 C 
ATOM     18  C   UNL     1       5.671   3.605  16.216  0.00  0.00    +0.000 C 
BRANCH  13  20
ATOM     19  C   UNL     1       6.113   3.833  13.399  0.00  0.00    +0.000 C 
ATOM     20  C   UNL     1       6.735   4.853  14.342  0.00  0.00    +0.000 C 
ENDBRANCH  13  20
ENDBRANCH   1  16
BRANCH  10  21
ATOM     21  C   UNL     1       0.638   9.498  19.865  0.00  0.00    +0.000 C 
BRANCH  21  22
ATOM     22  C   UNL     1       0.214  10.849  19.288  0.00  0.00    +0.000 C 
BRANCH  22  23
ATOM     23  C   UNL     1      -1.294  11.092  19.356  0.00  0.00    +0.000 C 
BRANCH  23  24
ATOM     24  N   UNL     1      -1.864  11.352  18.022  0.00  0.00    +0.000 NA
ATOM     25  C   UNL     1      -3.302  11.672  18.018  0.00  0.00    +0.000 C 
ATOM     26  C   UNL     1      -4.004  10.345  17.834  0.00  0.00    +0.000 C 
ATOM     27  C   UNL     1      -3.109   9.649  16.832  0.00  0.00    +0.000 C 
ATOM     28  C   UNL     1      -1.710  10.175  17.140  0.00  0.00    +0.000 C 
ENDBRANCH  23  24
ENDBRANCH  22  23
ENDBRANCH  21  22
ENDBRANCH  10  21
TORSDOF 6
ENDMDL
MODEL 2
REMARK VINA RESULT:      -7.1      1.739      2.579
REMARK  Name = 
REMARK  7 active torsions:
REMARK  status: ('A' for Active; 'I' for Inactive)
REMARK    1  A    between atoms: C_1  and  C_2
REMARK    2  A    between atoms: C_2  and  N_3
REMARK    3  A    between atoms: N_6  and  C_7
REMARK    4  A    between atoms: N_16  and  C_17
REMARK    5  A    between atoms: C_17  and  C_18
REMARK    6  A    between atoms: C_18  and  C_19
REMARK    7  A    between atoms: C_19  and  N_20
REMARK                            x       y       z     vdW  Elec       q    Type
REMARK                         _______ _______ _______ _____ _____    ______ ____
ROOT
ATOM      1  C   UNL     1       3.636   6.046  18.191  0.00  0.00    +0.000 A 
ATOM      2  N   UNL     1       3.424   5.228  19.270  0.00  0.00    +0.000 NA
ATOM      3  C   UNL     1       2.590   5.584  20.262  0.00  0.00    +0.000 A 
ATOM      4  N   UNL     1       2.471   4.687  21.303  0.00  0.00    +0.000 N 
ATOM      5  N   UNL     1       1.909   6.729  20.354  0.00  0.00    +0.000 NA
ATOM      6  C   UNL     1       2.131   7.530  19.303  0.00  0.00    +0.000 A 
ATOM      7  C   UNL     1       2.963   7.287  18.221  0.00  0.00    +0.000 A 
ATOM      8  N   UNL     1       2.959   8.369  17.364  0.00  0.00    +0.000 NA
ATOM      9  C   UNL     1       2.131   9.232  17.905  0.00  0.00    +0.000 A 
ATOM     10  N   UNL     1       1.580   8.761  19.067  0.00  0.00    +0.000 N 
ATOM     11  H   UNL     1       3.296   4.102  21.326  0.00  0.00    +0.000 HD
ATOM     12  H   UNL     1       2.223   5.175  22.151  0.00  0.00    +0.000 HD
ENDROOT
BRANCH   1  16
ATOM     13  N   UNL     1       6.832   4.533  15.763  0.00  0.00    +0.000 NA
ATOM     14  C   UNL     1       6.823   5.750  16.617  0.00  0.00    +0.000 C 
ATOM     15  C   UNL     1       5.469   6.487  16.626  0.00  0.00    +0.000 C 
ATOM     16  N   UNL     1       4.454   5.594  17.173  0.00  0.00    +0.000 N 
ATOM     17  C   UNL     1       4.344   4.269  16.552  0.00  0.00    +0.000 C 
ATOM     18  C   UNL     1       5.738   3.646  16.231  0.00  0.00    +0.000 C 
BRANCH  13  20
ATOM     19  C   UNL     1       6.204   3.862  13.405  0.00  0.00    +0.000 C 
ATOM     20  C   UNL     1       6.761   4.918  14.349  0.00  0.00    +0.000 C 
ENDBRANCH  13  20
ENDBRANCH   1  16
BRANCH  10  21
ATOM     21  C   UNL     1       0.611   9.443  19.910  0.00  0.00    +0.000 C 
BRANCH  21  22
ATOM     22  C   UNL     1       0.333  10.877  19.460  0.00  0.00    +0.000 C 
BRANCH  22  23
ATOM     23  C   UNL     1      -0.719  11.588  20.313  0.00  0.00    +0.000 C 
BRANCH  23  24
ATOM     24  N   UNL     1      -0.253  11.790  21.696  0.00  0.00    +0.000 NA
ATOM     25  C   UNL     1      -1.030  11.071  22.719  0.00  0.00    +0.000 C 
ATOM     26  C   UNL     1      -2.104  12.042  23.157  0.00  0.00    +0.000 C 
ATOM     27  C   UNL     1      -1.354  13.355  23.180  0.00  0.00    +0.000 C 
ATOM     28  C   UNL     1      -0.312  13.218  22.073  0.00  0.00    +0.000 C 
ENDBRANCH  23  24
ENDBRANCH  22  23
ENDBRANCH  21  22
ENDBRANCH  10  21
TORSDOF 6
ENDMDL
MODEL 3
REMARK VINA RESULT:      -6.9      1.509      2.494
REMARK  Name = 
REMARK  7 active torsions:
REMARK  status: ('A' for Active; 'I' for Inactive)
REMARK    1  A    between atoms: C_1  and  C_2
REMARK    2  A    between atoms: C_2  and  N_3
REMARK    3  A    between atoms: N_6  and  C_7
REMARK    4  A    between atoms: N_16  and  C_17
REMARK    5  A    between atoms: C_17  and  C_18
REMARK    6  A    between atoms: C_18  and  C_19
REMARK    7  A    between atoms: C_19  and  N_20
REMARK                            x       y       z     vdW  Elec       q    Type
REMARK                         _______ _______ _______ _____ _____    ______ ____
ROOT
ATOM      1  C   UNL     1       3.603   6.085  18.198  0.00  0.00    +0.000 A 
ATOM      2  N   UNL     1       3.389   5.281  19.288  0.00  0.00    +0.000 NA
ATOM      3  C   UNL     1       2.558   5.655  20.276  0.00  0.00    +0.000 A 
ATOM      4  N   UNL     1       2.435   4.771  21.328  0.00  0.00    +0.000 N 
ATOM      5  N   UNL     1       1.883   6.804  20.354  0.00  0.00    +0.000 NA
ATOM      6  C   UNL     1       2.108   7.591  19.293  0.00  0.00    +0.000 A 
ATOM      7  C   UNL     1       2.937   7.330  18.214  0.00  0.00    +0.000 A 
ATOM      8  N   UNL     1       2.937   8.401  17.343  0.00  0.00    +0.000 NA
ATOM      9  C   UNL     1       2.114   9.275  17.874  0.00  0.00    +0.000 A 
ATOM     10  N   UNL     1       1.562   8.821  19.042  0.00  0.00    +0.000 N 
ATOM     11  H   UNL     1       3.257   4.182  21.358  0.00  0.00    +0.000 HD
ATOM     12  H   UNL     1       2.190   5.271  22.170  0.00  0.00    +0.000 HD
ENDROOT
BRANCH   1  16
ATOM     13  N   UNL     1       6.778   4.496  15.791  0.00  0.00    +0.000 NA
ATOM     14  C   UNL     1       6.796   5.707  16.652  0.00  0.00    +0.000 C 
ATOM     15  C   UNL     1       5.463   6.483  16.654  0.00  0.00    +0.000 C 
ATOM     16  N   UNL     1       4.418   5.616  17.185  0.00  0.00    +0.000 N 
ATOM     17  C   UNL     1       4.275   4.299  16.554  0.00  0.00    +0.000 C 
ATOM     18  C   UNL     1       5.655   3.638  16.242  0.00  0.00    +0.000 C 
BRANCH  13  20
ATOM     19  C   UNL     1       6.193   3.843  13.417  0.00  0.00    +0.000 C 
ATOM     20  C   UNL     1       6.732   4.892  14.379  0.00  0.00    +0.000 C 
ENDBRANCH  13  20
ENDBRANCH   1  16
BRANCH  10  21
ATOM     21  C   UNL     1       0.598   9.518  19.878  0.00  0.00    +0.000 C 
BRANCH  21  22
ATOM     22  C   UNL     1      -0.341  10.422  19.078  0.00  0.00    +0.000 C 
BRANCH  22  23
ATOM     23  C   UNL     1      -0.322  11.879  19.542  0.00  0.00    +0.000 C 
BRANCH  23  24
ATOM     24  N   UNL     1       0.374  12.748  18.577  0.00  0.00    +0.000 NA
ATOM     25  C   UNL     1       1.821  12.891  18.807  0.00  0.00    +0.000 C 
ATOM     26  C   UNL     1       1.965  14.106  19.695  0.00  0.00    +0.000 C 
ATOM     27  C   UNL     1       0.926  15.043  19.120  0.00  0.00    +0.000 C 
ATOM     28  C   UNL     1      -0.176  14.121  18.607  0.00  0.00    +0.000 C 
ENDBRANCH  23  24
ENDBRANCH  22  23
ENDBRANCH  21  22
ENDBRANCH  10  21
TORSDOF 6
ENDMDL
MODEL 4
REMARK VINA RESULT:      -6.8      2.107      8.198
REMARK  Name = 
REMARK  7 active torsions:
REMARK  status: ('A' for Active; 'I' for Inactive)
REMARK    1  A    between atoms: C_1  and  C_2
REMARK    2  A    between atoms: C_2  and  N_3
REMARK    3  A    between atoms: N_6  and  C_7
REMARK    4  A    between atoms: N_16  and  C_17
REMARK    5  A    between atoms: C_17  and  C_18
REMARK    6  A    between atoms: C_18  and  C_19
REMARK    7  A    between atoms: C_19  and  N_20
REMARK                            x       y       z     vdW  Elec       q    Type
REMARK                         _______ _______ _______ _____ _____    ______ ____
ROOT
ATOM      1  C   UNL     1       1.782   7.210  20.132  0.00  0.00    +0.000 A 
ATOM      2  N   UNL     1       1.441   6.095  20.852  0.00  0.00    +0.000 NA
ATOM      3  C   UNL     1       1.845   4.870  20.473  0.00  0.00    +0.000 A 
ATOM      4  N   UNL     1       1.425   3.823  21.266  0.00  0.00    +0.000 N 
ATOM      5  N   UNL     1       2.570   4.573  19.391  0.00  0.00    +0.000 NA
ATOM      6  C   UNL     1       2.888   5.666  18.685  0.00  0.00    +0.000 A 
ATOM      7  C   UNL     1       2.535   6.978  18.960  0.00  0.00    +0.000 A 
ATOM      8  N   UNL     1       3.017   7.818  17.976  0.00  0.00    +0.000 NA
ATOM      9  C   UNL     1       3.660   7.035  17.142  0.00  0.00    +0.000 A 
ATOM     10  N   UNL     1       3.637   5.725  17.540  0.00  0.00    +0.000 N 
ATOM     11  H   UNL     1       0.595   4.106  21.768  0.00  0.00    +0.000 HD
ATOM     12  H   UNL     1       1.373   2.977  20.718  0.00  0.00    +0.000 HD
ENDROOT
BRANCH   1  16
ATOM     13  N   UNL     1      -0.345  10.686  21.472  0.00  0.00    +0.000 NA
ATOM     14  C   UNL     1      -0.409  10.026  20.142  0.00  0.00    +0.000 C 
ATOM     15  C   UNL     1       0.947   9.466  19.665  0.00  0.00    +0.000 C 
ATOM     16  N   UNL     1       1.391   8.447  20.609  0.00  0.00    +0.000 N 
ATOM     17  C   UNL     1       1.434   8.838  22.024  0.00  0.00    +0.000 C 
ATOM     18  C   UNL     1       0.202   9.702  22.438  0.00  0.00    +0.000 C 
BRANCH  13  20
ATOM     19  C   UNL     1      -0.271  13.168  21.962  0.00  0.00    +0.000 C 
ATOM     20  C   UNL     1       0.407  11.942  21.368  0.00  0.00    +0.000 C 
ENDBRANCH  13  20
ENDBRANCH   1  16
BRANCH  10  21
ATOM     21  C   UNL     1       4.264   4.600  16.866  0.00  0.00    +0.000 C 
BRANCH  21  22
ATOM     22  C   UNL     1       5.316   5.028  15.843  0.00  0.00    +0.000 C 
BRANCH  22  23
ATOM     23  C   UNL     1       6.608   4.212  15.923  0.00  0.00    +0.000 C 
BRANCH  23  24
ATOM     24  N   UNL     1       7.685   4.962  16.592  0.00  0.00    +0.000 NA
ATOM     25  C   UNL     1       7.962   4.540  17.976  0.00  0.00    +0.000 C 
ATOM     26  C   UNL     1       7.089   5.420  18.842  0.00  0.00    +0.000 C 
ATOM     27  C   UNL     1       7.193   6.757  18.142  0.00  0.00    +0.000 C 
ATOM     28  C   UNL     1       7.361   6.403  16.668  0.00  0.00    +0.000 C 
ENDBRANCH  23  24
ENDBRANCH  22  23
ENDBRANCH  21  22
ENDBRANCH  10  21
TORSDOF 6
ENDMDL
MODEL 5
REMARK VINA RESULT:      -6.7      2.476      2.895
REMARK  Name = 
REMARK  7 active torsions:
REMARK  status: ('A' for Active; 'I' for Inactive)
REMARK    1  A    between atoms: C_1  and  C_2
REMARK    2  A    between atoms: C_2  and  N_3
REMARK    3  A    between atoms: N_6  and  C_7
REMARK    4  A    between atoms: N_16  and  C_17
REMARK    5  A    between atoms: C_17  and  C_18
REMARK    6  A    between atoms: C_18  and  C_19
REMARK    7  A    between atoms: C_19  and  N_20
REMARK                            x       y       z     vdW  Elec       q    Type
REMARK                         _______ _______ _______ _____ _____    ______ ____
ROOT
ATOM      1  C   UNL     1       3.875   4.890  19.040  0.00  0.00    +0.000 A 
ATOM      2  N   UNL     1       3.627   3.835  19.878  0.00  0.00    +0.000 NA
ATOM      3  C   UNL     1       2.703   3.919  20.850  0.00  0.00    +0.000 A 
ATOM      4  N   UNL     1       2.555   2.799  21.642  0.00  0.00    +0.000 N 
ATOM      5  N   UNL     1       1.955   4.985  21.145  0.00  0.00    +0.000 NA
ATOM      6  C   UNL     1       2.212   6.018  20.331  0.00  0.00    +0.000 A 
ATOM      7  C   UNL     1       3.135   6.065  19.298  0.00  0.00    +0.000 A 
ATOM      8  N   UNL     1       3.136   7.317  18.717  0.00  0.00    +0.000 NA
ATOM      9  C   UNL     1       2.224   7.999  19.369  0.00  0.00    +0.000 A 
ATOM     10  N   UNL     1       1.614   7.249  20.339  0.00  0.00    +0.000 N 
ATOM     11  H   UNL     1       3.406   2.254  21.600  0.00  0.00    +0.000 HD
ATOM     12  H   UNL     1       2.217   3.065  22.555  0.00  0.00    +0.000 HD
ENDROOT
BRANCH   1  16
ATOM     13  N   UNL     1       6.559   5.328  15.723  0.00  0.00    +0.000 NA
ATOM     14  C   UNL     1       5.097   5.597  15.764  0.00  0.00    +0.000 C 
ATOM     15  C   UNL     1       4.312   4.605  16.646  0.00  0.00    +0.000 C 
ATOM     16  N   UNL     1       4.790   4.719  18.019  0.00  0.00    +0.000 N 
ATOM     17  C   UNL     1       6.239   4.594  18.221  0.00  0.00    +0.000 C 
ATOM     18  C   UNL     1       7.058   5.336  17.120  0.00  0.00    +0.000 C 
BRANCH  13  20
ATOM     19  C   UNL     1       6.444   4.123  13.500  0.00  0.00    +0.000 C 
ATOM     20  C   UNL     1       6.815   4.091  14.976  0.00  0.00    +0.000 C 
ENDBRANCH  13  20
ENDBRANCH   1  16
BRANCH  10  21
ATOM     21  C   UNL     1       0.549   7.679  21.230  0.00  0.00    +0.000 C 
BRANCH  21  22
ATOM     22  C   UNL     1       0.520   9.194  21.439  0.00  0.00    +0.000 C 
BRANCH  22  23
ATOM     23  C   UNL     1      -0.438   9.635  22.546  0.00  0.00    +0.000 C 
BRANCH  23  24
ATOM     24  N   UNL     1      -0.359  11.087  22.787  0.00  0.00    +0.000 NA
ATOM     25  C   UNL     1      -1.627  11.714  23.196  0.00  0.00    +0.000 C 
ATOM     26  C   UNL     1      -2.279  12.169  21.910  0.00  0.00    +0.000 C 
ATOM     27  C   UNL     1      -1.096  12.681  21.119  0.00  0.00    +0.000 C 
ATOM     28  C   UNL     1       0.070  11.805  21.568  0.00  0.00    +0.000 C 
ENDBRANCH  23  24
ENDBRANCH  22  23
ENDBRANCH  21  22
ENDBRANCH  10  21
TORSDOF 6
ENDMDL
MODEL 6
REMARK VINA RESULT:      -6.6      0.839      1.157
REMARK  Name = 
REMARK  7 active torsions:
REMARK  status: ('A' for Active; 'I' for Inactive)
REMARK    1  A    between atoms: C_1  and  C_2
REMARK    2  A    between atoms: C_2  and  N_3
REMARK    3  A    between atoms: N_6  and  C_7
REMARK    4  A    between atoms: N_16  and  C_17
REMARK    5  A    between atoms: C_17  and  C_18
REMARK    6  A    between atoms: C_18  and  C_19
REMARK    7  A    between atoms: C_19  and  N_20
REMARK                            x       y       z     vdW  Elec       q    Type
REMARK                         _______ _______ _______ _____ _____    ______ ____
ROOT
ATOM      1  C   UNL     1       3.800   5.927  18.662  0.00  0.00    +0.000 A 
ATOM      2  N   UNL     1       3.470   5.104  19.707  0.00  0.00    +0.000 NA
ATOM      3  C   UNL     1       2.502   5.437  20.577  0.00  0.00    +0.000 A 
ATOM      4  N   UNL     1       2.272   4.537  21.597  0.00  0.00    +0.000 N 
ATOM      5  N   UNL     1       1.780   6.560  20.572  0.00  0.00    +0.000 NA
ATOM      6  C   UNL     1       2.116   7.367  19.556  0.00  0.00    +0.000 A 
ATOM      7  C   UNL     1       3.092   7.148  18.595  0.00  0.00    +0.000 A 
ATOM      8  N   UNL     1       3.170   8.228  17.740  0.00  0.00    +0.000 NA
ATOM      9  C   UNL     1       2.251   9.066  18.162  0.00  0.00    +0.000 A 
ATOM     10  N   UNL     1       1.565   8.580  19.242  0.00  0.00    +0.000 N 
ATOM     11  H   UNL     1       3.103   3.978  21.733  0.00  0.00    +0.000 HD
ATOM     12  H   UNL     1       1.898   5.018  22.402  0.00  0.00    +0.000 HD
ENDROOT
BRANCH   1  16
ATOM     13  N   UNL     1       6.748   5.543  15.570  0.00  0.00    +0.000 NA
ATOM     14  C   UNL     1       5.330   5.971  15.440  0.00  0.00    +0.000 C 
ATOM     15  C   UNL     1       4.371   5.222  16.386  0.00  0.00    +0.000 C 
ATOM     16  N   UNL     1       4.759   5.500  17.764  0.00  0.00    +0.000 N 
ATOM     17  C   UNL     1       6.163   5.252  18.111  0.00  0.00    +0.000 C 
ATOM     18  C   UNL     1       7.143   5.718  16.989  0.00  0.00    +0.000 C 
BRANCH  13  20
ATOM     19  C   UNL     1       6.288   3.931  13.674  0.00  0.00    +0.000 C 
ATOM     20  C   UNL     1       6.907   4.184  15.042  0.00  0.00    +0.000 C 
ENDBRANCH  13  20
ENDBRANCH   1  16
BRANCH  10  21
ATOM     21  C   UNL     1       0.472   9.233  19.945  0.00  0.00    +0.000 C 
BRANCH  21  22
ATOM     22  C   UNL     1      -0.083  10.443  19.193  0.00  0.00    +0.000 C 
BRANCH  22  23
ATOM     23  C   UNL     1      -1.219  10.091  18.232  0.00  0.00    +0.000 C 
BRANCH  23  24
ATOM     24  N   UNL     1      -1.862  11.298  17.684  0.00  0.00    +0.000 NA
ATOM     25  C   UNL     1      -2.860  11.922  18.569  0.00  0.00    +0.000 C 
ATOM     26  C   UNL     1      -4.180  11.293  18.184  0.00  0.00    +0.000 C 
ATOM     27  C   UNL     1      -4.063  11.207  16.679  0.00  0.00    +0.000 C 
ATOM     28  C   UNL     1      -2.574  10.996  16.424  0.00  0.00    +0.000 C 
ENDBRANCH  23  24
ENDBRANCH  22  23
ENDBRANCH  21  22
ENDBRANCH  10  21
TORSDOF 6
ENDMDL
MODEL 7
REMARK VINA RESULT:      -6.6      1.759      8.170
REMARK  Name = 
REMARK  7 active torsions:
REMARK  status: ('A' for Active; 'I' for Inactive)
REMARK    1  A    between atoms: C_1  and  C_2
REMARK    2  A    between atoms: C_2  and  N_3
REMARK    3  A    between atoms: N_6  and  C_7
REMARK    4  A    between atoms: N_16  and  C_17
REMARK    5  A    between atoms: C_17  and  C_18
REMARK    6  A    between atoms: C_18  and  C_19
REMARK    7  A    between atoms: C_19  and  N_20
REMARK                            x       y       z     vdW  Elec       q    Type
REMARK                         _______ _______ _______ _____ _____    ______ ____
ROOT
ATOM      1  C   UNL     1       2.185   7.165  19.631  0.00  0.00    +0.000 A 
ATOM      2  N   UNL     1       1.830   6.182  20.518  0.00  0.00    +0.000 NA
ATOM      3  C   UNL     1       2.406   4.968  20.480  0.00  0.00    +0.000 A 
ATOM      4  N   UNL     1       1.954   4.057  21.412  0.00  0.00    +0.000 N 
ATOM      5  N   UNL     1       3.330   4.554  19.610  0.00  0.00    +0.000 NA
ATOM      6  C   UNL     1       3.662   5.515  18.737  0.00  0.00    +0.000 A 
ATOM      7  C   UNL     1       3.147   6.800  18.664  0.00  0.00    +0.000 A 
ATOM      8  N   UNL     1       3.711   7.479  17.603  0.00  0.00    +0.000 NA
ATOM      9  C   UNL     1       4.558   6.633  17.065  0.00  0.00    +0.000 A 
ATOM     10  N   UNL     1       4.588   5.437  17.731  0.00  0.00    +0.000 N 
ATOM     11  H   UNL     1       1.027   4.327  21.711  0.00  0.00    +0.000 HD
ATOM     12  H   UNL     1       2.075   3.118  21.061  0.00  0.00    +0.000 HD
ENDROOT
BRANCH   1  16
ATOM     13  N   UNL     1      -0.382  10.601  19.586  0.00  0.00    +0.000 NA
ATOM     14  C   UNL     1       0.119   9.812  18.429  0.00  0.00    +0.000 C 
ATOM     15  C   UNL     1       1.563   9.303  18.609  0.00  0.00    +0.000 C 
ATOM     16  N   UNL     1       1.605   8.412  19.763  0.00  0.00    +0.000 N 
ATOM     17  C   UNL     1       1.058   8.940  21.018  0.00  0.00    +0.000 C 
ATOM     18  C   UNL     1      -0.255   9.754  20.798  0.00  0.00    +0.000 C 
BRANCH  13  20
ATOM     19  C   UNL     1       0.318  12.574  21.008  0.00  0.00    +0.000 C 
ATOM     20  C   UNL     1       0.318  11.889  19.649  0.00  0.00    +0.000 C 
ENDBRANCH  13  20
ENDBRANCH   1  16
BRANCH  10  21
ATOM     21  C   UNL     1       5.423   4.288  17.421  0.00  0.00    +0.000 C 
BRANCH  21  22
ATOM     22  C   UNL     1       6.758   4.676  16.784  0.00  0.00    +0.000 C 
BRANCH  22  23
ATOM     23  C   UNL     1       7.016   3.982  15.446  0.00  0.00    +0.000 C 
BRANCH  23  24
ATOM     24  N   UNL     1       6.485   4.764  14.316  0.00  0.00    +0.000 NA
ATOM     25  C   UNL     1       5.387   4.115  13.580  0.00  0.00    +0.000 C 
ATOM     26  C   UNL     1       6.057   3.343  12.465  0.00  0.00    +0.000 C 
ATOM     27  C   UNL     1       7.152   4.294  12.035  0.00  0.00    +0.000 C 
ATOM     28  C   UNL     1       7.538   5.033  13.314  0.00  0.00    +0.000 C 
ENDBRANCH  23  24
ENDBRANCH  22  23
ENDBRANCH  21  22
ENDBRANCH  10  21
TORSDOF 6
ENDMDL
MODEL 8
REMARK VINA RESULT:      -6.6      3.616      9.944
REMARK  Name = 
REMARK  7 active torsions:
REMARK  status: ('A' for Active; 'I' for Inactive)
REMARK    1  A    between atoms: C_1  and  C_2
REMARK    2  A    between atoms: C_2  and  N_3
REMARK    3  A    between atoms: N_6  and  C_7
REMARK    4  A    between atoms: N_16  and  C_17
REMARK    5  A    between atoms: C_17  and  C_18
REMARK    6  A    between atoms: C_18  and  C_19
REMARK    7  A    between atoms: C_19  and  N_20
REMARK                            x       y       z     vdW  Elec       q    Type
REMARK                         _______ _______ _______ _____ _____    ______ ____
ROOT
ATOM      1  C   UNL     1      -0.834  11.633  21.321  0.00  0.00    +0.000 A 
ATOM      2  N   UNL     1      -1.145  11.961  20.027  0.00  0.00    +0.000 NA
ATOM      3  C   UNL     1      -0.680  11.239  18.994  0.00  0.00    +0.000 A 
ATOM      4  N   UNL     1      -1.047  11.675  17.738  0.00  0.00    +0.000 N 
ATOM      5  N   UNL     1       0.128  10.179  19.066  0.00  0.00    +0.000 NA
ATOM      6  C   UNL     1       0.441   9.872  20.332  0.00  0.00    +0.000 A 
ATOM      7  C   UNL     1       0.034  10.530  21.482  0.00  0.00    +0.000 A 
ATOM      8  N   UNL     1       0.599   9.939  22.595  0.00  0.00    +0.000 NA
ATOM      9  C   UNL     1       1.309   8.939  22.129  0.00  0.00    +0.000 A 
ATOM     10  N   UNL     1       1.225   8.836  20.766  0.00  0.00    +0.000 N 
ATOM     11  H   UNL     1      -1.285  12.657  17.790  0.00  0.00    +0.000 HD
ATOM     12  H   UNL     1      -0.351  11.400  17.061  0.00  0.00    +0.000 HD
ENDROOT
BRANCH   1  16
ATOM     13  N   UNL     1      -3.066  14.375  23.749  0.00  0.00    +0.000 NA
ATOM     14  C   UNL     1      -2.110  14.686  22.654  0.00  0.00    +0.000 C 
ATOM     15  C   UNL     1      -0.906  13.724  22.595  0.00  0.00    +0.000 C 
ATOM     16  N   UNL     1      -1.396  12.374  22.342  0.00  0.00    +0.000 N 
ATOM     17  C   UNL     1      -2.441  11.877  23.245  0.00  0.00    +0.000 C 
ATOM     18  C   UNL     1      -3.506  12.969  23.578  0.00  0.00    +0.000 C 
BRANCH  13  20
ATOM     19  C   UNL     1      -2.192  16.158  25.319  0.00  0.00    +0.000 C 
ATOM     20  C   UNL     1      -2.452  14.683  25.046  0.00  0.00    +0.000 C 
ENDBRANCH  13  20
ENDBRANCH   1  16
BRANCH  10  21
ATOM     21  C   UNL     1       1.864   7.835  19.927  0.00  0.00    +0.000 C 
BRANCH  21  22
ATOM     22  C   UNL     1       1.759   6.422  20.500  0.00  0.00    +0.000 C 
BRANCH  22  23
ATOM     23  C   UNL     1       2.863   5.484  20.008  0.00  0.00    +0.000 C 
BRANCH  23  24
ATOM     24  N   UNL     1       2.583   4.082  20.363  0.00  0.00    +0.000 NA
ATOM     25  C   UNL     1       3.033   3.093  19.368  0.00  0.00    +0.000 C 
ATOM     26  C   UNL     1       1.848   2.884  18.452  0.00  0.00    +0.000 C 
ATOM     27  C   UNL     1       0.689   2.899  19.424  0.00  0.00    +0.000 C 
ATOM     28  C   UNL     1       1.132   3.855  20.528  0.00  0.00    +0.000 C 
ENDBRANCH  23  24
ENDBRANCH  22  23
ENDBRANCH  21  22
ENDBRANCH  10  21
TORSDOF 6
ENDMDL
MODEL 9
REMARK VINA RESULT:      -6.6      1.608      8.068
REMARK  Name = 
REMARK  7 active torsions:
REMARK  status: ('A' for Active; 'I' for Inactive)
REMARK    1  A    between atoms: C_1  and  C_2
REMARK    2  A    between atoms: C_2  and  N_3
REMARK    3  A    between atoms: N_6  and  C_7
REMARK    4  A    between atoms: N_16  and  C_17
REMARK    5  A    between atoms: C_17  and  C_18
REMARK    6  A    between atoms: C_18  and  C_19
REMARK    7  A    between atoms: C_19  and  N_20
REMARK                            x       y       z     vdW  Elec       q    Type
REMARK                         _______ _______ _______ _____ _____    ______ ____
ROOT
ATOM      1  C   UNL     1       2.232   7.109  19.468  0.00  0.00    +0.000 A 
ATOM      2  N   UNL     1       1.880   6.153  20.386  0.00  0.00    +0.000 NA
ATOM      3  C   UNL     1       2.573   5.007  20.499  0.00  0.00    +0.000 A 
ATOM      4  N   UNL     1       2.114   4.115  21.446  0.00  0.00    +0.000 N 
ATOM      5  N   UNL     1       3.624   4.638  19.763  0.00  0.00    +0.000 NA
ATOM      6  C   UNL     1       3.954   5.570  18.858  0.00  0.00    +0.000 A 
ATOM      7  C   UNL     1       3.326   6.785  18.635  0.00  0.00    +0.000 A 
ATOM      8  N   UNL     1       3.934   7.451  17.589  0.00  0.00    +0.000 NA
ATOM      9  C   UNL     1       4.914   6.666  17.207  0.00  0.00    +0.000 A 
ATOM     10  N   UNL     1       4.988   5.526  17.962  0.00  0.00    +0.000 N 
ATOM     11  H   UNL     1       1.137   4.305  21.627  0.00  0.00    +0.000 HD
ATOM     12  H   UNL     1       2.365   3.174  21.182  0.00  0.00    +0.000 HD
ENDROOT
BRANCH   1  16
ATOM     13  N   UNL     1       0.802  11.129  19.902  0.00  0.00    +0.000 NA
ATOM     14  C   UNL     1       1.154  10.158  20.972  0.00  0.00    +0.000 C 
ATOM     15  C   UNL     1       0.779   8.702  20.631  0.00  0.00    +0.000 C 
ATOM     16  N   UNL     1       1.521   8.293  19.444  0.00  0.00    +0.000 N 
ATOM     17  C   UNL     1       1.413   9.168  18.270  0.00  0.00    +0.000 C 
ATOM     18  C   UNL     1       1.461  10.680  18.652  0.00  0.00    +0.000 C 
BRANCH  13  20
ATOM     19  C   UNL     1      -1.186  11.928  18.555  0.00  0.00    +0.000 C 
ATOM     20  C   UNL     1      -0.656  11.272  19.822  0.00  0.00    +0.000 C 
ENDBRANCH  13  20
ENDBRANCH   1  16
BRANCH  10  21
ATOM     21  C   UNL     1       5.961   4.455  17.827  0.00  0.00    +0.000 C 
BRANCH  21  22
ATOM     22  C   UNL     1       6.717   4.498  16.499  0.00  0.00    +0.000 C 
BRANCH  22  23
ATOM     23  C   UNL     1       6.054   3.672  15.396  0.00  0.00    +0.000 C 
BRANCH  23  24
ATOM     24  N   UNL     1       5.823   4.473  14.181  0.00  0.00    +0.000 NA
ATOM     25  C   UNL     1       5.093   3.773  13.110  0.00  0.00    +0.000 C 
ATOM     26  C   UNL     1       6.163   3.145  12.246  0.00  0.00    +0.000 C 
ATOM     27  C   UNL     1       7.224   4.222  12.222  0.00  0.00    +0.000 C 
ATOM     28  C   UNL     1       7.101   4.908  13.579  0.00  0.00    +0.000 C 
ENDBRANCH  23  24
ENDBRANCH  22  23
ENDBRANCH  21  22
ENDBRANCH  10  21
TORSDOF 6
ENDMDL
