MODEL 1
REMARK VINA RESULT:      -7.8      0.000      0.000
REMARK  Name = 
REMARK  14 active torsions:
REMARK  status: ('A' for Active; 'I' for Inactive)
REMARK    1  A    between atoms: C_1  and  C_2
REMARK    2  A    between atoms: C_2  and  O_3
REMARK    3  A    between atoms: O_3  and  C_4
REMARK    4  A    between atoms: C_4  and  C_6
REMARK    5  A    between atoms: C_8  and  C_9
REMARK    6  A    between atoms: C_10  and  C_11
REMARK    7  A    between atoms: C_11  and  O_13
REMARK    8  A    between atoms: O_13  and  C_14
REMARK    9  A    between atoms: C_14  and  C_15
REMARK   10  A    between atoms: N_17  and  C_18
REMARK   11  A    between atoms: C_18  and  C_19
REMARK   12  A    between atoms: C_22  and  O_23
REMARK   13  A    between atoms: O_23  and  C_24
REMARK   14  A    between atoms: C_27  and  C_28
REMARK                            x       y       z     vdW  Elec       q    Type
REMARK                         _______ _______ _______ _____ _____    ______ ____
ROOT
ATOM      1  C   UNL     1       5.261   6.606  16.391  0.00  0.00    +0.000 C 
ATOM      2  O   UNL     1       4.951   6.970  15.260  0.00  0.00    +0.000 OA
ENDROOT
BRANCH   1   7
ATOM      3  C   UNL     1       4.256   3.527  18.230  0.00  0.00    +0.000 A 
ATOM      4  N   UNL     1       4.874   3.038  17.106  0.00  0.00    +0.000 N 
ATOM      5  C   UNL     1       5.368   4.054  16.331  0.00  0.00    +0.000 A 
ATOM      6  C   UNL     1       6.157   3.755  15.105  0.00  0.00    +0.000 C 
ATOM      7  C   UNL     1       4.984   5.260  16.912  0.00  0.00    +0.000 A 
ATOM      8  C   UNL     1       4.264   4.917  18.121  0.00  0.00    +0.000 A 
ATOM      9  C   UNL     1       3.651   5.853  19.113  0.00  0.00    +0.000 C 
ATOM     10  H   UNL     1       4.985   2.048  16.918  0.00  0.00    +0.000 HD
BRANCH   3  11
ATOM     11  C   UNL     1       3.742   2.684  19.300  0.00  0.00    +0.000 C 
ATOM     12  O   UNL     1       4.384   2.270  20.251  0.00  0.00    +0.000 OA
BRANCH  11  13
ATOM     13  O   UNL     1       2.443   2.362  19.031  0.00  0.00    +0.000 OA
BRANCH  13  15
ATOM     14  C   UNL     1       0.981   3.801  20.359  0.00  0.00    +0.000 C 
ATOM     15  C   UNL     1       1.534   2.407  20.145  0.00  0.00    +0.000 C 
ENDBRANCH  13  15
ENDBRANCH  11  13
ENDBRANCH   3  11
ENDBRANCH   1   7
BRANCH   1  16
ATOM     16  O   UNL     1       5.959   7.397  17.254  0.00  0.00    +0.000 OA
BRANCH  16  17
ATOM     17  C   UNL     1       7.338   7.589  16.933  0.00  0.00    +0.000 C 
BRANCH  17  18
ATOM     18  C   UNL     1       8.164   8.143  18.097  0.00  0.00    +0.000 C 
ATOM     19  O   UNL     1       8.598   7.416  18.989  0.00  0.00    +0.000 OA
ATOM     20  N   UNL     1       8.352   9.505  18.082  0.00  0.00    +0.000 N 
ATOM     21  H   UNL     1       7.992  10.049  17.300  0.00  0.00    +0.000 HD
BRANCH  20  22
ATOM     22  C   UNL     1       9.159  10.180  19.067  0.00  0.00    +0.000 C 
BRANCH  22  23
ATOM     23  C   UNL     1       9.704  11.475  18.529  0.00  0.00    +0.000 A 
ATOM     24  C   UNL     1       9.005  12.670  18.743  0.00  0.00    +0.000 A 
ATOM     25  C   UNL     1       9.499  13.878  18.248  0.00  0.00    +0.000 A 
ATOM     26  C   UNL     1      10.700  13.916  17.540  0.00  0.00    +0.000 A 
ATOM     27  C   UNL     1      11.386  12.728  17.292  0.00  0.00    +0.000 A 
ATOM     28  C   UNL     1      10.888  11.513  17.780  0.00  0.00    +0.000 A 
BRANCH  26  29
ATOM     29  O   UNL     1      11.077  15.156  17.101  0.00  0.00    +0.000 OA
ATOM     30  C   UNL     1      10.095  16.179  17.227  0.00  0.00    +0.000 C 
ENDBRANCH  26  29
ENDBRANCH  22  23
ENDBRANCH  20  22
ENDBRANCH  17  18
ENDBRANCH  16  17
ENDBRANCH   1  16
TORSDOF 10
ENDMDL
MODEL 2
REMARK VINA RESULT:      -7.4      5.625      8.140
REMARK  Name = 
REMARK  14 active torsions:
REMARK  status: ('A' for Active; 'I' for Inactive)
REMARK    1  A    between atoms: C_1  and  C_2
REMARK    2  A    between atoms: C_2  and  O_3
REMARK    3  A    between atoms: O_3  and  C_4
REMARK    4  A    between atoms: C_4  and  C_6
REMARK    5  A    between atoms: C_8  and  C_9
REMARK    6  A    between atoms: C_10  and  C_11
REMARK    7  A    between atoms: C_11  and  O_13
REMARK    8  A    between atoms: O_13  and  C_14
REMARK    9  A    between atoms: C_14  and  C_15
REMARK   10  A    between atoms: N_17  and  C_18
REMARK   11  A    between atoms: C_18  and  C_19
REMARK   12  A    between atoms: C_22  and  O_23
REMARK   13  A    between atoms: O_23  and  C_24
REMARK   14  A    between atoms: C_27  and  C_28
REMARK                            x       y       z     vdW  Elec       q    Type
REMARK                         _______ _______ _______ _____ _____    ______ ____
ROOT
ATOM      1  C   UNL     1       4.936   4.027  19.309  0.00  0.00    +0.000 C 
ATOM      2  O   UNL     1       5.047   3.002  19.974  0.00  0.00    +0.000 OA
ENDROOT
BRANCH   1   7
ATOM      3  C   UNL     1       5.855   4.259  15.708  0.00  0.00    +0.000 A 
ATOM      4  N   UNL     1       4.528   3.906  15.674  0.00  0.00    +0.000 N 
ATOM      5  C   UNL     1       4.004   3.835  16.938  0.00  0.00    +0.000 A 
ATOM      6  C   UNL     1       2.556   3.556  17.141  0.00  0.00    +0.000 C 
ATOM      7  C   UNL     1       5.038   4.056  17.844  0.00  0.00    +0.000 A 
ATOM      8  C   UNL     1       6.223   4.317  17.051  0.00  0.00    +0.000 A 
ATOM      9  C   UNL     1       7.600   4.624  17.545  0.00  0.00    +0.000 C 
ATOM     10  H   UNL     1       4.010   3.772  14.813  0.00  0.00    +0.000 HD
BRANCH   3  11
ATOM     11  C   UNL     1       6.647   4.532  14.517  0.00  0.00    +0.000 C 
ATOM     12  O   UNL     1       7.181   5.595  14.245  0.00  0.00    +0.000 OA
BRANCH  11  13
ATOM     13  O   UNL     1       6.633   3.432  13.709  0.00  0.00    +0.000 OA
BRANCH  13  15
ATOM     14  C   UNL     1       4.944   3.277  11.950  0.00  0.00    +0.000 C 
ATOM     15  C   UNL     1       6.360   3.671  12.316  0.00  0.00    +0.000 C 
ENDBRANCH  13  15
ENDBRANCH  11  13
ENDBRANCH   3  11
ENDBRANCH   1   7
BRANCH   1  16
ATOM     16  O   UNL     1       4.633   5.235  19.863  0.00  0.00    +0.000 OA
BRANCH  16  17
ATOM     17  C   UNL     1       3.240   5.506  20.024  0.00  0.00    +0.000 C 
BRANCH  17  18
ATOM     18  C   UNL     1       2.794   6.819  19.374  0.00  0.00    +0.000 C 
ATOM     19  O   UNL     1       3.138   7.129  18.235  0.00  0.00    +0.000 OA
ATOM     20  N   UNL     1       2.015   7.627  20.168  0.00  0.00    +0.000 N 
ATOM     21  H   UNL     1       1.739   7.300  21.092  0.00  0.00    +0.000 HD
BRANCH  20  22
ATOM     22  C   UNL     1       1.458   8.867  19.689  0.00  0.00    +0.000 C 
BRANCH  22  23
ATOM     23  C   UNL     1       0.604   9.521  20.742  0.00  0.00    +0.000 A 
ATOM     24  C   UNL     1      -0.209  10.611  20.403  0.00  0.00    +0.000 A 
ATOM     25  C   UNL     1      -1.006  11.227  21.369  0.00  0.00    +0.000 A 
ATOM     26  C   UNL     1      -1.012  10.763  22.684  0.00  0.00    +0.000 A 
ATOM     27  C   UNL     1      -0.181   9.700  23.039  0.00  0.00    +0.000 A 
ATOM     28  C   UNL     1       0.626   9.086  22.074  0.00  0.00    +0.000 A 
BRANCH  26  29
ATOM     29  O   UNL     1      -1.828  11.452  23.540  0.00  0.00    +0.000 OA
ATOM     30  C   UNL     1      -2.541  12.542  22.967  0.00  0.00    +0.000 C 
ENDBRANCH  26  29
ENDBRANCH  22  23
ENDBRANCH  20  22
ENDBRANCH  17  18
ENDBRANCH  16  17
ENDBRANCH   1  16
TORSDOF 10
ENDMDL
MODEL 3
REMARK VINA RESULT:      -7.4      1.014      1.258
REMARK  Name = 
REMARK  14 active torsions:
REMARK  status: ('A' for Active; 'I' for Inactive)
REMARK    1  A    between atoms: C_1  and  C_2
REMARK    2  A    between atoms: C_2  and  O_3
REMARK    3  A    between atoms: O_3  and  C_4
REMARK    4  A    between atoms: C_4  and  C_6
REMARK    5  A    between atoms: C_8  and  C_9
REMARK    6  A    between atoms: C_10  and  C_11
REMARK    7  A    between atoms: C_11  and  O_13
REMARK    8  A    between atoms: O_13  and  C_14
REMARK    9  A    between atoms: C_14  and  C_15
REMARK   10  A    between atoms: N_17  and  C_18
REMARK   11  A    between atoms: C_18  and  C_19
REMARK   12  A    between atoms: C_22  and  O_23
REMARK   13  A    between atoms: O_23  and  C_24
REMARK   14  A    between atoms: C_27  and  C_28
REMARK                            x       y       z     vdW  Elec       q    Type
REMARK                         _______ _______ _______ _____ _____    ______ ____
ROOT
ATOM      1  C   UNL     1       5.217   6.526  16.405  0.00  0.00    +0.000 C 
ATOM      2  O   UNL     1       5.109   7.036  15.293  0.00  0.00    +0.000 OA
ENDROOT
BRANCH   1   7
ATOM      3  C   UNL     1       3.322   3.568  17.638  0.00  0.00    +0.000 A 
ATOM      4  N   UNL     1       4.307   3.011  16.862  0.00  0.00    +0.000 N 
ATOM      5  C   UNL     1       5.149   3.973  16.368  0.00  0.00    +0.000 A 
ATOM      6  C   UNL     1       6.347   3.592  15.571  0.00  0.00    +0.000 C 
ATOM      7  C   UNL     1       4.652   5.216  16.753  0.00  0.00    +0.000 A 
ATOM      8  C   UNL     1       3.477   4.951  17.557  0.00  0.00    +0.000 A 
ATOM      9  C   UNL     1       2.583   5.949  18.219  0.00  0.00    +0.000 C 
ATOM     10  H   UNL     1       4.412   2.012  16.727  0.00  0.00    +0.000 HD
BRANCH   3  11
ATOM     11  C   UNL     1       2.353   2.787  18.395  0.00  0.00    +0.000 C 
ATOM     12  O   UNL     1       1.142   2.821  18.251  0.00  0.00    +0.000 OA
BRANCH  11  13
ATOM     13  O   UNL     1       3.009   2.066  19.350  0.00  0.00    +0.000 OA
BRANCH  13  15
ATOM     14  C   UNL     1       2.197   3.193  21.361  0.00  0.00    +0.000 C 
ATOM     15  C   UNL     1       3.400   2.786  20.533  0.00  0.00    +0.000 C 
ENDBRANCH  13  15
ENDBRANCH  11  13
ENDBRANCH   3  11
ENDBRANCH   1   7
BRANCH   1  16
ATOM     16  O   UNL     1       5.937   7.099  17.410  0.00  0.00    +0.000 OA
BRANCH  16  17
ATOM     17  C   UNL     1       7.084   7.845  16.998  0.00  0.00    +0.000 C 
BRANCH  17  18
ATOM     18  C   UNL     1       8.067   8.134  18.136  0.00  0.00    +0.000 C 
ATOM     19  O   UNL     1       8.491   7.243  18.870  0.00  0.00    +0.000 OA
ATOM     20  N   UNL     1       8.408   9.457  18.289  0.00  0.00    +0.000 N 
ATOM     21  H   UNL     1       8.046  10.144  17.630  0.00  0.00    +0.000 HD
BRANCH  20  22
ATOM     22  C   UNL     1       9.369   9.894  19.270  0.00  0.00    +0.000 C 
BRANCH  22  23
ATOM     23  C   UNL     1       9.833  11.297  18.988  0.00  0.00    +0.000 A 
ATOM     24  C   UNL     1      10.139  12.158  20.052  0.00  0.00    +0.000 A 
ATOM     25  C   UNL     1      10.569  13.463  19.804  0.00  0.00    +0.000 A 
ATOM     26  C   UNL     1      10.711  13.927  18.497  0.00  0.00    +0.000 A 
ATOM     27  C   UNL     1      10.377  13.090  17.433  0.00  0.00    +0.000 A 
ATOM     28  C   UNL     1       9.935  11.783  17.678  0.00  0.00    +0.000 A 
BRANCH  26  29
ATOM     29  O   UNL     1      11.134  15.224  18.383  0.00  0.00    +0.000 OA
ATOM     30  C   UNL     1      11.425  15.662  17.061  0.00  0.00    +0.000 C 
ENDBRANCH  26  29
ENDBRANCH  22  23
ENDBRANCH  20  22
ENDBRANCH  17  18
ENDBRANCH  16  17
ENDBRANCH   1  16
TORSDOF 10
ENDMDL
MODEL 4
REMARK VINA RESULT:      -7.4      4.494      7.774
REMARK  Name = 
REMARK  14 active torsions:
REMARK  status: ('A' for Active; 'I' for Inactive)
REMARK    1  A    between atoms: C_1  and  C_2
REMARK    2  A    between atoms: C_2  and  O_3
REMARK    3  A    between atoms: O_3  and  C_4
REMARK    4  A    between atoms: C_4  and  C_6
REMARK    5  A    between atoms: C_8  and  C_9
REMARK    6  A    between atoms: C_10  and  C_11
REMARK    7  A    between atoms: C_11  and  O_13
REMARK    8  A    between atoms: O_13  and  C_14
REMARK    9  A    between atoms: C_14  and  C_15
REMARK   10  A    between atoms: N_17  and  C_18
REMARK   11  A    between atoms: C_18  and  C_19
REMARK   12  A    between atoms: C_22  and  O_23
REMARK   13  A    between atoms: O_23  and  C_24
REMARK   14  A    between atoms: C_27  and  C_28
REMARK                            x       y       z     vdW  Elec       q    Type
REMARK                         _______ _______ _______ _____ _____    ______ ____
ROOT
ATOM      1  C   UNL     1       5.507   5.204  18.921  0.00  0.00    +0.000 C 
ATOM      2  O   UNL     1       6.036   4.656  19.883  0.00  0.00    +0.000 OA
ENDROOT
BRANCH   1   7
ATOM      3  C   UNL     1       6.806   5.269  15.432  0.00  0.00    +0.000 A 
ATOM      4  N   UNL     1       7.547   6.236  16.064  0.00  0.00    +0.000 N 
ATOM      5  C   UNL     1       7.235   6.306  17.397  0.00  0.00    +0.000 A 
ATOM      6  C   UNL     1       7.980   7.224  18.301  0.00  0.00    +0.000 C 
ATOM      7  C   UNL     1       6.187   5.421  17.638  0.00  0.00    +0.000 A 
ATOM      8  C   UNL     1       5.910   4.768  16.375  0.00  0.00    +0.000 A 
ATOM      9  C   UNL     1       4.878   3.722  16.097  0.00  0.00    +0.000 C 
ATOM     10  H   UNL     1       8.265   6.781  15.599  0.00  0.00    +0.000 HD
BRANCH   3  11
ATOM     11  C   UNL     1       7.004   4.881  14.042  0.00  0.00    +0.000 C 
ATOM     12  O   UNL     1       7.794   5.392  13.266  0.00  0.00    +0.000 OA
BRANCH  11  13
ATOM     13  O   UNL     1       6.106   3.905  13.719  0.00  0.00    +0.000 OA
BRANCH  13  15
ATOM     14  C   UNL     1       4.698   3.176  11.860  0.00  0.00    +0.000 C 
ATOM     15  C   UNL     1       6.101   3.478  12.345  0.00  0.00    +0.000 C 
ENDBRANCH  13  15
ENDBRANCH  11  13
ENDBRANCH   3  11
ENDBRANCH   1   7
BRANCH   1  16
ATOM     16  O   UNL     1       4.203   5.603  18.927  0.00  0.00    +0.000 OA
BRANCH  16  17
ATOM     17  C   UNL     1       3.293   4.720  19.585  0.00  0.00    +0.000 C 
BRANCH  17  18
ATOM     18  C   UNL     1       2.174   5.446  20.338  0.00  0.00    +0.000 C 
ATOM     19  O   UNL     1       1.173   4.856  20.739  0.00  0.00    +0.000 OA
ATOM     20  N   UNL     1       2.364   6.798  20.500  0.00  0.00    +0.000 N 
ATOM     21  H   UNL     1       3.229   7.223  20.172  0.00  0.00    +0.000 HD
BRANCH  20  22
ATOM     22  C   UNL     1       1.440   7.619  21.241  0.00  0.00    +0.000 C 
BRANCH  22  23
ATOM     23  C   UNL     1       0.910   8.743  20.392  0.00  0.00    +0.000 A 
ATOM     24  C   UNL     1      -0.144   9.537  20.863  0.00  0.00    +0.000 A 
ATOM     25  C   UNL     1      -0.645  10.582  20.084  0.00  0.00    +0.000 A 
ATOM     26  C   UNL     1      -0.099  10.858  18.831  0.00  0.00    +0.000 A 
ATOM     27  C   UNL     1       0.927  10.053  18.339  0.00  0.00    +0.000 A 
ATOM     28  C   UNL     1       1.426   8.997  19.113  0.00  0.00    +0.000 A 
BRANCH  26  29
ATOM     29  O   UNL     1      -0.678  11.902  18.161  0.00  0.00    +0.000 OA
ATOM     30  C   UNL     1      -2.053  12.130  18.448  0.00  0.00    +0.000 C 
ENDBRANCH  26  29
ENDBRANCH  22  23
ENDBRANCH  20  22
ENDBRANCH  17  18
ENDBRANCH  16  17
ENDBRANCH   1  16
TORSDOF 10
ENDMDL
MODEL 5
REMARK VINA RESULT:      -7.3      5.021      7.668
REMARK  Name = 
REMARK  14 active torsions:
REMARK  status: ('A' for Active; 'I' for Inactive)
REMARK    1  A    between atoms: C_1  and  C_2
REMARK    2  A    between atoms: C_2  and  O_3
REMARK    3  A    between atoms: O_3  and  C_4
REMARK    4  A    between atoms: C_4  and  C_6
REMARK    5  A    between atoms: C_8  and  C_9
REMARK    6  A    between atoms: C_10  and  C_11
REMARK    7  A    between atoms: C_11  and  O_13
REMARK    8  A    between atoms: O_13  and  C_14
REMARK    9  A    between atoms: C_14  and  C_15
REMARK   10  A    between atoms: N_17  and  C_18
REMARK   11  A    between atoms: C_18  and  C_19
REMARK   12  A    between atoms: C_22  and  O_23
REMARK   13  A    between atoms: O_23  and  C_24
REMARK   14  A    between atoms: C_27  and  C_28
REMARK                            x       y       z     vdW  Elec       q    Type
REMARK                         _______ _______ _______ _____ _____    ______ ____
ROOT
ATOM      1  C   UNL     1       4.651   6.565  16.822  0.00  0.00    +0.000 C 
ATOM      2  O   UNL     1       5.113   6.674  15.690  0.00  0.00    +0.000 OA
ENDROOT
BRANCH   1   7
ATOM      3  C   UNL     1       4.519   3.368  18.726  0.00  0.00    +0.000 A 
ATOM      4  N   UNL     1       5.751   3.878  19.049  0.00  0.00    +0.000 N 
ATOM      5  C   UNL     1       5.945   5.105  18.471  0.00  0.00    +0.000 A 
ATOM      6  C   UNL     1       7.178   5.889  18.756  0.00  0.00    +0.000 C 
ATOM      7  C   UNL     1       4.844   5.376  17.663  0.00  0.00    +0.000 A 
ATOM      8  C   UNL     1       3.939   4.256  17.822  0.00  0.00    +0.000 A 
ATOM      9  C   UNL     1       2.605   4.064  17.175  0.00  0.00    +0.000 C 
ATOM     10  H   UNL     1       6.398   3.415  19.677  0.00  0.00    +0.000 HD
BRANCH   3  11
ATOM     11  C   UNL     1       3.982   2.137  19.290  0.00  0.00    +0.000 C 
ATOM     12  O   UNL     1       3.761   1.108  18.673  0.00  0.00    +0.000 OA
BRANCH  11  13
ATOM     13  O   UNL     1       3.688   2.340  20.607  0.00  0.00    +0.000 OA
BRANCH  13  15
ATOM     14  C   UNL     1       1.441   2.648  21.519  0.00  0.00    +0.000 C 
ATOM     15  C   UNL     1       2.653   3.301  20.886  0.00  0.00    +0.000 C 
ENDBRANCH  13  15
ENDBRANCH  11  13
ENDBRANCH   3  11
ENDBRANCH   1   7
BRANCH   1  16
ATOM     16  O   UNL     1       3.969   7.571  17.439  0.00  0.00    +0.000 OA
BRANCH  16  17
ATOM     17  C   UNL     1       2.690   7.214  17.966  0.00  0.00    +0.000 C 
BRANCH  17  18
ATOM     18  C   UNL     1       2.098   8.273  18.900  0.00  0.00    +0.000 C 
ATOM     19  O   UNL     1       1.917   8.054  20.097  0.00  0.00    +0.000 OA
ATOM     20  N   UNL     1       1.761   9.460  18.295  0.00  0.00    +0.000 N 
ATOM     21  H   UNL     1       1.963   9.590  17.306  0.00  0.00    +0.000 HD
BRANCH  20  22
ATOM     22  C   UNL     1       1.252  10.584  19.040  0.00  0.00    +0.000 C 
BRANCH  22  23
ATOM     23  C   UNL     1      -0.213  10.797  18.769  0.00  0.00    +0.000 A 
ATOM     24  C   UNL     1      -0.854  10.052  17.769  0.00  0.00    +0.000 A 
ATOM     25  C   UNL     1      -2.212  10.241  17.507  0.00  0.00    +0.000 A 
ATOM     26  C   UNL     1      -2.954  11.165  18.241  0.00  0.00    +0.000 A 
ATOM     27  C   UNL     1      -2.319  11.935  19.214  0.00  0.00    +0.000 A 
ATOM     28  C   UNL     1      -0.954  11.755  19.473  0.00  0.00    +0.000 A 
BRANCH  26  29
ATOM     29  O   UNL     1      -4.273  11.264  17.887  0.00  0.00    +0.000 OA
ATOM     30  C   UNL     1      -4.537  11.265  16.489  0.00  0.00    +0.000 C 
ENDBRANCH  26  29
ENDBRANCH  22  23
ENDBRANCH  20  22
ENDBRANCH  17  18
ENDBRANCH  16  17
ENDBRANCH   1  16
TORSDOF 10
ENDMDL
MODEL 6
REMARK VINA RESULT:      -7.2      1.244      2.196
REMARK  Name = 
REMARK  14 active torsions:
REMARK  status: ('A' for Active; 'I' for Inactive)
REMARK    1  A    between atoms: C_1  and  C_2
REMARK    2  A    between atoms: C_2  and  O_3
REMARK    3  A    between atoms: O_3  and  C_4
REMARK    4  A    between atoms: C_4  and  C_6
REMARK    5  A    between atoms: C_8  and  C_9
REMARK    6  A    between atoms: C_10  and  C_11
REMARK    7  A    between atoms: C_11  and  O_13
REMARK    8  A    between atoms: O_13  and  C_14
REMARK    9  A    between atoms: C_14  and  C_15
REMARK   10  A    between atoms: N_17  and  C_18
REMARK   11  A    between atoms: C_18  and  C_19
REMARK   12  A    between atoms: C_22  and  O_23
REMARK   13  A    between atoms: O_23  and  C_24
REMARK   14  A    between atoms: C_27  and  C_28
REMARK                            x       y       z     vdW  Elec       q    Type
REMARK                         _______ _______ _______ _____ _____    ______ ____
ROOT
ATOM      1  C   UNL     1       5.037   6.816  16.548  0.00  0.00    +0.000 C 
ATOM      2  O   UNL     1       5.166   6.838  15.328  0.00  0.00    +0.000 OA
ENDROOT
BRANCH   1   7
ATOM      3  C   UNL     1       2.906   4.163  18.061  0.00  0.00    +0.000 A 
ATOM      4  N   UNL     1       2.318   5.326  18.492  0.00  0.00    +0.000 N 
ATOM      5  C   UNL     1       2.950   6.423  17.969  0.00  0.00    +0.000 A 
ATOM      6  C   UNL     1       2.428   7.792  18.229  0.00  0.00    +0.000 C 
ATOM      7  C   UNL     1       4.051   5.976  17.243  0.00  0.00    +0.000 A 
ATOM      8  C   UNL     1       4.024   4.530  17.313  0.00  0.00    +0.000 A 
ATOM      9  C   UNL     1       4.984   3.569  16.689  0.00  0.00    +0.000 C 
ATOM     10  H   UNL     1       1.491   5.348  19.078  0.00  0.00    +0.000 HD
BRANCH   3  11
ATOM     11  C   UNL     1       2.379   2.836  18.351  0.00  0.00    +0.000 C 
ATOM     12  O   UNL     1       1.642   2.189  17.626  0.00  0.00    +0.000 OA
BRANCH  11  13
ATOM     13  O   UNL     1       2.777   2.462  19.602  0.00  0.00    +0.000 OA
BRANCH  13  15
ATOM     14  C   UNL     1       2.092   3.466  21.722  0.00  0.00    +0.000 C 
ATOM     15  C   UNL     1       1.762   2.478  20.622  0.00  0.00    +0.000 C 
ENDBRANCH  13  15
ENDBRANCH  11  13
ENDBRANCH   3  11
ENDBRANCH   1   7
BRANCH   1  16
ATOM     16  O   UNL     1       5.849   7.519  17.388  0.00  0.00    +0.000 OA
BRANCH  16  17
ATOM     17  C   UNL     1       7.233   7.534  17.034  0.00  0.00    +0.000 C 
BRANCH  17  18
ATOM     18  C   UNL     1       8.147   8.010  18.167  0.00  0.00    +0.000 C 
ATOM     19  O   UNL     1       8.566   7.240  19.030  0.00  0.00    +0.000 OA
ATOM     20  N   UNL     1       8.434   9.354  18.159  0.00  0.00    +0.000 N 
ATOM     21  H   UNL     1       8.081   9.934  17.400  0.00  0.00    +0.000 HD
BRANCH  20  22
ATOM     22  C   UNL     1       9.329   9.954  19.115  0.00  0.00    +0.000 C 
BRANCH  22  23
ATOM     23  C   UNL     1       9.585  11.401  18.787  0.00  0.00    +0.000 A 
ATOM     24  C   UNL     1      10.475  11.737  17.759  0.00  0.00    +0.000 A 
ATOM     25  C   UNL     1      10.722  13.075  17.445  0.00  0.00    +0.000 A 
ATOM     26  C   UNL     1      10.080  14.096  18.144  0.00  0.00    +0.000 A 
ATOM     27  C   UNL     1       9.218  13.774  19.191  0.00  0.00    +0.000 A 
ATOM     28  C   UNL     1       8.976  12.433  19.514  0.00  0.00    +0.000 A 
BRANCH  26  29
ATOM     29  O   UNL     1      10.407  15.365  17.749  0.00  0.00    +0.000 OA
ATOM     30  C   UNL     1      11.545  15.472  16.900  0.00  0.00    +0.000 C 
ENDBRANCH  26  29
ENDBRANCH  22  23
ENDBRANCH  20  22
ENDBRANCH  17  18
ENDBRANCH  16  17
ENDBRANCH   1  16
TORSDOF 10
ENDMDL
MODEL 7
REMARK VINA RESULT:      -7.2      4.489      7.731
REMARK  Name = 
REMARK  14 active torsions:
REMARK  status: ('A' for Active; 'I' for Inactive)
REMARK    1  A    between atoms: C_1  and  C_2
REMARK    2  A    between atoms: C_2  and  O_3
REMARK    3  A    between atoms: O_3  and  C_4
REMARK    4  A    between atoms: C_4  and  C_6
REMARK    5  A    between atoms: C_8  and  C_9
REMARK    6  A    between atoms: C_10  and  C_11
REMARK    7  A    between atoms: C_11  and  O_13
REMARK    8  A    between atoms: O_13  and  C_14
REMARK    9  A    between atoms: C_14  and  C_15
REMARK   10  A    between atoms: N_17  and  C_18
REMARK   11  A    between atoms: C_18  and  C_19
REMARK   12  A    between atoms: C_22  and  O_23
REMARK   13  A    between atoms: O_23  and  C_24
REMARK   14  A    between atoms: C_27  and  C_28
REMARK                            x       y       z     vdW  Elec       q    Type
REMARK                         _______ _______ _______ _____ _____    ______ ____
ROOT
ATOM      1  C   UNL     1       5.408   5.425  18.868  0.00  0.00    +0.000 C 
ATOM      2  O   UNL     1       5.885   4.912  19.876  0.00  0.00    +0.000 OA
ENDROOT
BRANCH   1   7
ATOM      3  C   UNL     1       6.817   5.283  15.424  0.00  0.00    +0.000 A 
ATOM      4  N   UNL     1       7.595   6.228  16.046  0.00  0.00    +0.000 N 
ATOM      5  C   UNL     1       7.246   6.365  17.363  0.00  0.00    +0.000 A 
ATOM      6  C   UNL     1       8.016   7.272  18.259  0.00  0.00    +0.000 C 
ATOM      7  C   UNL     1       6.140   5.554  17.601  0.00  0.00    +0.000 A 
ATOM      8  C   UNL     1       5.863   4.871  16.353  0.00  0.00    +0.000 A 
ATOM      9  C   UNL     1       4.780   3.877  16.079  0.00  0.00    +0.000 C 
ATOM     10  H   UNL     1       8.357   6.712  15.585  0.00  0.00    +0.000 HD
BRANCH   3  11
ATOM     11  C   UNL     1       7.034   4.832  14.056  0.00  0.00    +0.000 C 
ATOM     12  O   UNL     1       7.687   5.418  13.209  0.00  0.00    +0.000 OA
BRANCH  11  13
ATOM     13  O   UNL     1       6.323   3.687  13.845  0.00  0.00    +0.000 OA
BRANCH  13  15
ATOM     14  C   UNL     1       6.144   2.351  11.806  0.00  0.00    +0.000 C 
ATOM     15  C   UNL     1       5.669   3.571  12.568  0.00  0.00    +0.000 C 
ENDBRANCH  13  15
ENDBRANCH  11  13
ENDBRANCH   3  11
ENDBRANCH   1   7
BRANCH   1  16
ATOM     16  O   UNL     1       4.119   5.864  18.806  0.00  0.00    +0.000 OA
BRANCH  16  17
ATOM     17  C   UNL     1       3.140   4.976  19.349  0.00  0.00    +0.000 C 
BRANCH  17  18
ATOM     18  C   UNL     1       2.101   5.678  20.229  0.00  0.00    +0.000 C 
ATOM     19  O   UNL     1       1.175   5.063  20.755  0.00  0.00    +0.000 OA
ATOM     20  N   UNL     1       2.268   7.036  20.357  0.00  0.00    +0.000 N 
ATOM     21  H   UNL     1       3.072   7.483  19.921  0.00  0.00    +0.000 HD
BRANCH  20  22
ATOM     22  C   UNL     1       1.417   7.838  21.199  0.00  0.00    +0.000 C 
BRANCH  22  23
ATOM     23  C   UNL     1       0.820   8.987  20.432  0.00  0.00    +0.000 A 
ATOM     24  C   UNL     1       1.267   9.267  19.134  0.00  0.00    +0.000 A 
ATOM     25  C   UNL     1       0.722  10.331  18.412  0.00  0.00    +0.000 A 
ATOM     26  C   UNL     1      -0.281  11.124  18.968  0.00  0.00    +0.000 A 
ATOM     27  C   UNL     1      -0.709  10.875  20.271  0.00  0.00    +0.000 A 
ATOM     28  C   UNL     1      -0.157   9.815  21.001  0.00  0.00    +0.000 A 
BRANCH  26  29
ATOM     29  O   UNL     1      -0.731  12.138  18.166  0.00  0.00    +0.000 OA
ATOM     30  C   UNL     1      -0.383  13.454  18.583  0.00  0.00    +0.000 C 
ENDBRANCH  26  29
ENDBRANCH  22  23
ENDBRANCH  20  22
ENDBRANCH  17  18
ENDBRANCH  16  17
ENDBRANCH   1  16
TORSDOF 10
ENDMDL
MODEL 8
REMARK VINA RESULT:      -7.2      4.758      7.781
REMARK  Name = 
REMARK  14 active torsions:
REMARK  status: ('A' for Active; 'I' for Inactive)
REMARK    1  A    between atoms: C_1  and  C_2
REMARK    2  A    between atoms: C_2  and  O_3
REMARK    3  A    between atoms: O_3  and  C_4
REMARK    4  A    between atoms: C_4  and  C_6
REMARK    5  A    between atoms: C_8  and  C_9
REMARK    6  A    between atoms: C_10  and  C_11
REMARK    7  A    between atoms: C_11  and  O_13
REMARK    8  A    between atoms: O_13  and  C_14
REMARK    9  A    between atoms: C_14  and  C_15
REMARK   10  A    between atoms: N_17  and  C_18
REMARK   11  A    between atoms: C_18  and  C_19
REMARK   12  A    between atoms: C_22  and  O_23
REMARK   13  A    between atoms: O_23  and  C_24
REMARK   14  A    between atoms: C_27  and  C_28
REMARK                            x       y       z     vdW  Elec       q    Type
REMARK                         _______ _______ _______ _____ _____    ______ ____
ROOT
ATOM      1  C   UNL     1       5.434   4.646  19.096  0.00  0.00    +0.000 C 
ATOM      2  O   UNL     1       5.479   3.524  19.591  0.00  0.00    +0.000 OA
ENDROOT
BRANCH   1   7
ATOM      3  C   UNL     1       6.668   5.122  15.615  0.00  0.00    +0.000 A 
ATOM      4  N   UNL     1       7.473   5.954  16.353  0.00  0.00    +0.000 N 
ATOM      5  C   UNL     1       7.190   5.856  17.690  0.00  0.00    +0.000 A 
ATOM      6  C   UNL     1       8.001   6.602  18.690  0.00  0.00    +0.000 C 
ATOM      7  C   UNL     1       6.100   5.002  17.836  0.00  0.00    +0.000 A 
ATOM      8  C   UNL     1       5.763   4.543  16.504  0.00  0.00    +0.000 A 
ATOM      9  C   UNL     1       4.671   3.599  16.114  0.00  0.00    +0.000 C 
ATOM     10  H   UNL     1       8.210   6.519  15.947  0.00  0.00    +0.000 HD
BRANCH   3  11
ATOM     11  C   UNL     1       6.817   4.918  14.180  0.00  0.00    +0.000 C 
ATOM     12  O   UNL     1       7.693   5.400  13.480  0.00  0.00    +0.000 OA
BRANCH  11  13
ATOM     13  O   UNL     1       5.773   4.166  13.725  0.00  0.00    +0.000 OA
BRANCH  13  15
ATOM     14  C   UNL     1       4.718   3.208  11.740  0.00  0.00    +0.000 C 
ATOM     15  C   UNL     1       6.004   3.431  12.509  0.00  0.00    +0.000 C 
ENDBRANCH  13  15
ENDBRANCH  11  13
ENDBRANCH   3  11
ENDBRANCH   1   7
BRANCH   1  16
ATOM     16  O   UNL     1       4.696   5.659  19.633  0.00  0.00    +0.000 OA
BRANCH  16  17
ATOM     17  C   UNL     1       3.285   5.442  19.664  0.00  0.00    +0.000 C 
BRANCH  17  18
ATOM     18  C   UNL     1       2.524   6.222  18.587  0.00  0.00    +0.000 C 
ATOM     19  O   UNL     1       1.904   5.654  17.690  0.00  0.00    +0.000 OA
ATOM     20  N   UNL     1       2.614   7.590  18.686  0.00  0.00    +0.000 N 
ATOM     21  H   UNL     1       3.118   8.001  19.470  0.00  0.00    +0.000 HD
BRANCH  20  22
ATOM     22  C   UNL     1       1.907   8.473  17.793  0.00  0.00    +0.000 C 
BRANCH  22  23
ATOM     23  C   UNL     1       0.942   9.349  18.546  0.00  0.00    +0.000 A 
ATOM     24  C   UNL     1      -0.148   9.922  17.878  0.00  0.00    +0.000 A 
ATOM     25  C   UNL     1      -1.050  10.738  18.564  0.00  0.00    +0.000 A 
ATOM     26  C   UNL     1      -0.886  10.986  19.926  0.00  0.00    +0.000 A 
ATOM     27  C   UNL     1       0.214  10.448  20.593  0.00  0.00    +0.000 A 
ATOM     28  C   UNL     1       1.126   9.638  19.905  0.00  0.00    +0.000 A 
BRANCH  26  29
ATOM     29  O   UNL     1      -1.830  11.804  20.486  0.00  0.00    +0.000 OA
ATOM     30  C   UNL     1      -1.513  13.192  20.497  0.00  0.00    +0.000 C 
ENDBRANCH  26  29
ENDBRANCH  22  23
ENDBRANCH  20  22
ENDBRANCH  17  18
ENDBRANCH  16  17
ENDBRANCH   1  16
TORSDOF 10
ENDMDL
MODEL 9
REMARK VINA RESULT:      -7.1      1.717      2.078
REMARK  Name = 
REMARK  14 active torsions:
REMARK  status: ('A' for Active; 'I' for Inactive)
REMARK    1  A    between atoms: C_1  and  C_2
REMARK    2  A    between atoms: C_2  and  O_3
REMARK    3  A    between atoms: O_3  and  C_4
REMARK    4  A    between atoms: C_4  and  C_6
REMARK    5  A    between atoms: C_8  and  C_9
REMARK    6  A    between atoms: C_10  and  C_11
REMARK    7  A    between atoms: C_11  and  O_13
REMARK    8  A    between atoms: O_13  and  C_14
REMARK    9  A    between atoms: C_14  and  C_15
REMARK   10  A    between atoms: N_17  and  C_18
REMARK   11  A    between atoms: C_18  and  C_19
REMARK   12  A    between atoms: C_22  and  O_23
REMARK   13  A    between atoms: O_23  and  C_24
REMARK   14  A    between atoms: C_27  and  C_28
REMARK                            x       y       z     vdW  Elec       q    Type
REMARK                         _______ _______ _______ _____ _____    ______ ____
ROOT
ATOM      1  C   UNL     1       7.247   5.083  17.136  0.00  0.00    +0.000 C 
ATOM      2  O   UNL     1       8.046   4.480  17.846  0.00  0.00    +0.000 OA
ENDROOT
BRANCH   1   7
ATOM      3  C   UNL     1       3.682   4.007  17.102  0.00  0.00    +0.000 A 
ATOM      4  N   UNL     1       4.082   3.818  15.803  0.00  0.00    +0.000 N 
ATOM      5  C   UNL     1       5.411   4.113  15.647  0.00  0.00    +0.000 A 
ATOM      6  C   UNL     1       6.086   3.896  14.338  0.00  0.00    +0.000 C 
ATOM      7  C   UNL     1       5.886   4.603  16.861  0.00  0.00    +0.000 A 
ATOM      8  C   UNL     1       4.773   4.542  17.786  0.00  0.00    +0.000 A 
ATOM      9  C   UNL     1       4.761   4.944  19.226  0.00  0.00    +0.000 C 
ATOM     10  H   UNL     1       3.471   3.457  15.079  0.00  0.00    +0.000 HD
BRANCH   3  11
ATOM     11  C   UNL     1       2.357   3.659  17.597  0.00  0.00    +0.000 C 
ATOM     12  O   UNL     1       1.337   4.304  17.415  0.00  0.00    +0.000 OA
BRANCH  11  13
ATOM     13  O   UNL     1       2.449   2.536  18.367  0.00  0.00    +0.000 OA
BRANCH  13  15
ATOM     14  C   UNL     1       1.621   3.015  20.616  0.00  0.00    +0.000 C 
ATOM     15  C   UNL     1       1.372   2.314  19.296  0.00  0.00    +0.000 C 
ENDBRANCH  13  15
ENDBRANCH  11  13
ENDBRANCH   3  11
ENDBRANCH   1   7
BRANCH   1  16
ATOM     16  O   UNL     1       7.523   6.300  16.586  0.00  0.00    +0.000 OA
BRANCH  16  17
ATOM     17  C   UNL     1       7.043   7.428  17.319  0.00  0.00    +0.000 C 
BRANCH  17  18
ATOM     18  C   UNL     1       8.116   8.095  18.184  0.00  0.00    +0.000 C 
ATOM     19  O   UNL     1       8.692   7.488  19.086  0.00  0.00    +0.000 OA
ATOM     20  N   UNL     1       8.358   9.417  17.896  0.00  0.00    +0.000 N 
ATOM     21  H   UNL     1       7.869   9.855  17.117  0.00  0.00    +0.000 HD
BRANCH  20  22
ATOM     22  C   UNL     1       9.381  10.175  18.572  0.00  0.00    +0.000 C 
BRANCH  22  23
ATOM     23  C   UNL     1       9.015  11.634  18.647  0.00  0.00    +0.000 A 
ATOM     24  C   UNL     1       9.322  12.371  19.799  0.00  0.00    +0.000 A 
ATOM     25  C   UNL     1       8.987  13.724  19.882  0.00  0.00    +0.000 A 
ATOM     26  C   UNL     1       8.352  14.364  18.819  0.00  0.00    +0.000 A 
ATOM     27  C   UNL     1       8.012  13.631  17.682  0.00  0.00    +0.000 A 
ATOM     28  C   UNL     1       8.338  12.272  17.599  0.00  0.00    +0.000 A 
BRANCH  26  29
ATOM     29  O   UNL     1       8.071  15.688  19.021  0.00  0.00    +0.000 OA
ATOM     30  C   UNL     1       8.626  16.589  18.069  0.00  0.00    +0.000 C 
ENDBRANCH  26  29
ENDBRANCH  22  23
ENDBRANCH  20  22
ENDBRANCH  17  18
ENDBRANCH  16  17
ENDBRANCH   1  16
TORSDOF 10
ENDMDL
